MODEL 1
REMARK VINA RESULT:      -6.4      0.000      0.000
REMARK  Name = 75536808
REMARK  11 active torsions:
REMARK  status: ('A' for Active; 'I' for Inactive)
REMARK    1  A    between atoms: O_2  and  C_9
REMARK    2  A    between atoms: N_4  and  C_7
REMARK    3  A    between atoms: N_4  and  C_8
REMARK    4  A    between atoms: N_5  and  C_17
REMARK    5  A    between atoms: N_6  and  C_16
REMARK    6  A    between atoms: C_10  and  C_16
REMARK    7  A    between atoms: C_18  and  C_19
REMARK    8  A    between atoms: C_18  and  C_21
REMARK    9  A    between atoms: C_18  and  C_22
REMARK   10  A    between atoms: C_18  and  C_23
REMARK   11  A    between atoms: C_19  and  C_20
REMARK                            x       y       z     vdW  Elec       q    Type
REMARK                         _______ _______ _______ _____ _____    ______ ____
ROOT
ATOM      1  O   UNL     1      13.254   8.041  21.608  0.00  0.00    -0.371 OA
ATOM      7  C   UNL     1      11.327   9.024  22.586  0.00  0.00    +0.111 C 
ATOM      9  C   UNL     1      10.891   7.998  21.557  0.00  0.00    +0.164 C 
ATOM     10  C   UNL     1      12.145   7.143  21.446  0.00  0.00    +0.165 C 
ATOM     13  C   UNL     1      12.769   9.272  22.173  0.00  0.00    +0.181 C 
ENDROOT
BRANCH   9   2
ATOM      2  O   UNL     1       9.773   7.243  21.980  0.00  0.00    -0.388 OA
ATOM     25  H   UNL     1       9.236   7.795  22.574  0.00  0.00    +0.210 HD
ENDBRANCH   9   2
BRANCH   7   4
ATOM      4  N   UNL     1      10.522  10.235  22.582  0.00  0.00    -0.306 NA
ATOM     24  H   UNL     1       9.665  10.089  23.116  0.00  0.00    +0.123 HD
BRANCH   4   8
ATOM      5  N   UNL     1      11.273  13.973  24.459  0.00  0.00    -0.305 NA
ATOM      8  C   UNL     1      11.267  11.364  23.133  0.00  0.00    +0.056 C 
ATOM     11  C   UNL     1      10.961  11.523  24.625  0.00  0.00    +0.034 C 
ATOM     12  C   UNL     1      10.927  12.660  22.390  0.00  0.00    +0.034 C 
ATOM     14  C   UNL     1      11.657  12.762  25.198  0.00  0.00    +0.085 C 
ATOM     15  C   UNL     1      11.622  13.862  23.036  0.00  0.00    +0.085 C 
ATOM     17  C   UNL     1      11.905  15.153  25.049  0.00  0.00    +0.104 C 
ENDBRANCH   4   8
ENDBRANCH   7   4
BRANCH  10  16
ATOM     16  C   UNL     1      12.262   6.417  20.119  0.00  0.00    +0.138 C 
BRANCH  16   6
ATOM      3  O   UNL     1      11.685   7.240  17.402  0.00  0.00    -0.276 OA
ATOM      6  N   UNL     1      13.142   7.113  19.209  0.00  0.00    -0.313 N 
ATOM     20  C   UNL     1      12.776   7.468  17.921  0.00  0.00    +0.214 C 
ATOM     26  H   UNL     1      14.068   7.357  19.547  0.00  0.00    +0.149 HD
BRANCH  20  19
ATOM     19  C   UNL     1      13.882   8.186  17.164  0.00  0.00    +0.102 C 
BRANCH  19  18
ATOM     18  C   UNL     1      13.573   9.660  16.811  0.00  0.00    -0.029 C 
ATOM     21  C   UNL     1      14.817  10.367  16.249  0.00  0.00    +0.011 C 
ATOM     22  C   UNL     1      12.474   9.672  15.730  0.00  0.00    +0.011 C 
ATOM     23  C   UNL     1      13.057  10.437  18.035  0.00  0.00    +0.011 C 
ENDBRANCH  19  18
ENDBRANCH  20  19
ENDBRANCH  16   6
ENDBRANCH  10  16
TORSDOF 7
ENDMDL
MODEL 2
REMARK VINA RESULT:      -5.9      5.349      7.595
REMARK  Name = 75536808
REMARK  11 active torsions:
REMARK  status: ('A' for Active; 'I' for Inactive)
REMARK    1  A    between atoms: O_2  and  C_9
REMARK    2  A    between atoms: N_4  and  C_7
REMARK    3  A    between atoms: N_4  and  C_8
REMARK    4  A    between atoms: N_5  and  C_17
REMARK    5  A    between atoms: N_6  and  C_16
REMARK    6  A    between atoms: C_10  and  C_16
REMARK    7  A    between atoms: C_18  and  C_19
REMARK    8  A    between atoms: C_18  and  C_21
REMARK    9  A    between atoms: C_18  and  C_22
REMARK   10  A    between atoms: C_18  and  C_23
REMARK   11  A    between atoms: C_19  and  C_20
REMARK                            x       y       z     vdW  Elec       q    Type
REMARK                         _______ _______ _______ _____ _____    ______ ____
ROOT
ATOM      1  O   UNL     1      15.941   6.130  19.212  0.00  0.00    -0.371 OA
ATOM      7  C   UNL     1      16.941   6.867  21.236  0.00  0.00    +0.111 C 
ATOM      9  C   UNL     1      15.505   7.353  21.188  0.00  0.00    +0.164 C 
ATOM     10  C   UNL     1      14.903   6.393  20.170  0.00  0.00    +0.165 C 
ATOM     13  C   UNL     1      17.199   6.545  19.772  0.00  0.00    +0.181 C 
ENDROOT
BRANCH   9   2
ATOM      2  O   UNL     1      14.857   7.266  22.442  0.00  0.00    -0.388 OA
ATOM     25  H   UNL     1      13.962   7.635  22.351  0.00  0.00    +0.210 HD
ENDBRANCH   9   2
BRANCH   7   4
ATOM      4  N   UNL     1      17.872   7.847  21.771  0.00  0.00    -0.306 NA
ATOM     24  H   UNL     1      17.749   7.934  22.779  0.00  0.00    +0.123 HD
BRANCH   4   8
ATOM      5  N   UNL     1      22.076   7.432  22.242  0.00  0.00    -0.305 NA
ATOM      8  C   UNL     1      19.254   7.480  21.468  0.00  0.00    +0.056 C 
ATOM     11  C   UNL     1      19.793   6.522  22.534  0.00  0.00    +0.034 C 
ATOM     12  C   UNL     1      20.145   8.723  21.386  0.00  0.00    +0.034 C 
ATOM     14  C   UNL     1      21.271   6.203  22.288  0.00  0.00    +0.085 C 
ATOM     15  C   UNL     1      21.611   8.334  21.178  0.00  0.00    +0.085 C 
ATOM     17  C   UNL     1      23.490   7.110  22.057  0.00  0.00    +0.104 C 
ENDBRANCH   4   8
ENDBRANCH   7   4
BRANCH  10  16
ATOM     16  C   UNL     1      13.682   6.953  19.465  0.00  0.00    +0.138 C 
BRANCH  16   6
ATOM      3  O   UNL     1      11.091   8.245  19.541  0.00  0.00    -0.276 OA
ATOM      6  N   UNL     1      13.386   8.297  19.904  0.00  0.00    -0.313 N 
ATOM     20  C   UNL     1      12.108   8.831  19.904  0.00  0.00    +0.214 C 
ATOM     26  H   UNL     1      14.162   8.863  20.234  0.00  0.00    +0.149 HD
BRANCH  20  19
ATOM     19  C   UNL     1      12.064  10.266  20.405  0.00  0.00    +0.102 C 
BRANCH  19  18
ATOM     18  C   UNL     1      11.940  10.412  21.940  0.00  0.00    -0.029 C 
ATOM     21  C   UNL     1      13.325  10.484  22.603  0.00  0.00    +0.011 C 
ATOM     22  C   UNL     1      11.189  11.726  22.235  0.00  0.00    +0.011 C 
ATOM     23  C   UNL     1      11.143   9.249  22.554  0.00  0.00    +0.011 C 
ENDBRANCH  19  18
ENDBRANCH  20  19
ENDBRANCH  16   6
ENDBRANCH  10  16
TORSDOF 7
ENDMDL
MODEL 3
REMARK VINA RESULT:      -5.9     25.675     27.487
REMARK  Name = 75536808
REMARK  11 active torsions:
REMARK  status: ('A' for Active; 'I' for Inactive)
REMARK    1  A    between atoms: O_2  and  C_9
REMARK    2  A    between atoms: N_4  and  C_7
REMARK    3  A    between atoms: N_4  and  C_8
REMARK    4  A    between atoms: N_5  and  C_17
REMARK    5  A    between atoms: N_6  and  C_16
REMARK    6  A    between atoms: C_10  and  C_16
REMARK    7  A    between atoms: C_18  and  C_19
REMARK    8  A    between atoms: C_18  and  C_21
REMARK    9  A    between atoms: C_18  and  C_22
REMARK   10  A    between atoms: C_18  and  C_23
REMARK   11  A    between atoms: C_19  and  C_20
REMARK                            x       y       z     vdW  Elec       q    Type
REMARK                         _______ _______ _______ _____ _____    ______ ____
ROOT
ATOM      1  O   UNL     1      -1.146 -11.542  15.197  0.00  0.00    -0.371 OA
ATOM      7  C   UNL     1      -3.265 -10.994  16.118  0.00  0.00    +0.111 C 
ATOM      9  C   UNL     1      -3.453 -11.451  14.684  0.00  0.00    +0.164 C 
ATOM     10  C   UNL     1      -2.165 -12.231  14.454  0.00  0.00    +0.165 C 
ATOM     13  C   UNL     1      -1.782 -10.657  16.136  0.00  0.00    +0.181 C 
ENDROOT
BRANCH   9   2
ATOM      2  O   UNL     1      -4.598 -12.264  14.516  0.00  0.00    -0.388 OA
ATOM     25  H   UNL     1      -4.408 -13.142  14.887  0.00  0.00    +0.210 HD
ENDBRANCH   9   2
BRANCH   7   4
ATOM      4  N   UNL     1      -4.105  -9.864  16.486  0.00  0.00    -0.306 NA
ATOM     24  H   UNL     1      -4.617  -9.527  15.671  0.00  0.00    +0.123 HD
BRANCH   4   8
ATOM      5  N   UNL     1      -6.900 -12.167  18.711  0.00  0.00    -0.305 NA
ATOM      8  C   UNL     1      -5.041 -10.229  17.547  0.00  0.00    +0.056 C 
ATOM     11  C   UNL     1      -4.561 -11.492  18.267  0.00  0.00    +0.034 C 
ATOM     12  C   UNL     1      -6.447 -10.454  16.982  0.00  0.00    +0.034 C 
ATOM     14  C   UNL     1      -5.579 -11.946  19.316  0.00  0.00    +0.085 C 
ATOM     15  C   UNL     1      -7.405 -10.943  18.073  0.00  0.00    +0.085 C 
ATOM     17  C   UNL     1      -7.849 -12.648  19.714  0.00  0.00    +0.104 C 
ENDBRANCH   4   8
ENDBRANCH   7   4
BRANCH  10  16
ATOM     16  C   UNL     1      -1.767 -12.314  12.992  0.00  0.00    +0.138 C 
BRANCH  16   6
ATOM      3  O   UNL     1      -3.333 -12.308  10.555  0.00  0.00    -0.276 OA
ATOM      6  N   UNL     1      -2.227 -11.163  12.250  0.00  0.00    -0.313 N 
ATOM     20  C   UNL     1      -2.976 -11.259  11.089  0.00  0.00    +0.214 C 
ATOM     26  H   UNL     1      -1.992 -10.246  12.616  0.00  0.00    +0.149 HD
BRANCH  20  19
ATOM     19  C   UNL     1      -3.329  -9.905  10.496  0.00  0.00    +0.102 C 
BRANCH  19  18
ATOM     18  C   UNL     1      -4.836  -9.555  10.532  0.00  0.00    -0.029 C 
ATOM     21  C   UNL     1      -5.060  -8.047  10.340  0.00  0.00    +0.011 C 
ATOM     22  C   UNL     1      -5.527 -10.303   9.374  0.00  0.00    +0.011 C 
ATOM     23  C   UNL     1      -5.486 -10.001  11.853  0.00  0.00    +0.011 C 
ENDBRANCH  19  18
ENDBRANCH  20  19
ENDBRANCH  16   6
ENDBRANCH  10  16
TORSDOF 7
ENDMDL
MODEL 4
REMARK VINA RESULT:      -5.8     26.989     29.260
REMARK  Name = 75536808
REMARK  11 active torsions:
REMARK  status: ('A' for Active; 'I' for Inactive)
REMARK    1  A    between atoms: O_2  and  C_9
REMARK    2  A    between atoms: N_4  and  C_7
REMARK    3  A    between atoms: N_4  and  C_8
REMARK    4  A    between atoms: N_5  and  C_17
REMARK    5  A    between atoms: N_6  and  C_16
REMARK    6  A    between atoms: C_10  and  C_16
REMARK    7  A    between atoms: C_18  and  C_19
REMARK    8  A    between atoms: C_18  and  C_21
REMARK    9  A    between atoms: C_18  and  C_22
REMARK   10  A    between atoms: C_18  and  C_23
REMARK   11  A    between atoms: C_19  and  C_20
REMARK                            x       y       z     vdW  Elec       q    Type
REMARK                         _______ _______ _______ _____ _____    ______ ____
ROOT
ATOM      1  O   UNL     1     -17.082   5.283  25.490  0.00  0.00    -0.371 OA
ATOM      7  C   UNL     1     -16.223   4.033  23.663  0.00  0.00    +0.111 C 
ATOM      9  C   UNL     1     -15.872   3.323  24.957  0.00  0.00    +0.164 C 
ATOM     10  C   UNL     1     -16.900   3.921  25.908  0.00  0.00    +0.165 C 
ATOM     13  C   UNL     1     -16.544   5.432  24.164  0.00  0.00    +0.181 C 
ENDROOT
BRANCH   9   2
ATOM      2  O   UNL     1     -15.997   1.918  24.860  0.00  0.00    -0.388 OA
ATOM     25  H   UNL     1     -15.706   1.645  23.973  0.00  0.00    +0.210 HD
ENDBRANCH   9   2
BRANCH   7   4
ATOM      4  N   UNL     1     -15.152   4.017  22.679  0.00  0.00    -0.306 NA
ATOM     24  H   UNL     1     -15.399   3.404  21.902  0.00  0.00    +0.123 HD
BRANCH   4   8
ATOM      5  N   UNL     1     -13.889   7.110  20.051  0.00  0.00    -0.305 NA
ATOM      8  C   UNL     1     -14.875   5.363  22.183  0.00  0.00    +0.056 C 
ATOM     11  C   UNL     1     -15.682   5.636  20.910  0.00  0.00    +0.034 C 
ATOM     12  C   UNL     1     -13.380   5.545  21.900  0.00  0.00    +0.034 C 
ATOM     14  C   UNL     1     -15.330   7.005  20.320  0.00  0.00    +0.085 C 
ATOM     15  C   UNL     1     -13.102   6.916  21.278  0.00  0.00    +0.085 C 
ATOM     17  C   UNL     1     -13.575   8.402  19.442  0.00  0.00    +0.104 C 
ENDBRANCH   4   8
ENDBRANCH   7   4
BRANCH  10  16
ATOM     16  C   UNL     1     -16.467   3.883  27.362  0.00  0.00    +0.138 C 
BRANCH  16   6
ATOM      3  O   UNL     1     -16.767   2.647  29.964  0.00  0.00    -0.276 OA
ATOM      6  N   UNL     1     -16.047   2.558  27.755  0.00  0.00    -0.313 N 
ATOM     20  C   UNL     1     -16.234   2.050  29.030  0.00  0.00    +0.214 C 
ATOM     26  H   UNL     1     -15.602   1.978  27.050  0.00  0.00    +0.149 HD
BRANCH  20  19
ATOM     19  C   UNL     1     -15.698   0.637  29.192  0.00  0.00    +0.102 C 
BRANCH  19  18
ATOM     18  C   UNL     1     -14.460   0.516  30.113  0.00  0.00    -0.029 C 
ATOM     21  C   UNL     1     -13.666   1.832  30.148  0.00  0.00    +0.011 C 
ATOM     22  C   UNL     1     -14.954   0.206  31.540  0.00  0.00    +0.011 C 
ATOM     23  C   UNL     1     -13.532  -0.625  29.663  0.00  0.00    +0.011 C 
ENDBRANCH  19  18
ENDBRANCH  20  19
ENDBRANCH  16   6
ENDBRANCH  10  16
TORSDOF 7
ENDMDL
MODEL 5
REMARK VINA RESULT:      -5.8     26.109     27.847
REMARK  Name = 75536808
REMARK  11 active torsions:
REMARK  status: ('A' for Active; 'I' for Inactive)
REMARK    1  A    between atoms: O_2  and  C_9
REMARK    2  A    between atoms: N_4  and  C_7
REMARK    3  A    between atoms: N_4  and  C_8
REMARK    4  A    between atoms: N_5  and  C_17
REMARK    5  A    between atoms: N_6  and  C_16
REMARK    6  A    between atoms: C_10  and  C_16
REMARK    7  A    between atoms: C_18  and  C_19
REMARK    8  A    between atoms: C_18  and  C_21
REMARK    9  A    between atoms: C_18  and  C_22
REMARK   10  A    between atoms: C_18  and  C_23
REMARK   11  A    between atoms: C_19  and  C_20
REMARK                            x       y       z     vdW  Elec       q    Type
REMARK                         _______ _______ _______ _____ _____    ______ ____
ROOT
ATOM      1  O   UNL     1      -4.333 -11.974  17.557  0.00  0.00    -0.371 OA
ATOM      7  C   UNL     1      -6.316 -10.680  17.385  0.00  0.00    +0.111 C 
ATOM      9  C   UNL     1      -5.198  -9.972  16.643  0.00  0.00    +0.164 C 
ATOM     10  C   UNL     1      -4.230 -11.123  16.404  0.00  0.00    +0.165 C 
ATOM     13  C   UNL     1      -5.533 -11.634  18.273  0.00  0.00    +0.181 C 
ENDROOT
BRANCH   9   2
ATOM      2  O   UNL     1      -5.632  -9.388  15.431  0.00  0.00    -0.388 OA
ATOM     25  H   UNL     1      -5.506  -8.426  15.493  0.00  0.00    +0.210 HD
ENDBRANCH   9   2
BRANCH   7   4
ATOM      4  N   UNL     1      -7.176  -9.783  18.140  0.00  0.00    -0.306 NA
ATOM     24  H   UNL     1      -6.888  -8.816  17.995  0.00  0.00    +0.123 HD
BRANCH   4   8
ATOM      5  N   UNL     1     -11.396  -9.276  18.156  0.00  0.00    -0.305 NA
ATOM      8  C   UNL     1      -8.576  -9.948  17.755  0.00  0.00    +0.056 C 
ATOM     11  C   UNL     1      -9.167  -8.606  17.315  0.00  0.00    +0.034 C 
ATOM     12  C   UNL     1      -9.397 -10.525  18.912  0.00  0.00    +0.034 C 
ATOM     14  C   UNL     1     -10.660  -8.740  17.002  0.00  0.00    +0.085 C 
ATOM     15  C   UNL     1     -10.883 -10.596  18.549  0.00  0.00    +0.085 C 
ATOM     17  C   UNL     1     -12.826  -9.350  17.860  0.00  0.00    +0.104 C 
ENDBRANCH   4   8
ENDBRANCH   7   4
BRANCH  10  16
ATOM     16  C   UNL     1      -2.792 -10.672  16.225  0.00  0.00    +0.138 C 
BRANCH  16   6
ATOM      3  O   UNL     1      -2.142 -12.299  13.918  0.00  0.00    -0.276 OA
ATOM      6  N   UNL     1      -2.544 -10.219  14.875  0.00  0.00    -0.313 N 
ATOM     20  C   UNL     1      -2.238 -11.077  13.831  0.00  0.00    +0.214 C 
ATOM     26  H   UNL     1      -2.609  -9.222  14.696  0.00  0.00    +0.149 HD
BRANCH  20  19
ATOM     19  C   UNL     1      -2.014 -10.353  12.513  0.00  0.00    +0.102 C 
BRANCH  19  18
ATOM     18  C   UNL     1      -3.188 -10.455  11.511  0.00  0.00    -0.029 C 
ATOM     21  C   UNL     1      -4.532 -10.169  12.201  0.00  0.00    +0.011 C 
ATOM     22  C   UNL     1      -2.970  -9.398  10.411  0.00  0.00    +0.011 C 
ATOM     23  C   UNL     1      -3.243 -11.842  10.847  0.00  0.00    +0.011 C 
ENDBRANCH  19  18
ENDBRANCH  20  19
ENDBRANCH  16   6
ENDBRANCH  10  16
TORSDOF 7
ENDMDL
MODEL 6
REMARK VINA RESULT:      -5.7     27.220     29.689
REMARK  Name = 75536808
REMARK  11 active torsions:
REMARK  status: ('A' for Active; 'I' for Inactive)
REMARK    1  A    between atoms: O_2  and  C_9
REMARK    2  A    between atoms: N_4  and  C_7
REMARK    3  A    between atoms: N_4  and  C_8
REMARK    4  A    between atoms: N_5  and  C_17
REMARK    5  A    between atoms: N_6  and  C_16
REMARK    6  A    between atoms: C_10  and  C_16
REMARK    7  A    between atoms: C_18  and  C_19
REMARK    8  A    between atoms: C_18  and  C_21
REMARK    9  A    between atoms: C_18  and  C_22
REMARK   10  A    between atoms: C_18  and  C_23
REMARK   11  A    between atoms: C_19  and  C_20
REMARK                            x       y       z     vdW  Elec       q    Type
REMARK                         _______ _______ _______ _____ _____    ______ ____
ROOT
ATOM      1  O   UNL     1      -9.975 -12.862  18.604  0.00  0.00    -0.371 OA
ATOM      7  C   UNL     1      -8.524 -11.325  19.685  0.00  0.00    +0.111 C 
ATOM      9  C   UNL     1      -9.923 -10.739  19.644  0.00  0.00    +0.164 C 
ATOM     10  C   UNL     1     -10.760 -11.994  19.437  0.00  0.00    +0.165 C 
ATOM     13  C   UNL     1      -8.614 -12.397  18.611  0.00  0.00    +0.181 C 
ENDROOT
BRANCH   9   2
ATOM      2  O   UNL     1     -10.267 -10.066  20.839  0.00  0.00    -0.388 OA
ATOM     25  H   UNL     1      -9.540 -10.179  21.475  0.00  0.00    +0.210 HD
ENDBRANCH   9   2
BRANCH   7   4
ATOM      4  N   UNL     1      -7.475 -10.352  19.425  0.00  0.00    -0.306 NA
ATOM     24  H   UNL     1      -6.932 -10.186  20.273  0.00  0.00    +0.123 HD
BRANCH   4   8
ATOM      5  N   UNL     1      -4.192 -10.404  16.727  0.00  0.00    -0.305 NA
ATOM      8  C   UNL     1      -6.595 -10.802  18.350  0.00  0.00    +0.056 C 
ATOM     11  C   UNL     1      -5.188 -11.070  18.892  0.00  0.00    +0.034 C 
ATOM     12  C   UNL     1      -6.530  -9.764  17.225  0.00  0.00    +0.034 C 
ATOM     14  C   UNL     1      -4.227 -11.447  17.762  0.00  0.00    +0.085 C 
ATOM     15  C   UNL     1      -5.525 -10.182  16.149  0.00  0.00    +0.085 C 
ATOM     17  C   UNL     1      -3.232 -10.755  15.680  0.00  0.00    +0.104 C 
ENDBRANCH   4   8
ENDBRANCH   7   4
BRANCH  10  16
ATOM     16  C   UNL     1     -12.099 -11.720  18.777  0.00  0.00    +0.138 C 
BRANCH  16   6
ATOM      3  O   UNL     1     -11.991 -10.705  16.066  0.00  0.00    -0.276 OA
ATOM      6  N   UNL     1     -12.209 -10.344  18.352  0.00  0.00    -0.313 N 
ATOM     20  C   UNL     1     -12.145  -9.952  17.025  0.00  0.00    +0.214 C 
ATOM     26  H   UNL     1     -12.349  -9.641  19.072  0.00  0.00    +0.149 HD
BRANCH  20  19
ATOM     19  C   UNL     1     -12.280  -8.448  16.842  0.00  0.00    +0.102 C 
BRANCH  19  18
ATOM     18  C   UNL     1     -10.991  -7.737  16.364  0.00  0.00    -0.029 C 
ATOM     21  C   UNL     1     -10.601  -8.192  14.948  0.00  0.00    +0.011 C 
ATOM     22  C   UNL     1     -11.268  -6.221  16.330  0.00  0.00    +0.011 C 
ATOM     23  C   UNL     1      -9.816  -7.995  17.323  0.00  0.00    +0.011 C 
ENDBRANCH  19  18
ENDBRANCH  20  19
ENDBRANCH  16   6
ENDBRANCH  10  16
TORSDOF 7
ENDMDL
MODEL 7
REMARK VINA RESULT:      -5.7      4.013      7.343
REMARK  Name = 75536808
REMARK  11 active torsions:
REMARK  status: ('A' for Active; 'I' for Inactive)
REMARK    1  A    between atoms: O_2  and  C_9
REMARK    2  A    between atoms: N_4  and  C_7
REMARK    3  A    between atoms: N_4  and  C_8
REMARK    4  A    between atoms: N_5  and  C_17
REMARK    5  A    between atoms: N_6  and  C_16
REMARK    6  A    between atoms: C_10  and  C_16
REMARK    7  A    between atoms: C_18  and  C_19
REMARK    8  A    between atoms: C_18  and  C_21
REMARK    9  A    between atoms: C_18  and  C_22
REMARK   10  A    between atoms: C_18  and  C_23
REMARK   11  A    between atoms: C_19  and  C_20
REMARK                            x       y       z     vdW  Elec       q    Type
REMARK                         _______ _______ _______ _____ _____    ______ ____
ROOT
ATOM      1  O   UNL     1      13.364   9.153  19.106  0.00  0.00    -0.371 OA
ATOM      7  C   UNL     1      15.109   8.046  20.277  0.00  0.00    +0.111 C 
ATOM      9  C   UNL     1      13.775   7.632  20.870  0.00  0.00    +0.164 C 
ATOM     10  C   UNL     1      12.827   7.974  19.728  0.00  0.00    +0.165 C 
ATOM     13  C   UNL     1      14.727   9.317  19.535  0.00  0.00    +0.181 C 
ENDROOT
BRANCH   9   2
ATOM      2  O   UNL     1      13.728   6.258  21.201  0.00  0.00    -0.388 OA
ATOM     25  H   UNL     1      14.635   5.953  21.373  0.00  0.00    +0.210 HD
ENDBRANCH   9   2
BRANCH   7   4
ATOM      4  N   UNL     1      16.148   8.262  21.271  0.00  0.00    -0.306 NA
ATOM     24  H   UNL     1      15.924   7.757  22.128  0.00  0.00    +0.123 HD
BRANCH   4   8
ATOM      5  N   UNL     1      19.877   6.231  21.093  0.00  0.00    -0.305 NA
ATOM      8  C   UNL     1      17.452   7.838  20.769  0.00  0.00    +0.056 C 
ATOM     11  C   UNL     1      17.466   6.324  20.541  0.00  0.00    +0.034 C 
ATOM     12  C   UNL     1      18.568   8.228  21.744  0.00  0.00    +0.034 C 
ATOM     14  C   UNL     1      18.856   5.847  20.108  0.00  0.00    +0.085 C 
ATOM     15  C   UNL     1      19.921   7.689  21.273  0.00  0.00    +0.085 C 
ATOM     17  C   UNL     1      21.189   5.725  20.692  0.00  0.00    +0.104 C 
ENDBRANCH   4   8
ENDBRANCH   7   4
BRANCH  10  16
ATOM     16  C   UNL     1      11.405   8.237  20.185  0.00  0.00    +0.138 C 
BRANCH  16   6
ATOM      3  O   UNL     1      10.975   8.771  23.000  0.00  0.00    -0.276 OA
ATOM      6  N   UNL     1      11.283   9.528  20.823  0.00  0.00    -0.313 N 
ATOM     20  C   UNL     1      11.078   9.685  22.184  0.00  0.00    +0.214 C 
ATOM     26  H   UNL     1      11.364  10.351  20.234  0.00  0.00    +0.149 HD
BRANCH  20  19
ATOM     19  C   UNL     1      10.977  11.143  22.605  0.00  0.00    +0.102 C 
BRANCH  19  18
ATOM     18  C   UNL     1      12.255  11.715  23.265  0.00  0.00    -0.029 C 
ATOM     21  C   UNL     1      12.461  13.190  22.883  0.00  0.00    +0.011 C 
ATOM     22  C   UNL     1      12.083  11.626  24.794  0.00  0.00    +0.011 C 
ATOM     23  C   UNL     1      13.503  10.909  22.869  0.00  0.00    +0.011 C 
ENDBRANCH  19  18
ENDBRANCH  20  19
ENDBRANCH  16   6
ENDBRANCH  10  16
TORSDOF 7
ENDMDL
MODEL 8
REMARK VINA RESULT:      -5.7     28.001     29.552
REMARK  Name = 75536808
REMARK  11 active torsions:
REMARK  status: ('A' for Active; 'I' for Inactive)
REMARK    1  A    between atoms: O_2  and  C_9
REMARK    2  A    between atoms: N_4  and  C_7
REMARK    3  A    between atoms: N_4  and  C_8
REMARK    4  A    between atoms: N_5  and  C_17
REMARK    5  A    between atoms: N_6  and  C_16
REMARK    6  A    between atoms: C_10  and  C_16
REMARK    7  A    between atoms: C_18  and  C_19
REMARK    8  A    between atoms: C_18  and  C_21
REMARK    9  A    between atoms: C_18  and  C_22
REMARK   10  A    between atoms: C_18  and  C_23
REMARK   11  A    between atoms: C_19  and  C_20
REMARK                            x       y       z     vdW  Elec       q    Type
REMARK                         _______ _______ _______ _____ _____    ______ ____
ROOT
ATOM      1  O   UNL     1     -12.395  -7.720  16.327  0.00  0.00    -0.371 OA
ATOM      7  C   UNL     1     -10.031  -7.837  16.137  0.00  0.00    +0.111 C 
ATOM      9  C   UNL     1     -10.541  -6.702  15.269  0.00  0.00    +0.164 C 
ATOM     10  C   UNL     1     -11.902  -6.440  15.899  0.00  0.00    +0.165 C 
ATOM     13  C   UNL     1     -11.298  -8.651  16.346  0.00  0.00    +0.181 C 
ENDROOT
BRANCH   9   2
ATOM      2  O   UNL     1      -9.709  -5.561  15.318  0.00  0.00    -0.388 OA
ATOM     25  H   UNL     1     -10.236  -4.810  15.639  0.00  0.00    +0.210 HD
ENDBRANCH   9   2
BRANCH   7   4
ATOM      4  N   UNL     1      -8.960  -8.607  15.524  0.00  0.00    -0.306 NA
ATOM     24  H   UNL     1      -8.154  -8.008  15.348  0.00  0.00    +0.123 HD
BRANCH   4   8
ATOM      5  N   UNL     1      -6.512 -11.596  17.294  0.00  0.00    -0.305 NA
ATOM      8  C   UNL     1      -8.571  -9.733  16.369  0.00  0.00    +0.056 C 
ATOM     11  C   UNL     1      -7.463  -9.311  17.337  0.00  0.00    +0.034 C 
ATOM     12  C   UNL     1      -8.098 -10.917  15.519  0.00  0.00    +0.034 C 
ATOM     14  C   UNL     1      -6.973 -10.504  18.163  0.00  0.00    +0.085 C 
ATOM     15  C   UNL     1      -7.587 -12.057  16.404  0.00  0.00    +0.085 C 
ATOM     17  C   UNL     1      -6.001 -12.706  18.096  0.00  0.00    +0.104 C 
ENDBRANCH   4   8
ENDBRANCH   7   4
BRANCH  10  16
ATOM     16  C   UNL     1     -12.894  -5.801  14.944  0.00  0.00    +0.138 C 
BRANCH  16   6
ATOM      3  O   UNL     1     -13.945  -3.629  13.343  0.00  0.00    -0.276 OA
ATOM      6  N   UNL     1     -12.222  -5.094  13.878  0.00  0.00    -0.313 N 
ATOM     20  C   UNL     1     -12.809  -4.062  13.164  0.00  0.00    +0.214 C 
ATOM     26  H   UNL     1     -11.270  -5.372  13.658  0.00  0.00    +0.149 HD
BRANCH  20  19
ATOM     19  C   UNL     1     -11.898  -3.489  12.091  0.00  0.00    +0.102 C 
BRANCH  19  18
ATOM     18  C   UNL     1     -12.169  -4.018  10.662  0.00  0.00    -0.029 C 
ATOM     21  C   UNL     1     -12.119  -5.554  10.622  0.00  0.00    +0.011 C 
ATOM     22  C   UNL     1     -13.582  -3.565  10.245  0.00  0.00    +0.011 C 
ATOM     23  C   UNL     1     -11.159  -3.451   9.650  0.00  0.00    +0.011 C 
ENDBRANCH  19  18
ENDBRANCH  20  19
ENDBRANCH  16   6
ENDBRANCH  10  16
TORSDOF 7
ENDMDL
MODEL 9
REMARK VINA RESULT:      -5.6     26.294     28.802
REMARK  Name = 75536808
REMARK  11 active torsions:
REMARK  status: ('A' for Active; 'I' for Inactive)
REMARK    1  A    between atoms: O_2  and  C_9
REMARK    2  A    between atoms: N_4  and  C_7
REMARK    3  A    between atoms: N_4  and  C_8
REMARK    4  A    between atoms: N_5  and  C_17
REMARK    5  A    between atoms: N_6  and  C_16
REMARK    6  A    between atoms: C_10  and  C_16
REMARK    7  A    between atoms: C_18  and  C_19
REMARK    8  A    between atoms: C_18  and  C_21
REMARK    9  A    between atoms: C_18  and  C_22
REMARK   10  A    between atoms: C_18  and  C_23
REMARK   11  A    between atoms: C_19  and  C_20
REMARK                            x       y       z     vdW  Elec       q    Type
REMARK                         _______ _______ _______ _____ _____    ______ ____
ROOT
ATOM      1  O   UNL     1      -6.767 -13.112  18.504  0.00  0.00    -0.371 OA
ATOM      7  C   UNL     1      -5.340 -11.221  18.344  0.00  0.00    +0.111 C 
ATOM      9  C   UNL     1      -6.626 -10.813  19.037  0.00  0.00    +0.164 C 
ATOM     10  C   UNL     1      -7.143 -12.163  19.514  0.00  0.00    +0.165 C 
ATOM     13  C   UNL     1      -5.760 -12.516  17.667  0.00  0.00    +0.181 C 
ENDROOT
BRANCH   9   2
ATOM      2  O   UNL     1      -6.407  -9.922  20.113  0.00  0.00    -0.388 OA
ATOM     25  H   UNL     1      -6.329 -10.442  20.931  0.00  0.00    +0.210 HD
ENDBRANCH   9   2
BRANCH   7   4
ATOM      4  N   UNL     1      -4.841 -10.229  17.405  0.00  0.00    -0.306 NA
ATOM     24  H   UNL     1      -4.158  -9.625  17.861  0.00  0.00    +0.123 HD
BRANCH   4   8
ATOM      5  N   UNL     1      -2.672 -10.649  13.774  0.00  0.00    -0.305 NA
ATOM      8  C   UNL     1      -4.241 -10.866  16.236  0.00  0.00    +0.056 C 
ATOM     11  C   UNL     1      -2.722 -10.673  16.249  0.00  0.00    +0.034 C 
ATOM     12  C   UNL     1      -4.827 -10.297  14.940  0.00  0.00    +0.034 C 
ATOM     14  C   UNL     1      -2.085 -11.249  14.981  0.00  0.00    +0.085 C 
ATOM     15  C   UNL     1      -4.122 -10.884  13.714  0.00  0.00    +0.085 C 
ATOM     17  C   UNL     1      -2.019 -11.171  12.574  0.00  0.00    +0.104 C 
ENDBRANCH   4   8
ENDBRANCH   7   4
BRANCH  10  16
ATOM     16  C   UNL     1      -8.647 -12.194  19.714  0.00  0.00    +0.138 C 
BRANCH  16   6
ATOM      3  O   UNL     1     -10.652 -11.786  17.663  0.00  0.00    -0.276 OA
ATOM      6  N   UNL     1      -9.259 -10.945  19.323  0.00  0.00    -0.313 N 
ATOM     20  C   UNL     1     -10.215 -10.847  18.326  0.00  0.00    +0.214 C 
ATOM     26  H   UNL     1      -8.972 -10.107  19.820  0.00  0.00    +0.149 HD
BRANCH  20  19
ATOM     19  C   UNL     1     -10.696  -9.423  18.100  0.00  0.00    +0.102 C 
BRANCH  19  18
ATOM     18  C   UNL     1     -10.223  -8.783  16.773  0.00  0.00    -0.029 C 
ATOM     21  C   UNL     1     -11.027  -9.325  15.580  0.00  0.00    +0.011 C 
ATOM     22  C   UNL     1     -10.456  -7.262  16.868  0.00  0.00    +0.011 C 
ATOM     23  C   UNL     1      -8.725  -9.030  16.531  0.00  0.00    +0.011 C 
ENDBRANCH  19  18
ENDBRANCH  20  19
ENDBRANCH  16   6
ENDBRANCH  10  16
TORSDOF 7
ENDMDL
MODEL 10
REMARK VINA RESULT:      -5.6     26.222     28.360
REMARK  Name = 75536808
REMARK  11 active torsions:
REMARK  status: ('A' for Active; 'I' for Inactive)
REMARK    1  A    between atoms: O_2  and  C_9
REMARK    2  A    between atoms: N_4  and  C_7
REMARK    3  A    between atoms: N_4  and  C_8
REMARK    4  A    between atoms: N_5  and  C_17
REMARK    5  A    between atoms: N_6  and  C_16
REMARK    6  A    between atoms: C_10  and  C_16
REMARK    7  A    between atoms: C_18  and  C_19
REMARK    8  A    between atoms: C_18  and  C_21
REMARK    9  A    between atoms: C_18  and  C_22
REMARK   10  A    between atoms: C_18  and  C_23
REMARK   11  A    between atoms: C_19  and  C_20
REMARK                            x       y       z     vdW  Elec       q    Type
REMARK                         _______ _______ _______ _____ _____    ______ ____
ROOT
ATOM      1  O   UNL     1      -3.706 -10.523  13.751  0.00  0.00    -0.371 OA
ATOM      7  C   UNL     1      -3.142 -10.770  16.045  0.00  0.00    +0.111 C 
ATOM      9  C   UNL     1      -2.024 -11.346  15.196  0.00  0.00    +0.164 C 
ATOM     10  C   UNL     1      -2.279 -10.652  13.865  0.00  0.00    +0.165 C 
ATOM     13  C   UNL     1      -4.290 -10.735  15.048  0.00  0.00    +0.181 C 
ENDROOT
BRANCH   9   2
ATOM      2  O   UNL     1      -0.741 -11.048  15.709  0.00  0.00    -0.388 OA
ATOM     25  H   UNL     1      -0.814 -10.939  16.673  0.00  0.00    +0.210 HD
ENDBRANCH   9   2
BRANCH   7   4
ATOM      4  N   UNL     1      -3.445 -11.560  17.228  0.00  0.00    -0.306 NA
ATOM     24  H   UNL     1      -2.944 -11.190  18.035  0.00  0.00    +0.123 HD
BRANCH   4   8
ATOM      5  N   UNL     1      -7.096 -12.135  19.325  0.00  0.00    -0.305 NA
ATOM      8  C   UNL     1      -4.881 -11.575  17.497  0.00  0.00    +0.056 C 
ATOM     11  C   UNL     1      -5.206 -10.669  18.688  0.00  0.00    +0.034 C 
ATOM     12  C   UNL     1      -5.371 -12.999  17.776  0.00  0.00    +0.034 C 
ATOM     14  C   UNL     1      -6.693 -10.749  19.047  0.00  0.00    +0.085 C 
ATOM     15  C   UNL     1      -6.851 -13.004  18.165  0.00  0.00    +0.085 C 
ATOM     17  C   UNL     1      -8.505 -12.189  19.716  0.00  0.00    +0.104 C 
ENDBRANCH   4   8
ENDBRANCH   7   4
BRANCH  10  16
ATOM     16  C   UNL     1      -1.736 -11.419  12.674  0.00  0.00    +0.138 C 
BRANCH  16   6
ATOM      3  O   UNL     1      -3.255 -13.756  11.885  0.00  0.00    -0.276 OA
ATOM      6  N   UNL     1      -1.462 -12.797  13.011  0.00  0.00    -0.313 N 
ATOM     20  C   UNL     1      -2.250 -13.854  12.585  0.00  0.00    +0.214 C 
ATOM     26  H   UNL     1      -0.643 -12.986  13.582  0.00  0.00    +0.149 HD
BRANCH  20  19
ATOM     19  C   UNL     1      -1.755 -15.203  13.081  0.00  0.00    +0.102 C 
BRANCH  19  18
ATOM     18  C   UNL     1      -2.680 -15.893  14.112  0.00  0.00    -0.029 C 
ATOM     21  C   UNL     1      -3.628 -16.890  13.424  0.00  0.00    +0.011 C 
ATOM     22  C   UNL     1      -1.793 -16.669  15.105  0.00  0.00    +0.011 C 
ATOM     23  C   UNL     1      -3.509 -14.866  14.901  0.00  0.00    +0.011 C 
ENDBRANCH  19  18
ENDBRANCH  20  19
ENDBRANCH  16   6
ENDBRANCH  10  16
TORSDOF 7
ENDMDL
