REMARK  Name = 11884045
REMARK  9 active torsions:
REMARK  status: ('A' for Active; 'I' for Inactive)
REMARK    1  A    between atoms: S_1  and  N_9
REMARK    2  A    between atoms: S_1  and  C_18
REMARK    3  A    between atoms: O_4  and  C_15
REMARK    4  A    between atoms: O_4  and  C_19
REMARK    5  A    between atoms: O_8  and  C_31
REMARK    6  A    between atoms: O_8  and  C_32
REMARK    7  A    between atoms: N_9  and  C_14
REMARK    8  A    between atoms: N_10  and  C_24
REMARK    9  A    between atoms: C_20  and  C_26
REMARK                            x       y       z     vdW  Elec       q    Type
REMARK                         _______ _______ _______ _____ _____    ______ ____
ROOT
ATOM      2  O   UNL     1       1.684   1.207  -1.610  0.00  0.00    -0.369 OA
ATOM      3  O   UNL     1       3.318   2.115   0.833  0.00  0.00    -0.368 OA
ATOM     12  C   UNL     1       3.156   0.823   0.211  0.00  0.00    +0.171 C 
ATOM     13  C   UNL     1       1.716   0.735  -0.253  0.00  0.00    +0.191 C 
ATOM     14  C   UNL     1       3.955   0.764  -1.067  0.00  0.00    +0.133 C 
ATOM     15  C   UNL     1       1.010   1.684   0.686  0.00  0.00    +0.235 C 
ATOM     16  C   UNL     1       3.027   1.415  -2.075  0.00  0.00    +0.183 C 
ATOM     17  C   UNL     1       2.043   2.772   0.874  0.00  0.00    +0.207 C 
ENDROOT
BRANCH  14   9
ATOM      9  N   UNL     1       4.198  -0.647  -1.448  0.00  0.00    -0.182 NA
ATOM     38  H   UNL     1       3.432  -1.317  -1.314  0.00  0.00    +0.148 HD
BRANCH   9   1
ATOM      1  S   UNL     1       5.785  -1.188  -1.720  0.00  0.00    +0.060 S 
ATOM      5  O   UNL     1       6.424  -0.334  -2.703  0.00  0.00    -0.153 OA
ATOM      6  O   UNL     1       5.763  -2.626  -1.905  0.00  0.00    -0.153 OA
BRANCH   1  18
ATOM     18  C   UNL     1       6.547  -0.882  -0.154  0.00  0.00    +0.123 A 
ATOM     20  C   UNL     1       6.153  -1.557   1.001  0.00  0.00    +0.078 A 
ATOM     21  C   UNL     1       7.569   0.066  -0.094  0.00  0.00    +0.030 A 
ATOM     22  C   UNL     1       6.781  -1.285   2.216  0.00  0.00    +0.021 A 
ATOM     23  C   UNL     1       8.197   0.338   1.122  0.00  0.00    +0.002 A 
ATOM     25  C   UNL     1       7.803  -0.338   2.276  0.00  0.00    +0.001 A 
BRANCH  20  26
ATOM     11  N   UNL     1       4.259  -3.327   0.955  0.00  0.00    -0.191 NA
ATOM     26  C   UNL     1       5.107  -2.534   0.976  0.00  0.00    +0.101 C 
ENDBRANCH  20  26
ENDBRANCH   1  18
ENDBRANCH   9   1
ENDBRANCH  14   9
BRANCH  15   4
ATOM      4  O   UNL     1      -0.202   2.187   0.171  0.00  0.00    -0.442 OA
BRANCH   4  19
ATOM      7  O   UNL     1      -1.345   0.493   1.199  0.00  0.00    -0.226 OA
ATOM     10  N   UNL     1      -2.443   2.117  -0.081  0.00  0.00    -0.251 N 
ATOM     19  C   UNL     1      -1.352   1.497   0.497  0.00  0.00    +0.405 C 
ATOM     39  H   UNL     1      -2.247   2.948  -0.634  0.00  0.00    +0.158 HD
BRANCH  10  24
ATOM     24  C   UNL     1      -3.802   1.739  -0.001  0.00  0.00    +0.037 A 
ATOM     27  C   UNL     1      -4.775   2.493  -0.657  0.00  0.00    +0.027 A 
ATOM     28  C   UNL     1      -4.171   0.613   0.736  0.00  0.00    +0.027 A 
ATOM     29  C   UNL     1      -6.117   2.121  -0.577  0.00  0.00    +0.048 A 
ATOM     30  C   UNL     1      -5.513   0.241   0.816  0.00  0.00    +0.048 A 
ATOM     31  C   UNL     1      -6.486   0.995   0.160  0.00  0.00    +0.129 A 
BRANCH  31   8
ATOM      8  O   UNL     1      -7.795   0.633   0.238  0.00  0.00    -0.456 OA
BRANCH   8  32
ATOM     32  C   UNL     1      -8.104  -0.707   0.068  0.00  0.00    +0.128 A 
ATOM     33  C   UNL     1      -9.003  -1.330   0.933  0.00  0.00    +0.046 A 
ATOM     34  C   UNL     1      -7.517  -1.432  -0.969  0.00  0.00    +0.046 A 
ATOM     35  C   UNL     1      -9.315  -2.679   0.762  0.00  0.00    +0.004 A 
ATOM     36  C   UNL     1      -7.829  -2.780  -1.140  0.00  0.00    +0.004 A 
ATOM     37  C   UNL     1      -8.727  -3.404  -0.275  0.00  0.00    +0.000 A 
ENDBRANCH   8  32
ENDBRANCH  31   8
ENDBRANCH  10  24
ENDBRANCH   4  19
ENDBRANCH  15   4
TORSDOF 9
