REMARK  Name = 7049358
REMARK  15 active torsions:
REMARK  status: ('A' for Active; 'I' for Inactive)
REMARK    1  A    between atoms: O_1  and  C_10
REMARK    2  A    between atoms: O_2  and  C_12
REMARK    3  A    between atoms: N_6  and  C_11
REMARK    4  A    between atoms: N_7  and  C_18
REMARK    5  A    between atoms: N_8  and  C_17
REMARK    6  A    between atoms: C_14  and  C_16
REMARK    7  A    between atoms: C_17  and  C_19
REMARK    8  A    between atoms: C_17  and  C_21
REMARK    9  A    between atoms: C_18  and  C_20
REMARK   10  A    between atoms: C_18  and  C_25
REMARK   11  A    between atoms: C_20  and  C_22
REMARK   12  A    between atoms: C_21  and  C_23
REMARK   13  A    between atoms: C_21  and  C_24
REMARK   14  A    between atoms: C_22  and  C_26
REMARK   15  A    between atoms: C_22  and  C_27
REMARK                            x       y       z     vdW  Elec       q    Type
REMARK                         _______ _______ _______ _____ _____    ______ ____
ROOT
ATOM     10  C   UNL     1      -1.927   2.134   0.233  0.00  0.00    +0.167 C 
ATOM     11  C   UNL     1      -1.601   0.944  -0.690  0.00  0.00    +0.127 C 
ATOM     12  C   UNL     1      -0.992   3.321  -0.029  0.00  0.00    +0.149 C 
ATOM     13  C   UNL     1       0.490   2.932   0.108  0.00  0.00    +0.074 C 
ATOM     14  C   UNL     1       0.801   1.568  -0.439  0.00  0.00    +0.015 C 
ATOM     15  C   UNL     1      -0.126   0.670  -0.808  0.00  0.00    +0.006 C 
ENDROOT
BRANCH  14  16
ATOM      3  O   UNL     1       2.959   1.850  -1.322  0.00  0.00    -0.271 OA
ATOM      7  N   UNL     1       2.555   0.066   0.123  0.00  0.00    -0.300 N 
ATOM     16  C   UNL     1       2.209   1.193  -0.601  0.00  0.00    +0.241 C 
ATOM     29  H   UNL     1       1.869  -0.358   0.741  0.00  0.00    +0.150 HD
BRANCH   7  18
ATOM     18  C   UNL     1       3.886  -0.496   0.119  0.00  0.00    +0.159 C 
BRANCH  18  25
ATOM      5  O   UNL     1       4.198   0.630   2.251  0.00  0.00    -0.274 OA
ATOM      9  N   UNL     1       6.018   0.358   0.877  0.00  0.00    -0.328 N 
ATOM     25  C   UNL     1       4.681   0.233   1.194  0.00  0.00    +0.231 C 
ATOM     34  H   UNL     1       6.663   0.813   1.514  0.00  0.00    +0.145 HD
ATOM     35  H   UNL     1       6.409   0.005   0.009  0.00  0.00    +0.145 HD
ENDBRANCH  18  25
BRANCH  18  20
ATOM     20  C   UNL     1       3.881  -2.005   0.395  0.00  0.00    +0.034 C 
BRANCH  20  22
ATOM     22  C   UNL     1       3.043  -2.841  -0.594  0.00  0.00    -0.015 C 
ATOM     26  C   UNL     1       3.534  -2.702  -2.036  0.00  0.00    +0.007 C 
ATOM     27  C   UNL     1       3.072  -4.314  -0.180  0.00  0.00    +0.007 C 
ENDBRANCH  20  22
ENDBRANCH  18  20
ENDBRANCH   7  18
ENDBRANCH  14  16
BRANCH  11   6
ATOM      4  O   UNL     1      -4.221   0.049  -1.465  0.00  0.00    -0.274 OA
ATOM      6  N   UNL     1      -2.265  -0.262  -0.259  0.00  0.00    -0.305 N 
ATOM     19  C   UNL     1      -3.537  -0.614  -0.687  0.00  0.00    +0.231 C 
ATOM     28  H   UNL     1      -1.791  -0.853   0.418  0.00  0.00    +0.149 HD
BRANCH  19  17
ATOM     17  C   UNL     1      -4.017  -1.930  -0.076  0.00  0.00    +0.140 C 
BRANCH  17   8
ATOM      8  N   UNL     1      -4.843  -2.593  -1.088  0.00  0.00    -0.320 NA
ATOM     32  H   UNL     1      -4.273  -2.818  -1.902  0.00  0.00    +0.119 HD
ATOM     33  H   UNL     1      -5.180  -3.483  -0.723  0.00  0.00    +0.119 HD
ENDBRANCH  17   8
BRANCH  17  21
ATOM     21  C   UNL     1      -4.791  -1.739   1.249  0.00  0.00    +0.009 C 
ATOM     23  C   UNL     1      -3.905  -1.135   2.344  0.00  0.00    +0.009 C 
ATOM     24  C   UNL     1      -6.074  -0.913   1.108  0.00  0.00    +0.009 C 
ENDBRANCH  17  21
ENDBRANCH  19  17
ENDBRANCH  11   6
BRANCH  10   1
ATOM      1  O   UNL     1      -1.791   1.734   1.598  0.00  0.00    -0.387 OA
ATOM     30  H   UNL     1      -2.037   2.494   2.151  0.00  0.00    +0.210 HD
ENDBRANCH  10   1
BRANCH  12   2
ATOM      2  O   UNL     1      -1.238   3.864  -1.324  0.00  0.00    -0.389 OA
ATOM     31  H   UNL     1      -0.660   4.638  -1.434  0.00  0.00    +0.210 HD
ENDBRANCH  12   2
TORSDOF 11
