MODEL 1
REMARK VINA RESULT:      -6.3      0.000      0.000
REMARK  Name = 28961807
REMARK  11 active torsions:
REMARK  status: ('A' for Active; 'I' for Inactive)
REMARK    1  A    between atoms: S_1  and  N_10
REMARK    2  A    between atoms: S_1  and  C_23
REMARK    3  A    between atoms: O_4  and  C_14
REMARK    4  A    between atoms: O_5  and  C_20
REMARK    5  A    between atoms: O_5  and  C_22
REMARK    6  A    between atoms: O_6  and  C_21
REMARK    7  A    between atoms: N_9  and  C_11
REMARK    8  A    between atoms: N_10  and  C_19
REMARK    9  A    between atoms: C_12  and  C_19
REMARK   10  A    between atoms: C_13  and  C_20
REMARK   11  A    between atoms: C_16  and  C_21
REMARK                            x       y       z     vdW  Elec       q    Type
REMARK                         _______ _______ _______ _____ _____    ______ ____
ROOT
ATOM      3  O   UNL     1      15.842   6.109  19.087  0.00  0.00    -0.366 OA
ATOM     11  C   UNL     1      14.717   7.469  20.685  0.00  0.00    +0.118 C 
ATOM     12  C   UNL     1      14.654   6.915  19.256  0.00  0.00    +0.154 C 
ATOM     14  C   UNL     1      16.209   7.474  20.985  0.00  0.00    +0.165 C 
ATOM     16  C   UNL     1      16.642   6.194  20.281  0.00  0.00    +0.174 C 
ENDROOT
BRANCH  11   9
ATOM      9  N   UNL     1      14.033   8.729  20.917  0.00  0.00    -0.289 NA
ATOM     13  C   UNL     1      12.568   8.669  20.888  0.00  0.00    +0.083 C 
ATOM     15  C   UNL     1      14.414   9.363  22.177  0.00  0.00    +0.085 C 
ATOM     17  C   UNL     1      12.212  10.054  21.427  0.00  0.00    +0.022 C 
ATOM     18  C   UNL     1      13.303  10.372  22.444  0.00  0.00    +0.017 C 
BRANCH  13  20
ATOM     20  C   UNL     1      11.922   7.560  21.725  0.00  0.00    +0.178 C 
BRANCH  20   5
ATOM      5  O   UNL     1      11.394   6.580  20.850  0.00  0.00    -0.381 OA
ATOM     22  C   UNL     1      11.028   5.394  21.545  0.00  0.00    +0.194 C 
ENDBRANCH  20   5
ENDBRANCH  13  20
ENDBRANCH  11   9
BRANCH  14   4
ATOM      4  O   UNL     1      16.851   8.601  20.403  0.00  0.00    -0.388 OA
ATOM     27  H   UNL     1      17.366   8.284  19.642  0.00  0.00    +0.210 HD
ENDBRANCH  14   4
BRANCH  12  19
ATOM     19  C   UNL     1      14.640   7.940  18.127  0.00  0.00    +0.139 C 
BRANCH  19  10
ATOM     10  N   UNL     1      13.528   7.638  17.206  0.00  0.00    -0.187 NA
ATOM     28  H   UNL     1      13.744   6.910  16.513  0.00  0.00    +0.148 HD
BRANCH  10   1
ATOM      1  S   UNL     1      12.460   8.872  16.723  0.00  0.00    +0.065 S 
ATOM      7  O   UNL     1      11.289   8.855  17.580  0.00  0.00    -0.153 OA
ATOM      8  O   UNL     1      12.310   8.831  15.281  0.00  0.00    -0.153 OA
BRANCH   1  23
ATOM      2  S   UNL     1      14.449  10.847  15.863  0.00  0.00    -0.077 S 
ATOM     23  C   UNL     1      13.392  10.325  17.105  0.00  0.00    +0.142 A 
ATOM     24  C   UNL     1      13.450  11.144  18.211  0.00  0.00    +0.036 A 
ATOM     25  C   UNL     1      14.375  12.214  18.036  0.00  0.00    +0.010 A 
ATOM     26  C   UNL     1      14.989  12.172  16.804  0.00  0.00    +0.047 A 
ENDBRANCH   1  23
ENDBRANCH  10   1
ENDBRANCH  19  10
ENDBRANCH  12  19
BRANCH  16  21
ATOM     21  C   UNL     1      18.111   6.120  19.906  0.00  0.00    +0.190 C 
BRANCH  21   6
ATOM      6  O   UNL     1      18.258   5.240  18.804  0.00  0.00    -0.392 OA
ATOM     29  H   UNL     1      17.600   4.531  18.914  0.00  0.00    +0.210 HD
ENDBRANCH  21   6
ENDBRANCH  16  21
TORSDOF 10
ENDMDL
MODEL 2
REMARK VINA RESULT:      -6.0      3.156      5.830
REMARK  Name = 28961807
REMARK  11 active torsions:
REMARK  status: ('A' for Active; 'I' for Inactive)
REMARK    1  A    between atoms: S_1  and  N_10
REMARK    2  A    between atoms: S_1  and  C_23
REMARK    3  A    between atoms: O_4  and  C_14
REMARK    4  A    between atoms: O_5  and  C_20
REMARK    5  A    between atoms: O_5  and  C_22
REMARK    6  A    between atoms: O_6  and  C_21
REMARK    7  A    between atoms: N_9  and  C_11
REMARK    8  A    between atoms: N_10  and  C_19
REMARK    9  A    between atoms: C_12  and  C_19
REMARK   10  A    between atoms: C_13  and  C_20
REMARK   11  A    between atoms: C_16  and  C_21
REMARK                            x       y       z     vdW  Elec       q    Type
REMARK                         _______ _______ _______ _____ _____    ______ ____
ROOT
ATOM      3  O   UNL     1      11.940   9.098  19.912  0.00  0.00    -0.366 OA
ATOM     11  C   UNL     1      11.282  10.571  21.662  0.00  0.00    +0.118 C 
ATOM     12  C   UNL     1      12.228  10.400  20.468  0.00  0.00    +0.154 C 
ATOM     14  C   UNL     1      10.999   9.137  22.084  0.00  0.00    +0.165 C 
ATOM     16  C   UNL     1      10.942   8.451  20.724  0.00  0.00    +0.174 C 
ENDROOT
BRANCH  11   9
ATOM      9  N   UNL     1      11.739  11.450  22.724  0.00  0.00    -0.289 NA
ATOM     13  C   UNL     1      11.826  12.873  22.376  0.00  0.00    +0.083 C 
ATOM     15  C   UNL     1      10.930  11.353  23.936  0.00  0.00    +0.085 C 
ATOM     17  C   UNL     1      12.056  13.494  23.753  0.00  0.00    +0.022 C 
ATOM     18  C   UNL     1      11.260  12.620  24.716  0.00  0.00    +0.017 C 
BRANCH  13  20
ATOM     20  C   UNL     1      10.596  13.475  21.690  0.00  0.00    +0.178 C 
BRANCH  20   5
ATOM      5  O   UNL     1      11.017  14.535  20.850  0.00  0.00    -0.381 OA
ATOM     22  C   UNL     1      12.058  14.128  19.970  0.00  0.00    +0.194 C 
ENDBRANCH  20   5
ENDBRANCH  13  20
ENDBRANCH  11   9
BRANCH  14   4
ATOM      4  O   UNL     1      12.063   8.605  22.863  0.00  0.00    -0.388 OA
ATOM     27  H   UNL     1      12.452   9.339  23.368  0.00  0.00    +0.210 HD
ENDBRANCH  14   4
BRANCH  12  19
ATOM     19  C   UNL     1      13.723  10.441  20.769  0.00  0.00    +0.139 C 
BRANCH  19  10
ATOM     10  N   UNL     1      14.338   9.164  20.364  0.00  0.00    -0.187 NA
ATOM     28  H   UNL     1      13.746   8.590  19.749  0.00  0.00    +0.148 HD
BRANCH  10   1
ATOM      1  S   UNL     1      15.371   8.335  21.435  0.00  0.00    +0.065 S 
ATOM      7  O   UNL     1      14.575   7.526  22.339  0.00  0.00    -0.153 OA
ATOM      8  O   UNL     1      16.353   9.265  21.960  0.00  0.00    -0.153 OA
BRANCH   1  23
ATOM      2  S   UNL     1      17.817   6.839  20.825  0.00  0.00    -0.077 S 
ATOM     23  C   UNL     1      16.227   7.244  20.339  0.00  0.00    +0.142 A 
ATOM     24  C   UNL     1      15.878   6.636  19.152  0.00  0.00    +0.036 A 
ATOM     25  C   UNL     1      16.933   5.829  18.635  0.00  0.00    +0.010 A 
ATOM     26  C   UNL     1      18.046   5.850  19.446  0.00  0.00    +0.047 A 
ENDBRANCH   1  23
ENDBRANCH  10   1
ENDBRANCH  19  10
ENDBRANCH  12  19
BRANCH  16  21
ATOM     21  C   UNL     1      11.199   6.955  20.736  0.00  0.00    +0.190 C 
BRANCH  21   6
ATOM      6  O   UNL     1      12.549   6.719  20.369  0.00  0.00    -0.392 OA
ATOM     29  H   UNL     1      12.776   5.824  20.674  0.00  0.00    +0.210 HD
ENDBRANCH  21   6
ENDBRANCH  16  21
TORSDOF 10
ENDMDL
MODEL 3
REMARK VINA RESULT:      -6.0      2.805      5.444
REMARK  Name = 28961807
REMARK  11 active torsions:
REMARK  status: ('A' for Active; 'I' for Inactive)
REMARK    1  A    between atoms: S_1  and  N_10
REMARK    2  A    between atoms: S_1  and  C_23
REMARK    3  A    between atoms: O_4  and  C_14
REMARK    4  A    between atoms: O_5  and  C_20
REMARK    5  A    between atoms: O_5  and  C_22
REMARK    6  A    between atoms: O_6  and  C_21
REMARK    7  A    between atoms: N_9  and  C_11
REMARK    8  A    between atoms: N_10  and  C_19
REMARK    9  A    between atoms: C_12  and  C_19
REMARK   10  A    between atoms: C_13  and  C_20
REMARK   11  A    between atoms: C_16  and  C_21
REMARK                            x       y       z     vdW  Elec       q    Type
REMARK                         _______ _______ _______ _____ _____    ______ ____
ROOT
ATOM      3  O   UNL     1      14.570   9.671  18.253  0.00  0.00    -0.366 OA
ATOM     11  C   UNL     1      12.649   9.407  19.634  0.00  0.00    +0.118 C 
ATOM     12  C   UNL     1      14.113   9.863  19.611  0.00  0.00    +0.154 C 
ATOM     14  C   UNL     1      12.585   8.405  18.491  0.00  0.00    +0.165 C 
ATOM     16  C   UNL     1      13.513   9.070  17.482  0.00  0.00    +0.174 C 
ENDROOT
BRANCH  11   9
ATOM      9  N   UNL     1      12.147   8.925  20.909  0.00  0.00    -0.289 NA
ATOM     13  C   UNL     1      12.045   9.932  21.971  0.00  0.00    +0.083 C 
ATOM     15  C   UNL     1      10.841   8.279  20.802  0.00  0.00    +0.085 C 
ATOM     17  C   UNL     1      11.252   9.161  23.025  0.00  0.00    +0.022 C 
ATOM     18  C   UNL     1      10.305   8.269  22.229  0.00  0.00    +0.017 C 
BRANCH  13  20
ATOM     20  C   UNL     1      11.348  11.242  21.594  0.00  0.00    +0.178 C 
BRANCH  20   5
ATOM      5  O   UNL     1      10.954  11.906  22.781  0.00  0.00    -0.381 OA
ATOM     22  C   UNL     1      11.890  12.907  23.162  0.00  0.00    +0.194 C 
ENDBRANCH  20   5
ENDBRANCH  13  20
ENDBRANCH  11   9
BRANCH  14   4
ATOM      4  O   UNL     1      13.100   7.138  18.879  0.00  0.00    -0.388 OA
ATOM     27  H   UNL     1      12.766   6.947  19.772  0.00  0.00    +0.210 HD
ENDBRANCH  14   4
BRANCH  12  19
ATOM     19  C   UNL     1      15.078   9.113  20.523  0.00  0.00    +0.139 C 
BRANCH  19  10
ATOM     10  N   UNL     1      16.048   8.367  19.700  0.00  0.00    -0.187 NA
ATOM     28  H   UNL     1      16.184   8.755  18.757  0.00  0.00    +0.148 HD
BRANCH  10   1
ATOM      1  S   UNL     1      16.190   6.678  19.868  0.00  0.00    +0.065 S 
ATOM      7  O   UNL     1      16.036   6.053  18.568  0.00  0.00    -0.153 OA
ATOM      8  O   UNL     1      15.378   6.244  20.988  0.00  0.00    -0.153 OA
BRANCH   1  23
ATOM      2  S   UNL     1      18.427   7.681  21.476  0.00  0.00    -0.077 S 
ATOM     23  C   UNL     1      17.880   6.506  20.358  0.00  0.00    +0.142 A 
ATOM     24  C   UNL     1      18.871   5.608  20.025  0.00  0.00    +0.036 A 
ATOM     25  C   UNL     1      20.096   5.890  20.697  0.00  0.00    +0.010 A 
ATOM     26  C   UNL     1      19.994   6.992  21.517  0.00  0.00    +0.047 A 
ENDBRANCH   1  23
ENDBRANCH  10   1
ENDBRANCH  19  10
ENDBRANCH  12  19
BRANCH  16  21
ATOM     21  C   UNL     1      14.116   8.145  16.441  0.00  0.00    +0.190 C 
BRANCH  21   6
ATOM      6  O   UNL     1      13.635   8.520  15.161  0.00  0.00    -0.392 OA
ATOM     29  H   UNL     1      14.386   8.901  14.674  0.00  0.00    +0.210 HD
ENDBRANCH  21   6
ENDBRANCH  16  21
TORSDOF 10
ENDMDL
MODEL 4
REMARK VINA RESULT:      -5.8     25.478     28.562
REMARK  Name = 28961807
REMARK  11 active torsions:
REMARK  status: ('A' for Active; 'I' for Inactive)
REMARK    1  A    between atoms: S_1  and  N_10
REMARK    2  A    between atoms: S_1  and  C_23
REMARK    3  A    between atoms: O_4  and  C_14
REMARK    4  A    between atoms: O_5  and  C_20
REMARK    5  A    between atoms: O_5  and  C_22
REMARK    6  A    between atoms: O_6  and  C_21
REMARK    7  A    between atoms: N_9  and  C_11
REMARK    8  A    between atoms: N_10  and  C_19
REMARK    9  A    between atoms: C_12  and  C_19
REMARK   10  A    between atoms: C_13  and  C_20
REMARK   11  A    between atoms: C_16  and  C_21
REMARK                            x       y       z     vdW  Elec       q    Type
REMARK                         _______ _______ _______ _____ _____    ______ ____
ROOT
ATOM      3  O   UNL     1      -5.009 -10.196  18.263  0.00  0.00    -0.366 OA
ATOM     11  C   UNL     1      -4.376 -11.901  16.727  0.00  0.00    +0.118 C 
ATOM     12  C   UNL     1      -4.691 -10.407  16.869  0.00  0.00    +0.154 C 
ATOM     14  C   UNL     1      -5.156 -12.526  17.874  0.00  0.00    +0.165 C 
ATOM     16  C   UNL     1      -4.975 -11.461  18.949  0.00  0.00    +0.174 C 
ENDROOT
BRANCH  11   9
ATOM      9  N   UNL     1      -4.618 -12.487  15.420  0.00  0.00    -0.289 NA
ATOM     13  C   UNL     1      -3.770 -11.987  14.333  0.00  0.00    +0.083 C 
ATOM     15  C   UNL     1      -4.507 -13.944  15.418  0.00  0.00    +0.085 C 
ATOM     17  C   UNL     1      -4.100 -12.986  13.226  0.00  0.00    +0.022 C 
ATOM     18  C   UNL     1      -4.337 -14.309  13.947  0.00  0.00    +0.017 C 
BRANCH  13  20
ATOM     20  C   UNL     1      -2.265 -11.944  14.618  0.00  0.00    +0.178 C 
BRANCH  20   5
ATOM      5  O   UNL     1      -1.834 -10.596  14.578  0.00  0.00    -0.381 OA
ATOM     22  C   UNL     1      -1.054 -10.258  15.720  0.00  0.00    +0.194 C 
ENDBRANCH  20   5
ENDBRANCH  13  20
ENDBRANCH  11   9
BRANCH  14   4
ATOM      4  O   UNL     1      -6.532 -12.673  17.548  0.00  0.00    -0.388 OA
ATOM     27  H   UNL     1      -6.703 -13.621  17.420  0.00  0.00    +0.210 HD
ENDBRANCH  14   4
BRANCH  12  19
ATOM     19  C   UNL     1      -5.864  -9.875  16.052  0.00  0.00    +0.139 C 
BRANCH  19  10
ATOM     10  N   UNL     1      -6.947  -9.463  16.965  0.00  0.00    -0.187 NA
ATOM     28  H   UNL     1      -6.622  -9.171  17.896  0.00  0.00    +0.148 HD
BRANCH  10   1
ATOM      1  S   UNL     1      -8.469 -10.221  16.880  0.00  0.00    +0.065 S 
ATOM      7  O   UNL     1      -8.823 -10.734  18.190  0.00  0.00    -0.153 OA
ATOM      8  O   UNL     1      -8.501 -11.092  15.721  0.00  0.00    -0.153 OA
BRANCH   1  23
ATOM      2  S   UNL     1     -10.068  -8.759  14.904  0.00  0.00    -0.077 S 
ATOM     23  C   UNL     1      -9.533  -8.853  16.528  0.00  0.00    +0.142 A 
ATOM     24  C   UNL     1     -10.035  -7.826  17.298  0.00  0.00    +0.036 A 
ATOM     25  C   UNL     1     -10.868  -6.951  16.543  0.00  0.00    +0.010 A 
ATOM     26  C   UNL     1     -10.972  -7.341  15.226  0.00  0.00    +0.047 A 
ENDBRANCH   1  23
ENDBRANCH  10   1
ENDBRANCH  19  10
ENDBRANCH  12  19
BRANCH  16  21
ATOM     21  C   UNL     1      -6.020 -11.462  20.050  0.00  0.00    +0.190 C 
BRANCH  21   6
ATOM      6  O   UNL     1      -6.681 -10.207  20.054  0.00  0.00    -0.392 OA
ATOM     29  H   UNL     1      -6.205  -9.635  20.682  0.00  0.00    +0.210 HD
ENDBRANCH  21   6
ENDBRANCH  16  21
TORSDOF 10
ENDMDL
MODEL 5
REMARK VINA RESULT:      -5.5      3.684      6.179
REMARK  Name = 28961807
REMARK  11 active torsions:
REMARK  status: ('A' for Active; 'I' for Inactive)
REMARK    1  A    between atoms: S_1  and  N_10
REMARK    2  A    between atoms: S_1  and  C_23
REMARK    3  A    between atoms: O_4  and  C_14
REMARK    4  A    between atoms: O_5  and  C_20
REMARK    5  A    between atoms: O_5  and  C_22
REMARK    6  A    between atoms: O_6  and  C_21
REMARK    7  A    between atoms: N_9  and  C_11
REMARK    8  A    between atoms: N_10  and  C_19
REMARK    9  A    between atoms: C_12  and  C_19
REMARK   10  A    between atoms: C_13  and  C_20
REMARK   11  A    between atoms: C_16  and  C_21
REMARK                            x       y       z     vdW  Elec       q    Type
REMARK                         _______ _______ _______ _____ _____    ______ ____
ROOT
ATOM      3  O   UNL     1      11.928   8.318  22.314  0.00  0.00    -0.366 OA
ATOM     11  C   UNL     1      13.024   9.096  20.349  0.00  0.00    +0.118 C 
ATOM     12  C   UNL     1      12.407   9.528  21.685  0.00  0.00    +0.154 C 
ATOM     14  C   UNL     1      12.283   7.806  20.030  0.00  0.00    +0.165 C 
ATOM     16  C   UNL     1      12.150   7.207  21.425  0.00  0.00    +0.174 C 
ENDROOT
BRANCH  11   9
ATOM      9  N   UNL     1      13.023  10.090  19.290  0.00  0.00    -0.289 NA
ATOM     13  C   UNL     1      13.846  11.279  19.535  0.00  0.00    +0.083 C 
ATOM     15  C   UNL     1      13.426   9.547  17.995  0.00  0.00    +0.085 C 
ATOM     17  C   UNL     1      13.825  11.935  18.155  0.00  0.00    +0.022 C 
ATOM     18  C   UNL     1      13.797  10.773  17.168  0.00  0.00    +0.017 C 
BRANCH  13  20
ATOM     20  C   UNL     1      15.279  11.020  20.010  0.00  0.00    +0.178 C 
BRANCH  20   5
ATOM      5  O   UNL     1      15.941  12.264  20.153  0.00  0.00    -0.381 OA
ATOM     22  C   UNL     1      17.280  12.207  19.674  0.00  0.00    +0.194 C 
ENDBRANCH  20   5
ENDBRANCH  13  20
ENDBRANCH  11   9
BRANCH  14   4
ATOM      4  O   UNL     1      10.999   8.067  19.478  0.00  0.00    -0.388 OA
ATOM     27  H   UNL     1      10.532   7.218  19.409  0.00  0.00    +0.210 HD
ENDBRANCH  14   4
BRANCH  12  19
ATOM     19  C   UNL     1      11.231  10.496  21.614  0.00  0.00    +0.139 C 
BRANCH  19  10
ATOM     10  N   UNL     1      10.675  10.691  22.966  0.00  0.00    -0.187 NA
ATOM     28  H   UNL     1       9.694  10.398  23.062  0.00  0.00    +0.148 HD
BRANCH  10   1
ATOM      1  S   UNL     1      11.185  12.008  23.916  0.00  0.00    +0.065 S 
ATOM      7  O   UNL     1      12.343  11.617  24.696  0.00  0.00    -0.153 OA
ATOM      8  O   UNL     1      10.030  12.596  24.568  0.00  0.00    -0.153 OA
BRANCH   1  23
ATOM      2  S   UNL     1      13.414  13.410  22.627  0.00  0.00    -0.077 S 
ATOM     23  C   UNL     1      11.722  13.156  22.683  0.00  0.00    +0.142 A 
ATOM     24  C   UNL     1      11.055  13.904  21.737  0.00  0.00    +0.036 A 
ATOM     25  C   UNL     1      11.946  14.697  20.958  0.00  0.00    +0.010 A 
ATOM     26  C   UNL     1      13.259  14.525  21.336  0.00  0.00    +0.047 A 
ENDBRANCH   1  23
ENDBRANCH  10   1
ENDBRANCH  19  10
ENDBRANCH  12  19
BRANCH  16  21
ATOM     21  C   UNL     1      11.030   6.197  21.597  0.00  0.00    +0.190 C 
BRANCH  21   6
ATOM      6  O   UNL     1       9.834   6.888  21.917  0.00  0.00    -0.392 OA
ATOM     29  H   UNL     1       9.239   6.800  21.152  0.00  0.00    +0.210 HD
ENDBRANCH  21   6
ENDBRANCH  16  21
TORSDOF 10
ENDMDL
MODEL 6
REMARK VINA RESULT:      -5.4     13.096     15.788
REMARK  Name = 28961807
REMARK  11 active torsions:
REMARK  status: ('A' for Active; 'I' for Inactive)
REMARK    1  A    between atoms: S_1  and  N_10
REMARK    2  A    between atoms: S_1  and  C_23
REMARK    3  A    between atoms: O_4  and  C_14
REMARK    4  A    between atoms: O_5  and  C_20
REMARK    5  A    between atoms: O_5  and  C_22
REMARK    6  A    between atoms: O_6  and  C_21
REMARK    7  A    between atoms: N_9  and  C_11
REMARK    8  A    between atoms: N_10  and  C_19
REMARK    9  A    between atoms: C_12  and  C_19
REMARK   10  A    between atoms: C_13  and  C_20
REMARK   11  A    between atoms: C_16  and  C_21
REMARK                            x       y       z     vdW  Elec       q    Type
REMARK                         _______ _______ _______ _____ _____    ______ ____
ROOT
ATOM      3  O   UNL     1       9.352   5.381   6.381  0.00  0.00    -0.366 OA
ATOM     11  C   UNL     1      10.754   7.303   6.288  0.00  0.00    +0.118 C 
ATOM     12  C   UNL     1      10.083   6.208   5.449  0.00  0.00    +0.154 C 
ATOM     14  C   UNL     1      10.891   6.650   7.656  0.00  0.00    +0.165 C 
ATOM     16  C   UNL     1       9.592   5.856   7.719  0.00  0.00    +0.174 C 
ENDROOT
BRANCH  11   9
ATOM      9  N   UNL     1      11.977   7.869   5.747  0.00  0.00    -0.289 NA
ATOM     13  C   UNL     1      11.820   8.664   4.524  0.00  0.00    +0.083 C 
ATOM     15  C   UNL     1      12.699   8.698   6.709  0.00  0.00    +0.085 C 
ATOM     17  C   UNL     1      13.204   9.301   4.414  0.00  0.00    +0.022 C 
ATOM     18  C   UNL     1      13.646   9.533   5.855  0.00  0.00    +0.017 C 
BRANCH  13  20
ATOM     20  C   UNL     1      10.716   9.725   4.547  0.00  0.00    +0.178 C 
BRANCH  20   5
ATOM      5  O   UNL     1      11.124  10.822   3.750  0.00  0.00    -0.381 OA
ATOM     22  C   UNL     1      10.691  12.062   4.298  0.00  0.00    +0.194 C 
ENDBRANCH  20   5
ENDBRANCH  13  20
ENDBRANCH  11   9
BRANCH  14   4
ATOM      4  O   UNL     1      12.010   5.774   7.704  0.00  0.00    -0.388 OA
ATOM     27  H   UNL     1      11.830   5.106   8.388  0.00  0.00    +0.210 HD
ENDBRANCH  14   4
BRANCH  12  19
ATOM     19  C   UNL     1      11.009   5.289   4.659  0.00  0.00    +0.139 C 
BRANCH  19  10
ATOM     10  N   UNL     1      10.249   4.650   3.569  0.00  0.00    -0.187 NA
ATOM     28  H   UNL     1       9.975   3.678   3.763  0.00  0.00    +0.148 HD
BRANCH  10   1
ATOM      1  S   UNL     1      10.580   5.049   1.947  0.00  0.00    +0.065 S 
ATOM      7  O   UNL     1      10.507   6.489   1.784  0.00  0.00    -0.153 OA
ATOM      8  O   UNL     1       9.815   4.176   1.078  0.00  0.00    -0.153 OA
BRANCH   1  23
ATOM      2  S   UNL     1      13.388   5.871   1.759  0.00  0.00    -0.077 S 
ATOM     23  C   UNL     1      12.276   4.570   1.798  0.00  0.00    +0.142 A 
ATOM     24  C   UNL     1      12.905   3.348   1.705  0.00  0.00    +0.036 A 
ATOM     25  C   UNL     1      14.320   3.482   1.600  0.00  0.00    +0.010 A 
ATOM     26  C   UNL     1      14.718   4.800   1.616  0.00  0.00    +0.047 A 
ENDBRANCH   1  23
ENDBRANCH  10   1
ENDBRANCH  19  10
ENDBRANCH  12  19
BRANCH  16  21
ATOM     21  C   UNL     1       9.593   4.678   8.677  0.00  0.00    +0.190 C 
BRANCH  21   6
ATOM      6  O   UNL     1      10.343   3.621   8.102  0.00  0.00    -0.392 OA
ATOM     29  H   UNL     1      10.997   4.026   7.505  0.00  0.00    +0.210 HD
ENDBRANCH  21   6
ENDBRANCH  16  21
TORSDOF 10
ENDMDL
MODEL 7
REMARK VINA RESULT:      -5.3     25.426     28.960
REMARK  Name = 28961807
REMARK  11 active torsions:
REMARK  status: ('A' for Active; 'I' for Inactive)
REMARK    1  A    between atoms: S_1  and  N_10
REMARK    2  A    between atoms: S_1  and  C_23
REMARK    3  A    between atoms: O_4  and  C_14
REMARK    4  A    between atoms: O_5  and  C_20
REMARK    5  A    between atoms: O_5  and  C_22
REMARK    6  A    between atoms: O_6  and  C_21
REMARK    7  A    between atoms: N_9  and  C_11
REMARK    8  A    between atoms: N_10  and  C_19
REMARK    9  A    between atoms: C_12  and  C_19
REMARK   10  A    between atoms: C_13  and  C_20
REMARK   11  A    between atoms: C_16  and  C_21
REMARK                            x       y       z     vdW  Elec       q    Type
REMARK                         _______ _______ _______ _____ _____    ______ ____
ROOT
ATOM      3  O   UNL     1      -5.173 -10.166  18.171  0.00  0.00    -0.366 OA
ATOM     11  C   UNL     1      -4.353 -11.822  16.670  0.00  0.00    +0.118 C 
ATOM     12  C   UNL     1      -4.808 -10.362  16.786  0.00  0.00    +0.154 C 
ATOM     14  C   UNL     1      -5.095 -12.504  17.810  0.00  0.00    +0.165 C 
ATOM     16  C   UNL     1      -5.036 -11.415  18.874  0.00  0.00    +0.174 C 
ENDROOT
BRANCH  11   9
ATOM      9  N   UNL     1      -4.514 -12.443  15.367  0.00  0.00    -0.289 NA
ATOM     13  C   UNL     1      -3.598 -11.971  14.322  0.00  0.00    +0.083 C 
ATOM     15  C   UNL     1      -4.403 -13.899  15.410  0.00  0.00    +0.085 C 
ATOM     17  C   UNL     1      -3.858 -12.999  13.223  0.00  0.00    +0.022 C 
ATOM     18  C   UNL     1      -4.141 -14.302  13.963  0.00  0.00    +0.017 C 
BRANCH  13  20
ATOM     20  C   UNL     1      -2.114 -11.919  14.700  0.00  0.00    +0.178 C 
BRANCH  20   5
ATOM      5  O   UNL     1      -1.638 -10.601  14.492  0.00  0.00    -0.381 OA
ATOM     22  C   UNL     1      -1.046 -10.063  15.669  0.00  0.00    +0.194 C 
ENDBRANCH  20   5
ENDBRANCH  13  20
ENDBRANCH  11   9
BRANCH  14   4
ATOM      4  O   UNL     1      -6.445 -12.782  17.459  0.00  0.00    -0.388 OA
ATOM     27  H   UNL     1      -6.581 -13.740  17.553  0.00  0.00    +0.210 HD
ENDBRANCH  14   4
BRANCH  12  19
ATOM     19  C   UNL     1      -6.009  -9.951  15.940  0.00  0.00    +0.139 C 
BRANCH  19  10
ATOM     10  N   UNL     1      -7.197  -9.831  16.805  0.00  0.00    -0.187 NA
ATOM     28  H   UNL     1      -7.000  -9.949  17.807  0.00  0.00    +0.148 HD
BRANCH  10   1
ATOM      1  S   UNL     1      -8.715 -10.365  16.249  0.00  0.00    +0.065 S 
ATOM      7  O   UNL     1      -8.588 -11.715  15.732  0.00  0.00    -0.153 OA
ATOM      8  O   UNL     1      -9.315  -9.325  15.435  0.00  0.00    -0.153 OA
BRANCH   1  23
ATOM      2  S   UNL     1      -9.693 -11.990  18.485  0.00  0.00    -0.077 S 
ATOM     23  C   UNL     1      -9.642 -10.444  17.752  0.00  0.00    +0.142 A 
ATOM     24  C   UNL     1     -10.347  -9.506  18.475  0.00  0.00    +0.036 A 
ATOM     25  C   UNL     1     -10.936 -10.066  19.646  0.00  0.00    +0.010 A 
ATOM     26  C   UNL     1     -10.660 -11.409  19.773  0.00  0.00    +0.047 A 
ENDBRANCH   1  23
ENDBRANCH  10   1
ENDBRANCH  19  10
ENDBRANCH  12  19
BRANCH  16  21
ATOM     21  C   UNL     1      -6.099 -11.500  19.954  0.00  0.00    +0.190 C 
BRANCH  21   6
ATOM      6  O   UNL     1      -6.849 -10.297  19.955  0.00  0.00    -0.392 OA
ATOM     29  H   UNL     1      -7.769 -10.533  20.168  0.00  0.00    +0.210 HD
ENDBRANCH  21   6
ENDBRANCH  16  21
TORSDOF 10
ENDMDL
MODEL 8
REMARK VINA RESULT:      -5.1     11.696     14.440
REMARK  Name = 28961807
REMARK  11 active torsions:
REMARK  status: ('A' for Active; 'I' for Inactive)
REMARK    1  A    between atoms: S_1  and  N_10
REMARK    2  A    between atoms: S_1  and  C_23
REMARK    3  A    between atoms: O_4  and  C_14
REMARK    4  A    between atoms: O_5  and  C_20
REMARK    5  A    between atoms: O_5  and  C_22
REMARK    6  A    between atoms: O_6  and  C_21
REMARK    7  A    between atoms: N_9  and  C_11
REMARK    8  A    between atoms: N_10  and  C_19
REMARK    9  A    between atoms: C_12  and  C_19
REMARK   10  A    between atoms: C_13  and  C_20
REMARK   11  A    between atoms: C_16  and  C_21
REMARK                            x       y       z     vdW  Elec       q    Type
REMARK                         _______ _______ _______ _____ _____    ______ ____
ROOT
ATOM      3  O   UNL     1      11.063   5.608   8.355  0.00  0.00    -0.366 OA
ATOM     11  C   UNL     1       9.960   6.083   6.299  0.00  0.00    +0.118 C 
ATOM     12  C   UNL     1      11.264   6.269   7.086  0.00  0.00    +0.154 C 
ATOM     14  C   UNL     1       8.920   5.910   7.396  0.00  0.00    +0.165 C 
ATOM     16  C   UNL     1       9.716   5.102   8.413  0.00  0.00    +0.174 C 
ENDROOT
BRANCH  11   9
ATOM      9  N   UNL     1       9.655   7.102   5.311  0.00  0.00    -0.289 NA
ATOM     13  C   UNL     1      10.377   6.989   4.039  0.00  0.00    +0.083 C 
ATOM     15  C   UNL     1       8.231   7.181   4.992  0.00  0.00    +0.085 C 
ATOM     17  C   UNL     1       9.626   8.011   3.188  0.00  0.00    +0.022 C 
ATOM     18  C   UNL     1       8.180   7.937   3.668  0.00  0.00    +0.017 C 
BRANCH  13  20
ATOM     20  C   UNL     1      10.374   5.604   3.384  0.00  0.00    +0.178 C 
BRANCH  20   5
ATOM      5  O   UNL     1      11.713   5.215   3.138  0.00  0.00    -0.381 OA
ATOM     22  C   UNL     1      12.009   5.192   1.746  0.00  0.00    +0.194 C 
ENDBRANCH  20   5
ENDBRANCH  13  20
ENDBRANCH  11   9
BRANCH  14   4
ATOM      4  O   UNL     1       8.536   7.162   7.950  0.00  0.00    -0.388 OA
ATOM     27  H   UNL     1       7.783   7.000   8.545  0.00  0.00    +0.210 HD
ENDBRANCH  14   4
BRANCH  12  19
ATOM     19  C   UNL     1      11.681   7.705   7.385  0.00  0.00    +0.139 C 
BRANCH  19  10
ATOM     10  N   UNL     1      12.450   8.239   6.246  0.00  0.00    -0.187 NA
ATOM     28  H   UNL     1      11.873   8.488   5.431  0.00  0.00    +0.148 HD
BRANCH  10   1
ATOM      1  S   UNL     1      14.022   7.665   5.932  0.00  0.00    +0.065 S 
ATOM      7  O   UNL     1      14.126   7.289   4.535  0.00  0.00    -0.153 OA
ATOM      8  O   UNL     1      14.399   6.726   6.971  0.00  0.00    -0.153 OA
BRANCH   1  23
ATOM      2  S   UNL     1      16.650   8.956   5.781  0.00  0.00    -0.077 S 
ATOM     23  C   UNL     1      14.993   9.122   6.177  0.00  0.00    +0.142 A 
ATOM     24  C   UNL     1      14.693  10.390   6.626  0.00  0.00    +0.036 A 
ATOM     25  C   UNL     1      15.841  11.235   6.646  0.00  0.00    +0.010 A 
ATOM     26  C   UNL     1      16.973  10.581   6.212  0.00  0.00    +0.047 A 
ENDBRANCH   1  23
ENDBRANCH  10   1
ENDBRANCH  19  10
ENDBRANCH  12  19
BRANCH  16  21
ATOM     21  C   UNL     1       9.215   5.176   9.844  0.00  0.00    +0.190 C 
BRANCH  21   6
ATOM      6  O   UNL     1      10.109   4.461  10.681  0.00  0.00    -0.392 OA
ATOM     29  H   UNL     1      10.372   5.062  11.399  0.00  0.00    +0.210 HD
ENDBRANCH  21   6
ENDBRANCH  16  21
TORSDOF 10
ENDMDL
MODEL 9
REMARK VINA RESULT:      -5.1     27.227     28.919
REMARK  Name = 28961807
REMARK  11 active torsions:
REMARK  status: ('A' for Active; 'I' for Inactive)
REMARK    1  A    between atoms: S_1  and  N_10
REMARK    2  A    between atoms: S_1  and  C_23
REMARK    3  A    between atoms: O_4  and  C_14
REMARK    4  A    between atoms: O_5  and  C_20
REMARK    5  A    between atoms: O_5  and  C_22
REMARK    6  A    between atoms: O_6  and  C_21
REMARK    7  A    between atoms: N_9  and  C_11
REMARK    8  A    between atoms: N_10  and  C_19
REMARK    9  A    between atoms: C_12  and  C_19
REMARK   10  A    between atoms: C_13  and  C_20
REMARK   11  A    between atoms: C_16  and  C_21
REMARK                            x       y       z     vdW  Elec       q    Type
REMARK                         _______ _______ _______ _____ _____    ______ ____
ROOT
ATOM      3  O   UNL     1      -4.662 -10.178  17.630  0.00  0.00    -0.366 OA
ATOM     11  C   UNL     1      -4.820 -11.196  15.484  0.00  0.00    +0.118 C 
ATOM     12  C   UNL     1      -5.206  -9.962  16.309  0.00  0.00    +0.154 C 
ATOM     14  C   UNL     1      -4.664 -12.279  16.542  0.00  0.00    +0.165 C 
ATOM     16  C   UNL     1      -4.041 -11.476  17.677  0.00  0.00    +0.174 C 
ENDROOT
BRANCH  11   9
ATOM      9  N   UNL     1      -5.700 -11.531  14.379  0.00  0.00    -0.289 NA
ATOM     13  C   UNL     1      -5.612 -10.651  13.209  0.00  0.00    +0.083 C 
ATOM     15  C   UNL     1      -5.523 -12.901  13.902  0.00  0.00    +0.085 C 
ATOM     17  C   UNL     1      -6.433 -11.440  12.191  0.00  0.00    +0.022 C 
ATOM     18  C   UNL     1      -6.161 -12.905  12.517  0.00  0.00    +0.017 C 
BRANCH  13  20
ATOM     20  C   UNL     1      -4.201 -10.363  12.687  0.00  0.00    +0.178 C 
BRANCH  20   5
ATOM      5  O   UNL     1      -4.304  -9.630  11.480  0.00  0.00    -0.381 OA
ATOM     22  C   UNL     1      -3.332 -10.044  10.527  0.00  0.00    +0.194 C 
ENDBRANCH  20   5
ENDBRANCH  13  20
ENDBRANCH  11   9
BRANCH  14   4
ATOM      4  O   UNL     1      -5.925 -12.803  16.939  0.00  0.00    -0.388 OA
ATOM     27  H   UNL     1      -5.871 -13.772  16.881  0.00  0.00    +0.210 HD
ENDBRANCH  14   4
BRANCH  12  19
ATOM     19  C   UNL     1      -6.697  -9.689  16.474  0.00  0.00    +0.139 C 
BRANCH  19  10
ATOM     10  N   UNL     1      -7.072  -9.863  17.889  0.00  0.00    -0.187 NA
ATOM     28  H   UNL     1      -6.271  -9.976  18.524  0.00  0.00    +0.148 HD
BRANCH  10   1
ATOM      1  S   UNL     1      -8.504 -10.688  18.299  0.00  0.00    +0.065 S 
ATOM      7  O   UNL     1      -8.598 -10.798  19.742  0.00  0.00    -0.153 OA
ATOM      8  O   UNL     1      -8.624 -11.870  17.467  0.00  0.00    -0.153 OA
BRANCH   1  23
ATOM      2  S   UNL     1     -11.313 -10.214  17.604  0.00  0.00    -0.077 S 
ATOM     23  C   UNL     1      -9.743  -9.548  17.759  0.00  0.00    +0.142 A 
ATOM     24  C   UNL     1      -9.715  -8.210  17.430  0.00  0.00    +0.036 A 
ATOM     25  C   UNL     1     -10.999  -7.727  17.045  0.00  0.00    +0.010 A 
ATOM     26  C   UNL     1     -11.959  -8.713  17.094  0.00  0.00    +0.047 A 
ENDBRANCH   1  23
ENDBRANCH  10   1
ENDBRANCH  19  10
ENDBRANCH  12  19
BRANCH  16  21
ATOM     21  C   UNL     1      -4.214 -12.065  19.065  0.00  0.00    +0.190 C 
BRANCH  21   6
ATOM      6  O   UNL     1      -2.942 -12.156  19.686  0.00  0.00    -0.392 OA
ATOM     29  H   UNL     1      -2.948 -11.543  20.441  0.00  0.00    +0.210 HD
ENDBRANCH  21   6
ENDBRANCH  16  21
TORSDOF 10
ENDMDL
MODEL 10
REMARK VINA RESULT:      -5.1     25.328     28.005
REMARK  Name = 28961807
REMARK  11 active torsions:
REMARK  status: ('A' for Active; 'I' for Inactive)
REMARK    1  A    between atoms: S_1  and  N_10
REMARK    2  A    between atoms: S_1  and  C_23
REMARK    3  A    between atoms: O_4  and  C_14
REMARK    4  A    between atoms: O_5  and  C_20
REMARK    5  A    between atoms: O_5  and  C_22
REMARK    6  A    between atoms: O_6  and  C_21
REMARK    7  A    between atoms: N_9  and  C_11
REMARK    8  A    between atoms: N_10  and  C_19
REMARK    9  A    between atoms: C_12  and  C_19
REMARK   10  A    between atoms: C_13  and  C_20
REMARK   11  A    between atoms: C_16  and  C_21
REMARK                            x       y       z     vdW  Elec       q    Type
REMARK                         _______ _______ _______ _____ _____    ______ ____
ROOT
ATOM      3  O   UNL     1      -3.094 -12.057  15.134  0.00  0.00    -0.366 OA
ATOM     11  C   UNL     1      -4.988 -11.835  16.558  0.00  0.00    +0.118 C 
ATOM     12  C   UNL     1      -4.520 -12.287  15.169  0.00  0.00    +0.154 C 
ATOM     14  C   UNL     1      -3.943 -10.804  16.953  0.00  0.00    +0.165 C 
ATOM     16  C   UNL     1      -2.687 -11.438  16.369  0.00  0.00    +0.174 C 
ENDROOT
BRANCH  11   9
ATOM      9  N   UNL     1      -6.367 -11.390  16.657  0.00  0.00    -0.289 NA
ATOM     13  C   UNL     1      -7.382 -12.445  16.570  0.00  0.00    +0.083 C 
ATOM     15  C   UNL     1      -6.637 -10.633  17.877  0.00  0.00    +0.085 C 
ATOM     17  C   UNL     1      -8.636 -11.675  16.980  0.00  0.00    +0.022 C 
ATOM     18  C   UNL     1      -8.155 -10.662  18.014  0.00  0.00    +0.017 C 
BRANCH  13  20
ATOM     20  C   UNL     1      -7.160 -13.669  17.465  0.00  0.00    +0.178 C 
BRANCH  20   5
ATOM      5  O   UNL     1      -6.964 -14.804  16.641  0.00  0.00    -0.381 OA
ATOM     22  C   UNL     1      -7.932 -15.815  16.897  0.00  0.00    +0.194 C 
ENDBRANCH  20   5
ENDBRANCH  13  20
ENDBRANCH  11   9
BRANCH  14   4
ATOM      4  O   UNL     1      -4.194  -9.546  16.338  0.00  0.00    -0.388 OA
ATOM     27  H   UNL     1      -5.040  -9.616  15.863  0.00  0.00    +0.210 HD
ENDBRANCH  14   4
BRANCH  12  19
ATOM     19  C   UNL     1      -5.125 -11.559  13.973  0.00  0.00    +0.139 C 
BRANCH  19  10
ATOM     10  N   UNL     1      -4.083 -10.745  13.319  0.00  0.00    -0.187 NA
ATOM     28  H   UNL     1      -4.282  -9.736  13.312  0.00  0.00    +0.148 HD
BRANCH  10   1
ATOM      1  S   UNL     1      -3.219 -11.371  11.992  0.00  0.00    +0.065 S 
ATOM      7  O   UNL     1      -3.639 -12.738  11.748  0.00  0.00    -0.153 OA
ATOM      8  O   UNL     1      -1.812 -11.057  12.152  0.00  0.00    -0.153 OA
BRANCH   1  23
ATOM      2  S   UNL     1      -5.318 -10.882  10.004  0.00  0.00    -0.077 S 
ATOM     23  C   UNL     1      -3.824 -10.371  10.665  0.00  0.00    +0.142 A 
ATOM     24  C   UNL     1      -3.338  -9.245  10.037  0.00  0.00    +0.036 A 
ATOM     25  C   UNL     1      -4.205  -8.797   8.998  0.00  0.00    +0.010 A 
ATOM     26  C   UNL     1      -5.320  -9.596   8.873  0.00  0.00    +0.047 A 
ENDBRANCH   1  23
ENDBRANCH  10   1
ENDBRANCH  19  10
ENDBRANCH  12  19
BRANCH  16  21
ATOM     21  C   UNL     1      -1.539 -10.484  16.096  0.00  0.00    +0.190 C 
BRANCH  21   6
ATOM      6  O   UNL     1      -1.741  -9.874  14.832  0.00  0.00    -0.392 OA
ATOM     29  H   UNL     1      -0.935 -10.028  14.308  0.00  0.00    +0.210 HD
ENDBRANCH  21   6
ENDBRANCH  16  21
TORSDOF 10
ENDMDL
