MODEL 1
REMARK VINA RESULT:      -6.4      0.000      0.000
REMARK  Name = 45783400
REMARK  8 active torsions:
REMARK  status: ('A' for Active; 'I' for Inactive)
REMARK    1  A    between atoms: O_2  and  C_24
REMARK    2  A    between atoms: O_2  and  C_25
REMARK    3  A    between atoms: N_3  and  C_11
REMARK    4  A    between atoms: N_6  and  C_22
REMARK    5  A    between atoms: C_8  and  C_11
REMARK    6  A    between atoms: C_12  and  C_16
REMARK    7  A    between atoms: C_17  and  C_18
REMARK    8  A    between atoms: C_22  and  C_24
REMARK                            x       y       z     vdW  Elec       q    Type
REMARK                         _______ _______ _______ _____ _____    ______ ____
ROOT
ATOM      1  O   UNL     1      16.926   6.553  21.558  0.00  0.00    -0.336 OA
ATOM      4  N   UNL     1      16.332   8.378  20.402  0.00  0.00    -0.190 NA
ATOM      5  N   UNL     1      15.779   6.201  20.835  0.00  0.00    -0.056 NA
ATOM     16  C   UNL     1      17.183   7.851  21.246  0.00  0.00    +0.245 A 
ATOM     17  C   UNL     1      15.489   7.328  20.178  0.00  0.00    +0.205 A 
ENDROOT
BRANCH  17  18
ATOM      6  N   UNL     1      12.873   6.554  20.967  0.00  0.00    -0.326 N 
ATOM      7  N   UNL     1      12.007   7.158  18.851  0.00  0.00    -0.240 NA
ATOM     18  C   UNL     1      14.366   7.439  19.294  0.00  0.00    +0.062 A 
ATOM     19  C   UNL     1      13.084   7.066  19.662  0.00  0.00    +0.130 A 
ATOM     20  C   UNL     1      14.555   7.939  18.009  0.00  0.00    +0.016 A 
ATOM     21  C   UNL     1      13.472   8.049  17.146  0.00  0.00    +0.020 A 
ATOM     23  C   UNL     1      12.229   7.649  17.610  0.00  0.00    +0.113 A 
ATOM     26  H   UNL     1      13.556   6.825  21.667  0.00  0.00    +0.148 HD
BRANCH   6  22
ATOM     22  C   UNL     1      11.590   6.145  21.436  0.00  0.00    +0.131 C 
BRANCH  22  24
ATOM     24  C   UNL     1      10.693   7.356  21.624  0.00  0.00    +0.178 C 
BRANCH  24   2
ATOM      2  O   UNL     1      11.229   8.189  22.645  0.00  0.00    -0.381 OA
ATOM     25  C   UNL     1      10.772   9.527  22.519  0.00  0.00    +0.194 C 
ENDBRANCH  24   2
ENDBRANCH  22  24
ENDBRANCH   6  22
ENDBRANCH  17  18
BRANCH  16  12
ATOM      3  N   UNL     1      19.656   8.125  21.233  0.00  0.00    -0.291 NA
ATOM     12  C   UNL     1      18.392   8.478  21.908  0.00  0.00    +0.146 C 
ATOM     13  C   UNL     1      20.570   9.246  21.453  0.00  0.00    +0.085 C 
ATOM     14  C   UNL     1      18.352  10.017  21.884  0.00  0.00    +0.030 C 
ATOM     15  C   UNL     1      19.660  10.439  21.231  0.00  0.00    +0.017 C 
BRANCH   3  11
ATOM     11  C   UNL     1      20.219   6.861  21.691  0.00  0.00    +0.088 C 
BRANCH  11   8
ATOM      8  C   UNL     1      20.624   5.998  20.541  0.00  0.00    +0.003 C 
ATOM      9  C   UNL     1      19.731   4.867  20.122  0.00  0.00    +0.005 C 
ATOM     10  C   UNL     1      21.038   4.579  20.800  0.00  0.00    +0.005 C 
ENDBRANCH  11   8
ENDBRANCH   3  11
ENDBRANCH  16  12
TORSDOF 7
ENDMDL
MODEL 2
REMARK VINA RESULT:      -6.3     15.052     18.628
REMARK  Name = 45783400
REMARK  8 active torsions:
REMARK  status: ('A' for Active; 'I' for Inactive)
REMARK    1  A    between atoms: O_2  and  C_24
REMARK    2  A    between atoms: O_2  and  C_25
REMARK    3  A    between atoms: N_3  and  C_11
REMARK    4  A    between atoms: N_6  and  C_22
REMARK    5  A    between atoms: C_8  and  C_11
REMARK    6  A    between atoms: C_12  and  C_16
REMARK    7  A    between atoms: C_17  and  C_18
REMARK    8  A    between atoms: C_22  and  C_24
REMARK                            x       y       z     vdW  Elec       q    Type
REMARK                         _______ _______ _______ _____ _____    ______ ____
ROOT
ATOM      1  O   UNL     1      10.164   4.663   5.044  0.00  0.00    -0.336 OA
ATOM      4  N   UNL     1       9.832   6.327   3.580  0.00  0.00    -0.190 NA
ATOM      5  N   UNL     1      10.678   4.215   3.821  0.00  0.00    -0.056 NA
ATOM     16  C   UNL     1       9.686   5.914   4.814  0.00  0.00    +0.245 A 
ATOM     17  C   UNL     1      10.446   5.250   3.008  0.00  0.00    +0.205 A 
ENDROOT
BRANCH  17  18
ATOM      6  N   UNL     1      13.157   5.105   2.172  0.00  0.00    -0.326 N 
ATOM      7  N   UNL     1      12.506   5.161  -0.101  0.00  0.00    -0.240 NA
ATOM     18  C   UNL     1      10.813   5.241   1.622  0.00  0.00    +0.062 A 
ATOM     19  C   UNL     1      12.130   5.171   1.197  0.00  0.00    +0.130 A 
ATOM     20  C   UNL     1       9.818   5.305   0.652  0.00  0.00    +0.016 A 
ATOM     21  C   UNL     1      10.166   5.297  -0.694  0.00  0.00    +0.020 A 
ATOM     23  C   UNL     1      11.511   5.224  -1.016  0.00  0.00    +0.113 A 
ATOM     26  H   UNL     1      12.885   4.745   3.081  0.00  0.00    +0.148 HD
BRANCH   6  22
ATOM     22  C   UNL     1      14.539   5.030   1.831  0.00  0.00    +0.131 C 
BRANCH  22  24
ATOM     24  C   UNL     1      14.954   3.580   1.654  0.00  0.00    +0.178 C 
BRANCH  24   2
ATOM      2  O   UNL     1      15.997   3.500   0.689  0.00  0.00    -0.381 OA
ATOM     25  C   UNL     1      16.055   4.670  -0.114  0.00  0.00    +0.194 C 
ENDBRANCH  24   2
ENDBRANCH  22  24
ENDBRANCH   6  22
ENDBRANCH  17  18
BRANCH  16  12
ATOM      3  N   UNL     1      10.080   7.190   6.914  0.00  0.00    -0.291 NA
ATOM     12  C   UNL     1       9.068   6.629   5.997  0.00  0.00    +0.146 C 
ATOM     13  C   UNL     1       9.469   8.365   7.536  0.00  0.00    +0.085 C 
ATOM     14  C   UNL     1       8.206   7.836   5.581  0.00  0.00    +0.030 C 
ATOM     15  C   UNL     1       8.771   9.016   6.358  0.00  0.00    +0.017 C 
BRANCH   3  11
ATOM     11  C   UNL     1      10.554   6.231   7.903  0.00  0.00    +0.088 C 
BRANCH  11   8
ATOM      8  C   UNL     1       9.428   5.422   8.459  0.00  0.00    +0.003 C 
ATOM      9  C   UNL     1       9.558   4.829   9.831  0.00  0.00    +0.005 C 
ATOM     10  C   UNL     1       9.599   3.940   8.622  0.00  0.00    +0.005 C 
ENDBRANCH  11   8
ENDBRANCH   3  11
ENDBRANCH  16  12
TORSDOF 7
ENDMDL
MODEL 3
REMARK VINA RESULT:      -6.3     15.531     18.706
REMARK  Name = 45783400
REMARK  8 active torsions:
REMARK  status: ('A' for Active; 'I' for Inactive)
REMARK    1  A    between atoms: O_2  and  C_24
REMARK    2  A    between atoms: O_2  and  C_25
REMARK    3  A    between atoms: N_3  and  C_11
REMARK    4  A    between atoms: N_6  and  C_22
REMARK    5  A    between atoms: C_8  and  C_11
REMARK    6  A    between atoms: C_12  and  C_16
REMARK    7  A    between atoms: C_17  and  C_18
REMARK    8  A    between atoms: C_22  and  C_24
REMARK                            x       y       z     vdW  Elec       q    Type
REMARK                         _______ _______ _______ _____ _____    ______ ____
ROOT
ATOM      1  O   UNL     1      11.014   3.897   2.799  0.00  0.00    -0.336 OA
ATOM      4  N   UNL     1      12.378   5.674   2.757  0.00  0.00    -0.190 NA
ATOM      5  N   UNL     1      10.468   4.829   3.691  0.00  0.00    -0.056 NA
ATOM     16  C   UNL     1      12.136   4.474   2.294  0.00  0.00    +0.245 A 
ATOM     17  C   UNL     1      11.328   5.849   3.611  0.00  0.00    +0.205 A 
ENDROOT
BRANCH  17  18
ATOM      6  N   UNL     1      11.053   5.819   6.438  0.00  0.00    -0.326 N 
ATOM      7  N   UNL     1      10.878   8.178   6.492  0.00  0.00    -0.240 NA
ATOM     18  C   UNL     1      11.168   7.054   4.370  0.00  0.00    +0.062 A 
ATOM     19  C   UNL     1      11.031   7.058   5.749  0.00  0.00    +0.130 A 
ATOM     20  C   UNL     1      11.145   8.279   3.711  0.00  0.00    +0.016 A 
ATOM     21  C   UNL     1      10.989   9.452   4.440  0.00  0.00    +0.020 A 
ATOM     23  C   UNL     1      10.861   9.349   5.816  0.00  0.00    +0.113 A 
ATOM     26  H   UNL     1      11.524   5.055   5.965  0.00  0.00    +0.148 HD
BRANCH   6  22
ATOM     22  C   UNL     1      10.921   5.722   7.854  0.00  0.00    +0.131 C 
BRANCH  22  24
ATOM     24  C   UNL     1       9.882   4.674   8.210  0.00  0.00    +0.178 C 
BRANCH  24   2
ATOM      2  O   UNL     1      10.031   4.302   9.576  0.00  0.00    -0.381 OA
ATOM     25  C   UNL     1       8.877   4.631  10.334  0.00  0.00    +0.194 C 
ENDBRANCH  24   2
ENDBRANCH  22  24
ENDBRANCH   6  22
ENDBRANCH  17  18
BRANCH  16  12
ATOM      3  N   UNL     1      12.953   4.281  -0.049  0.00  0.00    -0.291 NA
ATOM     12  C   UNL     1      12.921   3.657   1.289  0.00  0.00    +0.146 C 
ATOM     13  C   UNL     1      14.210   3.861  -0.671  0.00  0.00    +0.085 C 
ATOM     14  C   UNL     1      14.402   3.495   1.681  0.00  0.00    +0.030 C 
ATOM     15  C   UNL     1      15.189   3.998   0.479  0.00  0.00    +0.017 C 
BRANCH   3  11
ATOM     11  C   UNL     1      11.797   3.942  -0.868  0.00  0.00    +0.088 C 
BRANCH  11   8
ATOM      8  C   UNL     1      12.208   3.268  -2.136  0.00  0.00    +0.003 C 
ATOM      9  C   UNL     1      11.168   2.954  -3.172  0.00  0.00    +0.005 C 
ATOM     10  C   UNL     1      11.795   1.845  -2.378  0.00  0.00    +0.005 C 
ENDBRANCH  11   8
ENDBRANCH   3  11
ENDBRANCH  16  12
TORSDOF 7
ENDMDL
MODEL 4
REMARK VINA RESULT:      -6.1     14.356     17.866
REMARK  Name = 45783400
REMARK  8 active torsions:
REMARK  status: ('A' for Active; 'I' for Inactive)
REMARK    1  A    between atoms: O_2  and  C_24
REMARK    2  A    between atoms: O_2  and  C_25
REMARK    3  A    between atoms: N_3  and  C_11
REMARK    4  A    between atoms: N_6  and  C_22
REMARK    5  A    between atoms: C_8  and  C_11
REMARK    6  A    between atoms: C_12  and  C_16
REMARK    7  A    between atoms: C_17  and  C_18
REMARK    8  A    between atoms: C_22  and  C_24
REMARK                            x       y       z     vdW  Elec       q    Type
REMARK                         _______ _______ _______ _____ _____    ______ ____
ROOT
ATOM      1  O   UNL     1       9.461   6.738   2.872  0.00  0.00    -0.336 OA
ATOM      4  N   UNL     1      11.030   5.627   4.022  0.00  0.00    -0.190 NA
ATOM      5  N   UNL     1      10.370   6.255   1.923  0.00  0.00    -0.056 NA
ATOM     16  C   UNL     1       9.924   6.324   4.081  0.00  0.00    +0.245 A 
ATOM     17  C   UNL     1      11.266   5.610   2.678  0.00  0.00    +0.205 A 
ENDROOT
BRANCH  17  18
ATOM      6  N   UNL     1      13.913   6.551   3.098  0.00  0.00    -0.326 N 
ATOM      7  N   UNL     1      14.796   4.779   1.803  0.00  0.00    -0.240 NA
ATOM     18  C   UNL     1      12.405   4.943   2.121  0.00  0.00    +0.062 A 
ATOM     19  C   UNL     1      13.703   5.388   2.315  0.00  0.00    +0.130 A 
ATOM     20  C   UNL     1      12.218   3.800   1.350  0.00  0.00    +0.016 A 
ATOM     21  C   UNL     1      13.317   3.147   0.806  0.00  0.00    +0.020 A 
ATOM     23  C   UNL     1      14.574   3.672   1.059  0.00  0.00    +0.113 A 
ATOM     26  H   UNL     1      13.181   6.777   3.764  0.00  0.00    +0.148 HD
BRANCH   6  22
ATOM     22  C   UNL     1      15.210   7.084   3.354  0.00  0.00    +0.131 C 
BRANCH  22  24
ATOM     24  C   UNL     1      15.354   7.421   4.828  0.00  0.00    +0.178 C 
BRANCH  24   2
ATOM      2  O   UNL     1      14.091   7.285   5.470  0.00  0.00    -0.381 OA
ATOM     25  C   UNL     1      13.982   8.150   6.591  0.00  0.00    +0.194 C 
ENDBRANCH  24   2
ENDBRANCH  22  24
ENDBRANCH   6  22
ENDBRANCH  17  18
BRANCH  16  12
ATOM      3  N   UNL     1       9.928   7.319   6.363  0.00  0.00    -0.291 NA
ATOM     12  C   UNL     1       9.105   6.724   5.291  0.00  0.00    +0.146 C 
ATOM     13  C   UNL     1       9.059   8.252   7.081  0.00  0.00    +0.085 C 
ATOM     14  C   UNL     1       8.048   7.796   4.967  0.00  0.00    +0.030 C 
ATOM     15  C   UNL     1       8.320   8.930   5.945  0.00  0.00    +0.017 C 
BRANCH   3  11
ATOM     11  C   UNL     1      10.521   6.328   7.250  0.00  0.00    +0.088 C 
BRANCH  11   8
ATOM      8  C   UNL     1       9.473   5.489   7.905  0.00  0.00    +0.003 C 
ATOM      9  C   UNL     1       9.639   5.098   9.345  0.00  0.00    +0.005 C 
ATOM     10  C   UNL     1       9.790   4.067   8.265  0.00  0.00    +0.005 C 
ENDBRANCH  11   8
ENDBRANCH   3  11
ENDBRANCH  16  12
TORSDOF 7
ENDMDL
MODEL 5
REMARK VINA RESULT:      -6.0     26.668     28.673
REMARK  Name = 45783400
REMARK  8 active torsions:
REMARK  status: ('A' for Active; 'I' for Inactive)
REMARK    1  A    between atoms: O_2  and  C_24
REMARK    2  A    between atoms: O_2  and  C_25
REMARK    3  A    between atoms: N_3  and  C_11
REMARK    4  A    between atoms: N_6  and  C_22
REMARK    5  A    between atoms: C_8  and  C_11
REMARK    6  A    between atoms: C_12  and  C_16
REMARK    7  A    between atoms: C_17  and  C_18
REMARK    8  A    between atoms: C_22  and  C_24
REMARK                            x       y       z     vdW  Elec       q    Type
REMARK                         _______ _______ _______ _____ _____    ______ ____
ROOT
ATOM      1  O   UNL     1      -2.168 -10.297  14.598  0.00  0.00    -0.336 OA
ATOM      4  N   UNL     1      -4.256 -11.074  14.831  0.00  0.00    -0.190 NA
ATOM      5  N   UNL     1      -2.423 -10.323  15.975  0.00  0.00    -0.056 NA
ATOM     16  C   UNL     1      -3.298 -10.755  13.998  0.00  0.00    +0.245 A 
ATOM     17  C   UNL     1      -3.673 -10.792  16.032  0.00  0.00    +0.205 A 
ENDROOT
BRANCH  17  18
ATOM      6  N   UNL     1      -6.276  -9.746  16.480  0.00  0.00    -0.326 N 
ATOM      7  N   UNL     1      -6.314 -10.655  18.664  0.00  0.00    -0.240 NA
ATOM     18  C   UNL     1      -4.366 -10.989  17.271  0.00  0.00    +0.062 A 
ATOM     19  C   UNL     1      -5.636 -10.485  17.507  0.00  0.00    +0.130 A 
ATOM     20  C   UNL     1      -3.753 -11.711  18.290  0.00  0.00    +0.016 A 
ATOM     21  C   UNL     1      -4.419 -11.906  19.494  0.00  0.00    +0.020 A 
ATOM     23  C   UNL     1      -5.686 -11.363  19.631  0.00  0.00    +0.113 A 
ATOM     26  H   UNL     1      -5.958  -9.932  15.534  0.00  0.00    +0.148 HD
BRANCH   6  22
ATOM     22  C   UNL     1      -7.580  -9.190  16.629  0.00  0.00    +0.131 C 
BRANCH  22  24
ATOM     24  C   UNL     1      -8.537  -9.834  15.641  0.00  0.00    +0.178 C 
BRANCH  24   2
ATOM      2  O   UNL     1      -9.874  -9.658  16.092  0.00  0.00    -0.381 OA
ATOM     25  C   UNL     1      -9.916  -9.253  17.453  0.00  0.00    +0.194 C 
ENDBRANCH  24   2
ENDBRANCH  22  24
ENDBRANCH   6  22
ENDBRANCH  17  18
BRANCH  16  12
ATOM      3  N   UNL     1      -4.201  -9.860  11.859  0.00  0.00    -0.291 NA
ATOM     12  C   UNL     1      -3.278 -10.827  12.486  0.00  0.00    +0.146 C 
ATOM     13  C   UNL     1      -3.623  -9.519  10.559  0.00  0.00    +0.085 C 
ATOM     14  C   UNL     1      -1.897 -10.492  11.892  0.00  0.00    +0.030 C 
ATOM     15  C   UNL     1      -2.154  -9.366  10.900  0.00  0.00    +0.017 C 
BRANCH   3  11
ATOM     11  C   UNL     1      -5.564 -10.361  11.738  0.00  0.00    +0.088 C 
BRANCH  11   8
ATOM      8  C   UNL     1      -6.555  -9.243  11.726  0.00  0.00    +0.003 C 
ATOM      9  C   UNL     1      -8.021  -9.561  11.761  0.00  0.00    +0.005 C 
ATOM     10  C   UNL     1      -7.400  -9.026  10.504  0.00  0.00    +0.005 C 
ENDBRANCH  11   8
ENDBRANCH   3  11
ENDBRANCH  16  12
TORSDOF 7
ENDMDL
MODEL 6
REMARK VINA RESULT:      -6.0      2.162      7.352
REMARK  Name = 45783400
REMARK  8 active torsions:
REMARK  status: ('A' for Active; 'I' for Inactive)
REMARK    1  A    between atoms: O_2  and  C_24
REMARK    2  A    between atoms: O_2  and  C_25
REMARK    3  A    between atoms: N_3  and  C_11
REMARK    4  A    between atoms: N_6  and  C_22
REMARK    5  A    between atoms: C_8  and  C_11
REMARK    6  A    between atoms: C_12  and  C_16
REMARK    7  A    between atoms: C_17  and  C_18
REMARK    8  A    between atoms: C_22  and  C_24
REMARK                            x       y       z     vdW  Elec       q    Type
REMARK                         _______ _______ _______ _____ _____    ______ ____
ROOT
ATOM      1  O   UNL     1      16.816   9.142  20.992  0.00  0.00    -0.336 OA
ATOM      4  N   UNL     1      16.819   6.907  20.833  0.00  0.00    -0.190 NA
ATOM      5  N   UNL     1      18.128   8.733  21.265  0.00  0.00    -0.056 NA
ATOM     16  C   UNL     1      16.112   8.006  20.749  0.00  0.00    +0.245 A 
ATOM     17  C   UNL     1      18.050   7.404  21.152  0.00  0.00    +0.205 A 
ENDROOT
BRANCH  17  18
ATOM      6  N   UNL     1      19.649   7.545  23.495  0.00  0.00    -0.326 N 
ATOM      7  N   UNL     1      21.042   5.805  22.704  0.00  0.00    -0.240 NA
ATOM     18  C   UNL     1      19.180   6.545  21.352  0.00  0.00    +0.062 A 
ATOM     19  C   UNL     1      19.971   6.601  22.488  0.00  0.00    +0.130 A 
ATOM     20  C   UNL     1      19.510   5.612  20.374  0.00  0.00    +0.016 A 
ATOM     21  C   UNL     1      20.605   4.776  20.560  0.00  0.00    +0.020 A 
ATOM     23  C   UNL     1      21.332   4.910  21.732  0.00  0.00    +0.113 A 
ATOM     26  H   UNL     1      18.684   7.860  23.518  0.00  0.00    +0.148 HD
BRANCH   6  22
ATOM     22  C   UNL     1      20.403   7.676  24.698  0.00  0.00    +0.131 C 
BRANCH  22  24
ATOM     24  C   UNL     1      20.697   9.141  24.971  0.00  0.00    +0.178 C 
BRANCH  24   2
ATOM      2  O   UNL     1      20.340   9.916  23.834  0.00  0.00    -0.381 OA
ATOM     25  C   UNL     1      19.962  11.235  24.200  0.00  0.00    +0.194 C 
ENDBRANCH  24   2
ENDBRANCH  22  24
ENDBRANCH   6  22
ENDBRANCH  17  18
BRANCH  16  12
ATOM      3  N   UNL     1      14.172   7.223  19.400  0.00  0.00    -0.291 NA
ATOM     12  C   UNL     1      14.644   8.179  20.421  0.00  0.00    +0.146 C 
ATOM     13  C   UNL     1      12.754   6.990  19.674  0.00  0.00    +0.085 C 
ATOM     14  C   UNL     1      13.730   7.934  21.637  0.00  0.00    +0.030 C 
ATOM     15  C   UNL     1      12.742   6.869  21.185  0.00  0.00    +0.017 C 
BRANCH   3  11
ATOM     11  C   UNL     1      14.400   7.681  18.036  0.00  0.00    +0.088 C 
BRANCH  11   8
ATOM      8  C   UNL     1      13.740   8.999  17.789  0.00  0.00    +0.003 C 
ATOM      9  C   UNL     1      12.967   9.206  16.519  0.00  0.00    +0.005 C 
ATOM     10  C   UNL     1      14.282   9.901  16.719  0.00  0.00    +0.005 C 
ENDBRANCH  11   8
ENDBRANCH   3  11
ENDBRANCH  16  12
TORSDOF 7
ENDMDL
MODEL 7
REMARK VINA RESULT:      -5.9     30.970     32.924
REMARK  Name = 45783400
REMARK  8 active torsions:
REMARK  status: ('A' for Active; 'I' for Inactive)
REMARK    1  A    between atoms: O_2  and  C_24
REMARK    2  A    between atoms: O_2  and  C_25
REMARK    3  A    between atoms: N_3  and  C_11
REMARK    4  A    between atoms: N_6  and  C_22
REMARK    5  A    between atoms: C_8  and  C_11
REMARK    6  A    between atoms: C_12  and  C_16
REMARK    7  A    between atoms: C_17  and  C_18
REMARK    8  A    between atoms: C_22  and  C_24
REMARK                            x       y       z     vdW  Elec       q    Type
REMARK                         _______ _______ _______ _____ _____    ______ ____
ROOT
ATOM      1  O   UNL     1     -15.802   4.496  29.293  0.00  0.00    -0.336 OA
ATOM      4  N   UNL     1     -15.363   2.390  28.668  0.00  0.00    -0.190 NA
ATOM      5  N   UNL     1     -16.422   4.322  28.050  0.00  0.00    -0.056 NA
ATOM     16  C   UNL     1     -15.202   3.312  29.584  0.00  0.00    +0.245 A 
ATOM     17  C   UNL     1     -16.118   3.056  27.746  0.00  0.00    +0.205 A 
ENDROOT
BRANCH  17  18
ATOM      6  N   UNL     1     -15.808   4.306  25.215  0.00  0.00    -0.326 N 
ATOM      7  N   UNL     1     -16.808   2.458  24.129  0.00  0.00    -0.240 NA
ATOM     18  C   UNL     1     -16.552   2.429  26.533  0.00  0.00    +0.062 A 
ATOM     19  C   UNL     1     -16.409   3.024  25.290  0.00  0.00    +0.130 A 
ATOM     20  C   UNL     1     -17.144   1.171  26.588  0.00  0.00    +0.016 A 
ATOM     21  C   UNL     1     -17.567   0.556  25.415  0.00  0.00    +0.020 A 
ATOM     23  C   UNL     1     -17.378   1.235  24.222  0.00  0.00    +0.113 A 
ATOM     26  H   UNL     1     -15.194   4.555  25.984  0.00  0.00    +0.148 HD
BRANCH   6  22
ATOM     22  C   UNL     1     -15.618   4.997  23.982  0.00  0.00    +0.131 C 
BRANCH  22  24
ATOM     24  C   UNL     1     -14.207   4.768  23.469  0.00  0.00    +0.178 C 
BRANCH  24   2
ATOM      2  O   UNL     1     -14.230   4.658  22.051  0.00  0.00    -0.381 OA
ATOM     25  C   UNL     1     -15.287   5.420  21.486  0.00  0.00    +0.194 C 
ENDBRANCH  24   2
ENDBRANCH  22  24
ENDBRANCH   6  22
ENDBRANCH  17  18
BRANCH  16  12
ATOM      3  N   UNL     1     -15.291   3.619  32.052  0.00  0.00    -0.291 NA
ATOM     12  C   UNL     1     -14.453   3.238  30.897  0.00  0.00    +0.146 C 
ATOM     13  C   UNL     1     -14.773   2.877  33.201  0.00  0.00    +0.085 C 
ATOM     14  C   UNL     1     -13.961   1.815  31.223  0.00  0.00    +0.030 C 
ATOM     15  C   UNL     1     -14.524   1.506  32.603  0.00  0.00    +0.017 C 
BRANCH   3  11
ATOM     11  C   UNL     1     -15.317   5.056  32.293  0.00  0.00    +0.088 C 
BRANCH  11   8
ATOM      8  C   UNL     1     -14.010   5.540  32.830  0.00  0.00    +0.003 C 
ATOM      9  C   UNL     1     -13.998   6.442  34.030  0.00  0.00    +0.005 C 
ATOM     10  C   UNL     1     -13.645   6.988  32.677  0.00  0.00    +0.005 C 
ENDBRANCH  11   8
ENDBRANCH   3  11
ENDBRANCH  16  12
TORSDOF 7
ENDMDL
MODEL 8
REMARK VINA RESULT:      -5.9     31.079     32.962
REMARK  Name = 45783400
REMARK  8 active torsions:
REMARK  status: ('A' for Active; 'I' for Inactive)
REMARK    1  A    between atoms: O_2  and  C_24
REMARK    2  A    between atoms: O_2  and  C_25
REMARK    3  A    between atoms: N_3  and  C_11
REMARK    4  A    between atoms: N_6  and  C_22
REMARK    5  A    between atoms: C_8  and  C_11
REMARK    6  A    between atoms: C_12  and  C_16
REMARK    7  A    between atoms: C_17  and  C_18
REMARK    8  A    between atoms: C_22  and  C_24
REMARK                            x       y       z     vdW  Elec       q    Type
REMARK                         _______ _______ _______ _____ _____    ______ ____
ROOT
ATOM      1  O   UNL     1     -16.583   4.970  28.435  0.00  0.00    -0.336 OA
ATOM      4  N   UNL     1     -16.294   2.830  27.837  0.00  0.00    -0.190 NA
ATOM      5  N   UNL     1     -16.913   4.897  27.077  0.00  0.00    -0.056 NA
ATOM     16  C   UNL     1     -16.230   3.710  28.804  0.00  0.00    +0.245 A 
ATOM     17  C   UNL     1     -16.718   3.605  26.797  0.00  0.00    +0.205 A 
ENDROOT
BRANCH  17  18
ATOM      6  N   UNL     1     -15.208   4.447  24.543  0.00  0.00    -0.326 N 
ATOM      7  N   UNL     1     -16.392   2.959  23.136  0.00  0.00    -0.240 NA
ATOM     18  C   UNL     1     -16.935   3.057  25.490  0.00  0.00    +0.062 A 
ATOM     19  C   UNL     1     -16.209   3.457  24.380  0.00  0.00    +0.130 A 
ATOM     20  C   UNL     1     -17.914   2.084  25.312  0.00  0.00    +0.016 A 
ATOM     21  C   UNL     1     -18.131   1.548  24.047  0.00  0.00    +0.020 A 
ATOM     23  C   UNL     1     -17.351   2.015  23.002  0.00  0.00    +0.113 A 
ATOM     26  H   UNL     1     -14.822   4.541  25.478  0.00  0.00    +0.148 HD
BRANCH   6  22
ATOM     22  C   UNL     1     -14.409   4.921  23.461  0.00  0.00    +0.131 C 
BRANCH  22  24
ATOM     24  C   UNL     1     -14.800   6.346  23.110  0.00  0.00    +0.178 C 
BRANCH  24   2
ATOM      2  O   UNL     1     -15.893   6.327  22.199  0.00  0.00    -0.381 OA
ATOM     25  C   UNL     1     -15.556   5.654  20.996  0.00  0.00    +0.194 C 
ENDBRANCH  24   2
ENDBRANCH  22  24
ENDBRANCH   6  22
ENDBRANCH  17  18
BRANCH  16  12
ATOM      3  N   UNL     1     -14.367   3.351  30.415  0.00  0.00    -0.291 NA
ATOM     12  C   UNL     1     -15.824   3.519  30.251  0.00  0.00    +0.146 C 
ATOM     13  C   UNL     1     -14.037   3.872  31.742  0.00  0.00    +0.085 C 
ATOM     14  C   UNL     1     -16.181   4.729  31.134  0.00  0.00    +0.030 C 
ATOM     15  C   UNL     1     -14.874   5.135  31.799  0.00  0.00    +0.017 C 
BRANCH   3  11
ATOM     11  C   UNL     1     -13.923   1.974  30.241  0.00  0.00    +0.088 C 
BRANCH  11   8
ATOM      8  C   UNL     1     -14.989   1.006  30.639  0.00  0.00    +0.003 C 
ATOM      9  C   UNL     1     -14.857   0.260  31.934  0.00  0.00    +0.005 C 
ATOM     10  C   UNL     1     -14.685  -0.464  30.630  0.00  0.00    +0.005 C 
ENDBRANCH  11   8
ENDBRANCH   3  11
ENDBRANCH  16  12
TORSDOF 7
ENDMDL
MODEL 9
REMARK VINA RESULT:      -5.8     26.319     29.635
REMARK  Name = 45783400
REMARK  8 active torsions:
REMARK  status: ('A' for Active; 'I' for Inactive)
REMARK    1  A    between atoms: O_2  and  C_24
REMARK    2  A    between atoms: O_2  and  C_25
REMARK    3  A    between atoms: N_3  and  C_11
REMARK    4  A    between atoms: N_6  and  C_22
REMARK    5  A    between atoms: C_8  and  C_11
REMARK    6  A    between atoms: C_12  and  C_16
REMARK    7  A    between atoms: C_17  and  C_18
REMARK    8  A    between atoms: C_22  and  C_24
REMARK                            x       y       z     vdW  Elec       q    Type
REMARK                         _______ _______ _______ _____ _____    ______ ____
ROOT
ATOM      1  O   UNL     1      -7.146 -11.678  16.616  0.00  0.00    -0.336 OA
ATOM      4  N   UNL     1      -5.713  -9.997  16.989  0.00  0.00    -0.190 NA
ATOM      5  N   UNL     1      -6.034 -11.925  15.801  0.00  0.00    -0.056 NA
ATOM     16  C   UNL     1      -6.875 -10.524  17.281  0.00  0.00    +0.245 A 
ATOM     17  C   UNL     1      -5.233 -10.892  16.077  0.00  0.00    +0.205 A 
ENDROOT
BRANCH  17  18
ATOM      6  N   UNL     1      -4.954 -10.483  13.280  0.00  0.00    -0.326 N 
ATOM      7  N   UNL     1      -2.601 -10.363  13.486  0.00  0.00    -0.240 NA
ATOM     18  C   UNL     1      -3.951 -10.724  15.459  0.00  0.00    +0.062 A 
ATOM     19  C   UNL     1      -3.796 -10.524  14.096  0.00  0.00    +0.130 A 
ATOM     20  C   UNL     1      -2.803 -10.761  16.245  0.00  0.00    +0.016 A 
ATOM     21  C   UNL     1      -1.556 -10.599  15.654  0.00  0.00    +0.020 A 
ATOM     23  C   UNL     1      -1.509 -10.405  14.283  0.00  0.00    +0.113 A 
ATOM     26  H   UNL     1      -5.820 -10.231  13.747  0.00  0.00    +0.148 HD
BRANCH   6  22
ATOM     22  C   UNL     1      -4.896 -10.282  11.870  0.00  0.00    +0.131 C 
BRANCH  22  24
ATOM     24  C   UNL     1      -5.712  -9.061  11.483  0.00  0.00    +0.178 C 
BRANCH  24   2
ATOM      2  O   UNL     1      -4.905  -8.173  10.719  0.00  0.00    -0.381 OA
ATOM     25  C   UNL     1      -4.244  -8.851   9.661  0.00  0.00    +0.194 C 
ENDBRANCH  24   2
ENDBRANCH  22  24
ENDBRANCH   6  22
ENDBRANCH  17  18
BRANCH  16  12
ATOM      3  N   UNL     1      -9.228  -9.769  17.575  0.00  0.00    -0.291 NA
ATOM     12  C   UNL     1      -7.937 -10.032  18.242  0.00  0.00    +0.146 C 
ATOM     13  C   UNL     1     -10.267 -10.002  18.579  0.00  0.00    +0.085 C 
ATOM     14  C   UNL     1      -8.267 -11.059  19.341  0.00  0.00    +0.030 C 
ATOM     15  C   UNL     1      -9.772 -11.266  19.254  0.00  0.00    +0.017 C 
BRANCH   3  11
ATOM     11  C   UNL     1      -9.314  -8.434  16.997  0.00  0.00    +0.088 C 
BRANCH  11   8
ATOM      8  C   UNL     1     -10.686  -7.864  17.148  0.00  0.00    +0.003 C 
ATOM      9  C   UNL     1     -11.618  -7.870  15.971  0.00  0.00    +0.005 C 
ATOM     10  C   UNL     1     -11.027  -6.578  16.453  0.00  0.00    +0.005 C 
ENDBRANCH  11   8
ENDBRANCH   3  11
ENDBRANCH  16  12
TORSDOF 7
ENDMDL
MODEL 10
REMARK VINA RESULT:      -5.7     15.917     19.116
REMARK  Name = 45783400
REMARK  8 active torsions:
REMARK  status: ('A' for Active; 'I' for Inactive)
REMARK    1  A    between atoms: O_2  and  C_24
REMARK    2  A    between atoms: O_2  and  C_25
REMARK    3  A    between atoms: N_3  and  C_11
REMARK    4  A    between atoms: N_6  and  C_22
REMARK    5  A    between atoms: C_8  and  C_11
REMARK    6  A    between atoms: C_12  and  C_16
REMARK    7  A    between atoms: C_17  and  C_18
REMARK    8  A    between atoms: C_22  and  C_24
REMARK                            x       y       z     vdW  Elec       q    Type
REMARK                         _______ _______ _______ _____ _____    ______ ____
ROOT
ATOM      1  O   UNL     1      12.757   6.203   1.509  0.00  0.00    -0.336 OA
ATOM      4  N   UNL     1      11.950   4.542   2.777  0.00  0.00    -0.190 NA
ATOM      5  N   UNL     1      12.016   6.815   2.527  0.00  0.00    -0.056 NA
ATOM     16  C   UNL     1      12.667   4.866   1.730  0.00  0.00    +0.245 A 
ATOM     17  C   UNL     1      11.572   5.771   3.234  0.00  0.00    +0.205 A 
ENDROOT
BRANCH  17  18
ATOM      6  N   UNL     1      12.655   6.498   5.757  0.00  0.00    -0.326 N 
ATOM      7  N   UNL     1      10.510   6.423   6.751  0.00  0.00    -0.240 NA
ATOM     18  C   UNL     1      10.749   5.921   4.398  0.00  0.00    +0.062 A 
ATOM     19  C   UNL     1      11.261   6.274   5.636  0.00  0.00    +0.130 A 
ATOM     20  C   UNL     1       9.378   5.705   4.298  0.00  0.00    +0.016 A 
ATOM     21  C   UNL     1       8.573   5.848   5.422  0.00  0.00    +0.020 A 
ATOM     23  C   UNL     1       9.182   6.205   6.614  0.00  0.00    +0.113 A 
ATOM     26  H   UNL     1      13.141   6.752   4.903  0.00  0.00    +0.148 HD
BRANCH   6  22
ATOM     22  C   UNL     1      13.273   6.866   6.988  0.00  0.00    +0.131 C 
BRANCH  22  24
ATOM     24  C   UNL     1      13.789   8.291   6.907  0.00  0.00    +0.178 C 
BRANCH  24   2
ATOM      2  O   UNL     1      12.756   9.192   7.289  0.00  0.00    -0.381 OA
ATOM     25  C   UNL     1      13.013  10.508   6.821  0.00  0.00    +0.194 C 
ENDBRANCH  24   2
ENDBRANCH  22  24
ENDBRANCH   6  22
ENDBRANCH  17  18
BRANCH  16  12
ATOM      3  N   UNL     1      13.518   4.572  -0.590  0.00  0.00    -0.291 NA
ATOM     12  C   UNL     1      13.396   3.969   0.752  0.00  0.00    +0.146 C 
ATOM     13  C   UNL     1      14.745   4.031  -1.177  0.00  0.00    +0.085 C 
ATOM     14  C   UNL     1      14.846   3.673   1.181  0.00  0.00    +0.030 C 
ATOM     15  C   UNL     1      15.704   4.088  -0.005  0.00  0.00    +0.017 C 
BRANCH   3  11
ATOM     11  C   UNL     1      12.355   4.334  -1.434  0.00  0.00    +0.088 C 
BRANCH  11   8
ATOM      8  C   UNL     1      12.627   3.268  -2.445  0.00  0.00    +0.003 C 
ATOM      9  C   UNL     1      11.589   2.961  -3.485  0.00  0.00    +0.005 C 
ATOM     10  C   UNL     1      11.856   1.982  -2.380  0.00  0.00    +0.005 C 
ENDBRANCH  11   8
ENDBRANCH   3  11
ENDBRANCH  16  12
TORSDOF 7
ENDMDL
