REMARK  Name = 51137732
REMARK  3 active torsions:
REMARK  status: ('A' for Active; 'I' for Inactive)
REMARK    1  A    between atoms: C_6  and  C_10
REMARK    2  A    between atoms: C_9  and  C_14
REMARK    3  A    between atoms: C_15  and  C_16
REMARK                            x       y       z     vdW  Elec       q    Type
REMARK                         _______ _______ _______ _____ _____    ______ ____
ROOT
ATOM      2  O   UNL     1      -0.500   0.851  -0.201  0.00  0.00    -0.420 OA
ATOM      4  N   UNL     1      -0.972   3.007  -0.564  0.00  0.00    -0.112 NA
ATOM      5  N   UNL     1      -2.166   2.326  -0.425  0.00  0.00    -0.107 NA
ATOM     14  C   UNL     1      -0.026   2.107  -0.426  0.00  0.00    +0.222 A 
ATOM     15  C   UNL     1      -1.843   1.072  -0.215  0.00  0.00    +0.248 A 
ENDROOT
BRANCH  14   9
ATOM      1  O   UNL     1       3.416  -1.443   1.568  0.00  0.00    -0.275 OA
ATOM      3  N   UNL     1       2.642   0.369   0.353  0.00  0.00    -0.300 N 
ATOM      9  C   UNL     1       1.483   2.272  -0.482  0.00  0.00    +0.095 C 
ATOM     10  C   UNL     1       3.155  -0.909   0.494  0.00  0.00    +0.219 C 
ATOM     11  C   UNL     1       2.293   1.037  -0.899  0.00  0.00    +0.120 C 
ATOM     12  C   UNL     1       2.358   1.218   1.500  0.00  0.00    +0.108 C 
ATOM     13  C   UNL     1       2.068   2.589   0.903  0.00  0.00    +0.033 C 
BRANCH  10   6
ATOM      6  C   UNL     1       3.373  -1.683  -0.766  0.00  0.00    +0.075 C 
ATOM      7  C   UNL     1       3.345  -3.182  -0.714  0.00  0.00    +0.013 C 
ATOM      8  C   UNL     1       2.224  -2.433  -1.372  0.00  0.00    +0.013 C 
ENDBRANCH  10   6
ENDBRANCH  14   9
BRANCH  15  16
ATOM     16  C   UNL     1      -2.670  -0.080  -0.001  0.00  0.00    +0.038 A 
ATOM     17  C   UNL     1      -4.059   0.050   0.003  0.00  0.00    +0.013 A 
ATOM     18  C   UNL     1      -2.086  -1.330   0.204  0.00  0.00    +0.013 A 
ATOM     19  C   UNL     1      -4.864  -1.070   0.211  0.00  0.00    +0.001 A 
ATOM     20  C   UNL     1      -2.891  -2.450   0.412  0.00  0.00    +0.001 A 
ATOM     21  C   UNL     1      -4.280  -2.320   0.416  0.00  0.00    +0.000 A 
ENDBRANCH  15  16
TORSDOF 3
