MODEL 1
REMARK VINA RESULT:      -6.6      0.000      0.000
REMARK  Name = 45361432
REMARK  13 active torsions:
REMARK  status: ('A' for Active; 'I' for Inactive)
REMARK    1  A    between atoms: O_1  and  C_10
REMARK    2  A    between atoms: N_4  and  C_14
REMARK    3  A    between atoms: N_5  and  C_23
REMARK    4  A    between atoms: C_7  and  C_17
REMARK    5  A    between atoms: C_9  and  C_19
REMARK    6  A    between atoms: C_12  and  C_18
REMARK    7  A    between atoms: C_18  and  C_20
REMARK    8  A    between atoms: C_18  and  C_21
REMARK    9  A    between atoms: C_22  and  C_24
REMARK   10  A    between atoms: C_23  and  C_25
REMARK   11  A    between atoms: C_23  and  C_26
REMARK   12  A    between atoms: C_23  and  C_27
REMARK   13  A    between atoms: C_32  and  C_33
REMARK                            x       y       z     vdW  Elec       q    Type
REMARK                         _______ _______ _______ _____ _____    ______ ____
ROOT
ATOM      7  C   UNL     1      13.690   4.934  -0.347  0.00  0.00    -0.027 C 
ATOM      8  C   UNL     1      12.126   4.868  -0.322  0.00  0.00    +0.028 C 
ATOM      9  C   UNL     1      11.601   4.629   1.139  0.00  0.00    +0.012 C 
ATOM     10  C   UNL     1      11.586   3.882  -1.397  0.00  0.00    +0.122 C 
ATOM     11  C   UNL     1      14.169   5.283  -1.776  0.00  0.00    +0.007 C 
ATOM     12  C   UNL     1      12.151   4.172  -2.807  0.00  0.00    +0.029 C 
ATOM     13  C   UNL     1      14.162   6.065   0.596  0.00  0.00    +0.009 C 
ATOM     14  C   UNL     1      12.143   5.730   2.093  0.00  0.00    +0.076 C 
ATOM     15  C   UNL     1      13.674   4.297  -2.826  0.00  0.00    +0.007 C 
ATOM     16  C   UNL     1      13.660   5.900   2.024  0.00  0.00    +0.023 C 
ATOM     17  C   UNL     1      14.349   3.600   0.086  0.00  0.00    +0.011 C 
ATOM     19  C   UNL     1      10.067   4.581   1.242  0.00  0.00    +0.010 C 
ENDROOT
BRANCH  14   4
ATOM      3  O   UNL     1      10.450   7.358   3.743  0.00  0.00    -0.270 OA
ATOM      4  N   UNL     1      11.773   5.475   3.470  0.00  0.00    -0.308 N 
ATOM     22  C   UNL     1      10.946   6.325   4.184  0.00  0.00    +0.244 C 
ATOM     34  H   UNL     1      12.240   4.702   3.934  0.00  0.00    +0.149 HD
BRANCH  22  24
ATOM     24  C   UNL     1      10.684   5.937   5.593  0.00  0.00    +0.037 A 
ATOM     28  C   UNL     1       9.862   4.846   5.876  0.00  0.00    +0.014 A 
ATOM     29  C   UNL     1      11.261   6.663   6.636  0.00  0.00    +0.014 A 
ATOM     30  C   UNL     1       9.617   4.481   7.199  0.00  0.00    +0.019 A 
ATOM     31  C   UNL     1      11.016   6.299   7.959  0.00  0.00    +0.019 A 
ATOM     32  C   UNL     1      10.194   5.207   8.241  0.00  0.00    +0.052 A 
BRANCH  32  33
ATOM      6  N   UNL     1       9.739   4.529  10.699  0.00  0.00    -0.191 NA
ATOM     33  C   UNL     1       9.942   4.833   9.597  0.00  0.00    +0.099 C 
ENDBRANCH  32  33
ENDBRANCH  22  24
ENDBRANCH  14   4
BRANCH  10   1
ATOM      1  O   UNL     1      10.167   4.008  -1.491  0.00  0.00    -0.391 OA
ATOM     35  H   UNL     1       9.765   3.328  -0.923  0.00  0.00    +0.210 HD
ENDBRANCH  10   1
BRANCH  12  18
ATOM     18  C   UNL     1      11.711   3.112  -3.825  0.00  0.00    +0.077 C 
ATOM     20  C   UNL     1      12.872   2.760  -4.749  0.00  0.00    +0.017 C 
BRANCH  18  21
ATOM      2  O   UNL     1       9.779   2.870  -5.265  0.00  0.00    -0.275 OA
ATOM      5  N   UNL     1      10.339   4.989  -4.509  0.00  0.00    -0.310 N 
ATOM     21  C   UNL     1      10.506   3.616  -4.613  0.00  0.00    +0.217 C 
ATOM     36  H   UNL     1      11.004   5.525  -3.957  0.00  0.00    +0.149 HD
BRANCH   5  23
ATOM     23  C   UNL     1       9.268   5.699  -5.170  0.00  0.00    +0.026 C 
ATOM     25  C   UNL     1       9.426   7.203  -4.918  0.00  0.00    +0.031 C 
ATOM     26  C   UNL     1       9.333   5.414  -6.673  0.00  0.00    +0.031 C 
ATOM     27  C   UNL     1       7.924   5.223  -4.608  0.00  0.00    +0.031 C 
ENDBRANCH   5  23
ENDBRANCH  18  21
ENDBRANCH  12  18
TORSDOF 7
ENDMDL
MODEL 2
REMARK VINA RESULT:      -6.4     27.858     33.375
REMARK  Name = 45361432
REMARK  13 active torsions:
REMARK  status: ('A' for Active; 'I' for Inactive)
REMARK    1  A    between atoms: O_1  and  C_10
REMARK    2  A    between atoms: N_4  and  C_14
REMARK    3  A    between atoms: N_5  and  C_23
REMARK    4  A    between atoms: C_7  and  C_17
REMARK    5  A    between atoms: C_9  and  C_19
REMARK    6  A    between atoms: C_12  and  C_18
REMARK    7  A    between atoms: C_18  and  C_20
REMARK    8  A    between atoms: C_18  and  C_21
REMARK    9  A    between atoms: C_22  and  C_24
REMARK   10  A    between atoms: C_23  and  C_25
REMARK   11  A    between atoms: C_23  and  C_26
REMARK   12  A    between atoms: C_23  and  C_27
REMARK   13  A    between atoms: C_32  and  C_33
REMARK                            x       y       z     vdW  Elec       q    Type
REMARK                         _______ _______ _______ _____ _____    ______ ____
ROOT
ATOM      7  C   UNL     1     -15.239   8.323  21.282  0.00  0.00    -0.027 C 
ATOM      8  C   UNL     1     -14.123   7.233  21.157  0.00  0.00    +0.028 C 
ATOM      9  C   UNL     1     -14.166   6.249  22.381  0.00  0.00    +0.012 C 
ATOM     10  C   UNL     1     -12.737   7.876  20.864  0.00  0.00    +0.122 C 
ATOM     11  C   UNL     1     -15.244   9.205  20.010  0.00  0.00    +0.007 C 
ATOM     12  C   UNL     1     -12.772   8.838  19.654  0.00  0.00    +0.029 C 
ATOM     13  C   UNL     1     -16.617   7.627  21.376  0.00  0.00    +0.009 C 
ATOM     14  C   UNL     1     -15.578   5.611  22.510  0.00  0.00    +0.076 C 
ATOM     15  C   UNL     1     -13.898   9.867  19.742  0.00  0.00    +0.007 C 
ATOM     16  C   UNL     1     -16.709   6.638  22.530  0.00  0.00    +0.023 C 
ATOM     17  C   UNL     1     -15.044   9.236  22.519  0.00  0.00    +0.011 C 
ATOM     19  C   UNL     1     -13.111   5.131  22.309  0.00  0.00    +0.010 C 
ENDROOT
BRANCH  14   4
ATOM      3  O   UNL     1     -16.797   3.018  22.688  0.00  0.00    -0.270 OA
ATOM      4  N   UNL     1     -15.687   4.786  23.696  0.00  0.00    -0.308 N 
ATOM     22  C   UNL     1     -16.297   3.543  23.679  0.00  0.00    +0.244 C 
ATOM     34  H   UNL     1     -15.400   5.207  24.574  0.00  0.00    +0.149 HD
BRANCH  22  24
ATOM     24  C   UNL     1     -16.351   2.834  24.983  0.00  0.00    +0.037 A 
ATOM     28  C   UNL     1     -16.765   1.503  25.037  0.00  0.00    +0.014 A 
ATOM     29  C   UNL     1     -15.987   3.499  26.155  0.00  0.00    +0.014 A 
ATOM     30  C   UNL     1     -16.816   0.837  26.262  0.00  0.00    +0.019 A 
ATOM     31  C   UNL     1     -16.037   2.834  27.379  0.00  0.00    +0.019 A 
ATOM     32  C   UNL     1     -16.450   1.502  27.432  0.00  0.00    +0.052 A 
BRANCH  32  33
ATOM      6  N   UNL     1     -16.545   0.267  29.707  0.00  0.00    -0.191 NA
ATOM     33  C   UNL     1     -16.503   0.820  28.687  0.00  0.00    +0.099 C 
ENDBRANCH  32  33
ENDBRANCH  22  24
ENDBRANCH  14   4
BRANCH  10   1
ATOM      1  O   UNL     1     -11.794   6.852  20.546  0.00  0.00    -0.391 OA
ATOM     35  H   UNL     1     -12.205   6.255  19.896  0.00  0.00    +0.210 HD
ENDBRANCH  10   1
BRANCH  12  18
ATOM     18  C   UNL     1     -11.433   9.559  19.462  0.00  0.00    +0.077 C 
ATOM     20  C   UNL     1     -11.572  11.031  19.836  0.00  0.00    +0.017 C 
BRANCH  18  21
ATOM      2  O   UNL     1      -9.771   9.481  17.701  0.00  0.00    -0.275 OA
ATOM      5  N   UNL     1     -11.996   9.145  17.142  0.00  0.00    -0.310 N 
ATOM     21  C   UNL     1     -10.954   9.395  18.023  0.00  0.00    +0.217 C 
ATOM     36  H   UNL     1     -12.946   9.107  17.502  0.00  0.00    +0.149 HD
BRANCH   5  23
ATOM     23  C   UNL     1     -11.793   8.956  15.724  0.00  0.00    +0.026 C 
ATOM     25  C   UNL     1     -11.469  10.306  15.073  0.00  0.00    +0.031 C 
ATOM     26  C   UNL     1     -10.628   7.984  15.512  0.00  0.00    +0.031 C 
ATOM     27  C   UNL     1     -13.070   8.379  15.102  0.00  0.00    +0.031 C 
ENDBRANCH   5  23
ENDBRANCH  18  21
ENDBRANCH  12  18
TORSDOF 7
ENDMDL
MODEL 3
REMARK VINA RESULT:      -6.4     24.960     29.037
REMARK  Name = 45361432
REMARK  13 active torsions:
REMARK  status: ('A' for Active; 'I' for Inactive)
REMARK    1  A    between atoms: O_1  and  C_10
REMARK    2  A    between atoms: N_4  and  C_14
REMARK    3  A    between atoms: N_5  and  C_23
REMARK    4  A    between atoms: C_7  and  C_17
REMARK    5  A    between atoms: C_9  and  C_19
REMARK    6  A    between atoms: C_12  and  C_18
REMARK    7  A    between atoms: C_18  and  C_20
REMARK    8  A    between atoms: C_18  and  C_21
REMARK    9  A    between atoms: C_22  and  C_24
REMARK   10  A    between atoms: C_23  and  C_25
REMARK   11  A    between atoms: C_23  and  C_26
REMARK   12  A    between atoms: C_23  and  C_27
REMARK   13  A    between atoms: C_32  and  C_33
REMARK                            x       y       z     vdW  Elec       q    Type
REMARK                         _______ _______ _______ _____ _____    ______ ____
ROOT
ATOM      7  C   UNL     1      -4.775 -11.253  17.137  0.00  0.00    -0.027 C 
ATOM      8  C   UNL     1      -5.764 -10.531  16.162  0.00  0.00    +0.028 C 
ATOM      9  C   UNL     1      -7.227 -10.555  16.734  0.00  0.00    +0.012 C 
ATOM     10  C   UNL     1      -5.606 -11.057  14.707  0.00  0.00    +0.122 C 
ATOM     11  C   UNL     1      -3.330 -11.113  16.603  0.00  0.00    +0.007 C 
ATOM     12  C   UNL     1      -4.141 -11.012  14.215  0.00  0.00    +0.029 C 
ATOM     13  C   UNL     1      -4.834 -10.562  18.519  0.00  0.00    +0.009 C 
ATOM     14  C   UNL     1      -7.261  -9.925  18.155  0.00  0.00    +0.076 C 
ATOM     15  C   UNL     1      -3.162 -11.663  15.192  0.00  0.00    +0.007 C 
ATOM     16  C   UNL     1      -6.236 -10.531  19.112  0.00  0.00    +0.023 C 
ATOM     17  C   UNL     1      -5.099 -12.760  17.306  0.00  0.00    +0.011 C 
ATOM     19  C   UNL     1      -8.250  -9.836  15.837  0.00  0.00    +0.010 C 
ENDROOT
BRANCH  14   4
ATOM      3  O   UNL     1      -8.463 -12.304  19.222  0.00  0.00    -0.270 OA
ATOM      4  N   UNL     1      -8.573 -10.035  18.758  0.00  0.00    -0.308 N 
ATOM     22  C   UNL     1      -9.065 -11.234  19.247  0.00  0.00    +0.244 C 
ATOM     34  H   UNL     1      -9.171  -9.216  18.707  0.00  0.00    +0.149 HD
BRANCH  22  24
ATOM     24  C   UNL     1     -10.438 -11.185  19.811  0.00  0.00    +0.037 A 
ATOM     28  C   UNL     1     -11.030 -12.347  20.307  0.00  0.00    +0.014 A 
ATOM     29  C   UNL     1     -11.136  -9.977  19.848  0.00  0.00    +0.014 A 
ATOM     30  C   UNL     1     -12.319 -12.302  20.838  0.00  0.00    +0.019 A 
ATOM     31  C   UNL     1     -12.424  -9.931  20.379  0.00  0.00    +0.019 A 
ATOM     32  C   UNL     1     -13.015 -11.093  20.875  0.00  0.00    +0.052 A 
BRANCH  32  33
ATOM      6  N   UNL     1     -15.409 -11.010  21.861  0.00  0.00    -0.191 NA
ATOM     33  C   UNL     1     -14.336 -11.047  21.419  0.00  0.00    +0.099 C 
ENDBRANCH  32  33
ENDBRANCH  22  24
ENDBRANCH  14   4
BRANCH  10   1
ATOM      1  O   UNL     1      -6.361 -10.234  13.817  0.00  0.00    -0.391 OA
ATOM     35  H   UNL     1      -7.298 -10.482  13.899  0.00  0.00    +0.210 HD
ENDBRANCH  10   1
BRANCH  12  18
ATOM     18  C   UNL     1      -3.985 -11.653  12.831  0.00  0.00    +0.077 C 
ATOM     20  C   UNL     1      -2.730 -12.518  12.792  0.00  0.00    +0.017 C 
BRANCH  18  21
ATOM      2  O   UNL     1      -2.936  -9.920  11.503  0.00  0.00    -0.275 OA
ATOM      5  N   UNL     1      -5.169 -10.413  11.118  0.00  0.00    -0.310 N 
ATOM     21  C   UNL     1      -3.947 -10.571  11.756  0.00  0.00    +0.217 C 
ATOM     36  H   UNL     1      -5.954 -10.990  11.408  0.00  0.00    +0.149 HD
BRANCH   5  23
ATOM     23  C   UNL     1      -5.381  -9.446  10.065  0.00  0.00    +0.026 C 
ATOM     25  C   UNL     1      -6.843  -9.511   9.605  0.00  0.00    +0.031 C 
ATOM     26  C   UNL     1      -5.067  -8.047  10.600  0.00  0.00    +0.031 C 
ATOM     27  C   UNL     1      -4.457  -9.772   8.886  0.00  0.00    +0.031 C 
ENDBRANCH   5  23
ENDBRANCH  18  21
ENDBRANCH  12  18
TORSDOF 7
ENDMDL
MODEL 4
REMARK VINA RESULT:      -6.3     23.685     27.221
REMARK  Name = 45361432
REMARK  13 active torsions:
REMARK  status: ('A' for Active; 'I' for Inactive)
REMARK    1  A    between atoms: O_1  and  C_10
REMARK    2  A    between atoms: N_4  and  C_14
REMARK    3  A    between atoms: N_5  and  C_23
REMARK    4  A    between atoms: C_7  and  C_17
REMARK    5  A    between atoms: C_9  and  C_19
REMARK    6  A    between atoms: C_12  and  C_18
REMARK    7  A    between atoms: C_18  and  C_20
REMARK    8  A    between atoms: C_18  and  C_21
REMARK    9  A    between atoms: C_22  and  C_24
REMARK   10  A    between atoms: C_23  and  C_25
REMARK   11  A    between atoms: C_23  and  C_26
REMARK   12  A    between atoms: C_23  and  C_27
REMARK   13  A    between atoms: C_32  and  C_33
REMARK                            x       y       z     vdW  Elec       q    Type
REMARK                         _______ _______ _______ _____ _____    ______ ____
ROOT
ATOM      7  C   UNL     1      -3.390 -11.717  11.778  0.00  0.00    -0.027 C 
ATOM      8  C   UNL     1      -4.724 -11.113  12.331  0.00  0.00    +0.028 C 
ATOM      9  C   UNL     1      -5.450 -10.261  11.229  0.00  0.00    +0.012 C 
ATOM     10  C   UNL     1      -4.495 -10.392  13.691  0.00  0.00    +0.122 C 
ATOM     11  C   UNL     1      -2.759 -12.640  12.848  0.00  0.00    +0.007 C 
ATOM     12  C   UNL     1      -3.769 -11.286  14.723  0.00  0.00    +0.029 C 
ATOM     13  C   UNL     1      -3.706 -12.584  10.537  0.00  0.00    +0.009 C 
ATOM     14  C   UNL     1      -5.695 -11.122   9.958  0.00  0.00    +0.076 C 
ATOM     15  C   UNL     1      -2.498 -11.927  14.169  0.00  0.00    +0.007 C 
ATOM     16  C   UNL     1      -4.435 -11.817   9.443  0.00  0.00    +0.023 C 
ATOM     17  C   UNL     1      -2.359 -10.627  11.391  0.00  0.00    +0.011 C 
ATOM     19  C   UNL     1      -6.785  -9.658  11.697  0.00  0.00    +0.010 C 
ENDROOT
BRANCH  14   4
ATOM      3  O   UNL     1      -7.632 -11.999   8.029  0.00  0.00    -0.270 OA
ATOM      4  N   UNL     1      -6.258 -10.336   8.879  0.00  0.00    -0.308 N 
ATOM     22  C   UNL     1      -7.192 -10.853   7.997  0.00  0.00    +0.244 C 
ATOM     34  H   UNL     1      -5.854  -9.418   8.722  0.00  0.00    +0.149 HD
BRANCH  22  24
ATOM     24  C   UNL     1      -7.652  -9.928   6.930  0.00  0.00    +0.037 A 
ATOM     28  C   UNL     1      -9.014  -9.671   6.768  0.00  0.00    +0.014 A 
ATOM     29  C   UNL     1      -6.722  -9.314   6.090  0.00  0.00    +0.014 A 
ATOM     30  C   UNL     1      -9.445  -8.801   5.767  0.00  0.00    +0.019 A 
ATOM     31  C   UNL     1      -7.153  -8.445   5.089  0.00  0.00    +0.019 A 
ATOM     32  C   UNL     1      -8.515  -8.187   4.928  0.00  0.00    +0.052 A 
BRANCH  32  33
ATOM      6  N   UNL     1      -9.316  -6.574   3.067  0.00  0.00    -0.191 NA
ATOM     33  C   UNL     1      -8.957  -7.297   3.901  0.00  0.00    +0.099 C 
ENDBRANCH  32  33
ENDBRANCH  22  24
ENDBRANCH  14   4
BRANCH  10   1
ATOM      1  O   UNL     1      -5.755 -10.044  14.265  0.00  0.00    -0.391 OA
ATOM     35  H   UNL     1      -5.921  -9.103  14.082  0.00  0.00    +0.210 HD
ENDBRANCH  10   1
BRANCH  12  18
ATOM     18  C   UNL     1      -3.437 -10.517  16.008  0.00  0.00    +0.077 C 
ATOM     20  C   UNL     1      -1.956 -10.664  16.339  0.00  0.00    +0.017 C 
BRANCH  18  21
ATOM      2  O   UNL     1      -3.924 -11.831  17.983  0.00  0.00    -0.275 OA
ATOM      5  N   UNL     1      -5.578 -10.441  17.140  0.00  0.00    -0.310 N 
ATOM     21  C   UNL     1      -4.314 -11.013  17.153  0.00  0.00    +0.217 C 
ATOM     36  H   UNL     1      -5.813  -9.784  16.401  0.00  0.00    +0.149 HD
BRANCH   5  23
ATOM     23  C   UNL     1      -6.589 -10.756  18.123  0.00  0.00    +0.026 C 
ATOM     25  C   UNL     1      -6.053 -10.429  19.522  0.00  0.00    +0.031 C 
ATOM     26  C   UNL     1      -7.841  -9.922  17.838  0.00  0.00    +0.031 C 
ATOM     27  C   UNL     1      -6.929 -12.248  18.040  0.00  0.00    +0.031 C 
ENDBRANCH   5  23
ENDBRANCH  18  21
ENDBRANCH  12  18
TORSDOF 7
ENDMDL
MODEL 5
REMARK VINA RESULT:      -6.3     24.502     28.500
REMARK  Name = 45361432
REMARK  13 active torsions:
REMARK  status: ('A' for Active; 'I' for Inactive)
REMARK    1  A    between atoms: O_1  and  C_10
REMARK    2  A    between atoms: N_4  and  C_14
REMARK    3  A    between atoms: N_5  and  C_23
REMARK    4  A    between atoms: C_7  and  C_17
REMARK    5  A    between atoms: C_9  and  C_19
REMARK    6  A    between atoms: C_12  and  C_18
REMARK    7  A    between atoms: C_18  and  C_20
REMARK    8  A    between atoms: C_18  and  C_21
REMARK    9  A    between atoms: C_22  and  C_24
REMARK   10  A    between atoms: C_23  and  C_25
REMARK   11  A    between atoms: C_23  and  C_26
REMARK   12  A    between atoms: C_23  and  C_27
REMARK   13  A    between atoms: C_32  and  C_33
REMARK                            x       y       z     vdW  Elec       q    Type
REMARK                         _______ _______ _______ _____ _____    ______ ____
ROOT
ATOM      7  C   UNL     1      -4.764 -10.960  16.741  0.00  0.00    -0.027 C 
ATOM      8  C   UNL     1      -5.743 -10.373  15.672  0.00  0.00    +0.028 C 
ATOM      9  C   UNL     1      -7.235 -10.514  16.144  0.00  0.00    +0.012 C 
ATOM     10  C   UNL     1      -5.434 -10.935  14.254  0.00  0.00    +0.122 C 
ATOM     11  C   UNL     1      -3.303 -10.704  16.300  0.00  0.00    +0.007 C 
ATOM     12  C   UNL     1      -3.949 -10.769  13.860  0.00  0.00    +0.029 C 
ATOM     13  C   UNL     1      -4.984 -10.226  18.085  0.00  0.00    +0.009 C 
ATOM     14  C   UNL     1      -7.428  -9.837  17.531  0.00  0.00    +0.076 C 
ATOM     15  C   UNL     1      -2.986 -11.287  14.928  0.00  0.00    +0.007 C 
ATOM     16  C   UNL     1      -6.421 -10.307  18.580  0.00  0.00    +0.023 C 
ATOM     17  C   UNL     1      -4.959 -12.483  16.954  0.00  0.00    +0.011 C 
ATOM     19  C   UNL     1      -8.254  -9.930  15.150  0.00  0.00    +0.010 C 
ENDROOT
BRANCH  14   4
ATOM      3  O   UNL     1      -9.601  -7.962  17.486  0.00  0.00    -0.270 OA
ATOM      4  N   UNL     1      -8.763 -10.049  18.049  0.00  0.00    -0.308 N 
ATOM     22  C   UNL     1      -9.747  -9.077  17.980  0.00  0.00    +0.244 C 
ATOM     34  H   UNL     1      -8.920 -10.903  18.574  0.00  0.00    +0.149 HD
BRANCH  22  24
ATOM     24  C   UNL     1     -11.055  -9.440  18.581  0.00  0.00    +0.037 A 
ATOM     28  C   UNL     1     -11.116  -9.900  19.897  0.00  0.00    +0.014 A 
ATOM     29  C   UNL     1     -12.226  -9.319  17.830  0.00  0.00    +0.014 A 
ATOM     30  C   UNL     1     -12.345 -10.239  20.461  0.00  0.00    +0.019 A 
ATOM     31  C   UNL     1     -13.455  -9.658  18.394  0.00  0.00    +0.019 A 
ATOM     32  C   UNL     1     -13.515 -10.117  19.711  0.00  0.00    +0.052 A 
BRANCH  32  33
ATOM      6  N   UNL     1     -15.797 -10.750  20.759  0.00  0.00    -0.191 NA
ATOM     33  C   UNL     1     -14.774 -10.466  20.289  0.00  0.00    +0.099 C 
ENDBRANCH  32  33
ENDBRANCH  22  24
ENDBRANCH  14   4
BRANCH  10   1
ATOM      1  O   UNL     1      -6.198 -10.221  13.281  0.00  0.00    -0.391 OA
ATOM     35  H   UNL     1      -6.634 -10.872  12.704  0.00  0.00    +0.210 HD
ENDBRANCH  10   1
BRANCH  12  18
ATOM     18  C   UNL     1      -3.637 -11.445  12.520  0.00  0.00    +0.077 C 
ATOM     20  C   UNL     1      -2.245 -12.066  12.556  0.00  0.00    +0.017 C 
BRANCH  18  21
ATOM      2  O   UNL     1      -2.856  -9.664  11.075  0.00  0.00    -0.275 OA
ATOM      5  N   UNL     1      -5.002 -10.484  10.762  0.00  0.00    -0.310 N 
ATOM     21  C   UNL     1      -3.764 -10.433  11.385  0.00  0.00    +0.217 C 
ATOM     36  H   UNL     1      -5.695 -11.147  11.101  0.00  0.00    +0.149 HD
BRANCH   5  23
ATOM     23  C   UNL     1      -5.360  -9.621   9.661  0.00  0.00    +0.026 C 
ATOM     25  C   UNL     1      -5.161  -8.159  10.078  0.00  0.00    +0.031 C 
ATOM     26  C   UNL     1      -4.466  -9.945   8.460  0.00  0.00    +0.031 C 
ATOM     27  C   UNL     1      -6.830  -9.854   9.292  0.00  0.00    +0.031 C 
ENDBRANCH   5  23
ENDBRANCH  18  21
ENDBRANCH  12  18
TORSDOF 7
ENDMDL
MODEL 6
REMARK VINA RESULT:      -6.3     27.383     32.646
REMARK  Name = 45361432
REMARK  13 active torsions:
REMARK  status: ('A' for Active; 'I' for Inactive)
REMARK    1  A    between atoms: O_1  and  C_10
REMARK    2  A    between atoms: N_4  and  C_14
REMARK    3  A    between atoms: N_5  and  C_23
REMARK    4  A    between atoms: C_7  and  C_17
REMARK    5  A    between atoms: C_9  and  C_19
REMARK    6  A    between atoms: C_12  and  C_18
REMARK    7  A    between atoms: C_18  and  C_20
REMARK    8  A    between atoms: C_18  and  C_21
REMARK    9  A    between atoms: C_22  and  C_24
REMARK   10  A    between atoms: C_23  and  C_25
REMARK   11  A    between atoms: C_23  and  C_26
REMARK   12  A    between atoms: C_23  and  C_27
REMARK   13  A    between atoms: C_32  and  C_33
REMARK                            x       y       z     vdW  Elec       q    Type
REMARK                         _______ _______ _______ _____ _____    ______ ____
ROOT
ATOM      7  C   UNL     1     -14.826   8.225  19.761  0.00  0.00    -0.027 C 
ATOM      8  C   UNL     1     -13.797   7.095  20.097  0.00  0.00    +0.028 C 
ATOM      9  C   UNL     1     -13.982   6.593  21.574  0.00  0.00    +0.012 C 
ATOM     10  C   UNL     1     -12.350   7.516  19.709  0.00  0.00    +0.122 C 
ATOM     11  C   UNL     1     -14.694   8.617  18.270  0.00  0.00    +0.007 C 
ATOM     12  C   UNL     1     -12.245   8.005  18.246  0.00  0.00    +0.029 C 
ATOM     13  C   UNL     1     -16.258   7.685  19.981  0.00  0.00    +0.009 C 
ATOM     14  C   UNL     1     -15.445   6.122  21.804  0.00  0.00    +0.076 C 
ATOM     15  C   UNL     1     -13.287   9.067  17.896  0.00  0.00    +0.007 C 
ATOM     16  C   UNL     1     -16.489   7.159  21.390  0.00  0.00    +0.023 C 
ATOM     17  C   UNL     1     -14.620   9.494  20.628  0.00  0.00    +0.011 C 
ATOM     19  C   UNL     1     -13.018   5.459  21.964  0.00  0.00    +0.010 C 
ENDROOT
BRANCH  14   4
ATOM      3  O   UNL     1     -16.465   3.619  22.773  0.00  0.00    -0.270 OA
ATOM      4  N   UNL     1     -15.681   5.761  23.187  0.00  0.00    -0.308 N 
ATOM     22  C   UNL     1     -16.178   4.522  23.554  0.00  0.00    +0.244 C 
ATOM     34  H   UNL     1     -15.576   6.499  23.877  0.00  0.00    +0.149 HD
BRANCH  22  24
ATOM     24  C   UNL     1     -16.389   4.317  25.009  0.00  0.00    +0.037 A 
ATOM     28  C   UNL     1     -17.074   5.275  25.757  0.00  0.00    +0.014 A 
ATOM     29  C   UNL     1     -15.902   3.166  25.630  0.00  0.00    +0.014 A 
ATOM     30  C   UNL     1     -17.273   5.082  27.124  0.00  0.00    +0.019 A 
ATOM     31  C   UNL     1     -16.101   2.973  26.996  0.00  0.00    +0.019 A 
ATOM     32  C   UNL     1     -16.788   3.930  27.744  0.00  0.00    +0.052 A 
BRANCH  32  33
ATOM      6  N   UNL     1     -17.156   3.571  30.282  0.00  0.00    -0.191 NA
ATOM     33  C   UNL     1     -16.991   3.733  29.144  0.00  0.00    +0.099 C 
ENDBRANCH  32  33
ENDBRANCH  22  24
ENDBRANCH  14   4
BRANCH  10   1
ATOM      1  O   UNL     1     -11.478   6.391  19.827  0.00  0.00    -0.391 OA
ATOM     35  H   UNL     1     -10.646   6.606  19.372  0.00  0.00    +0.210 HD
ENDBRANCH  10   1
BRANCH  12  18
ATOM     18  C   UNL     1     -10.844   8.538  17.924  0.00  0.00    +0.077 C 
ATOM     20  C   UNL     1     -10.514   9.724  18.822  0.00  0.00    +0.017 C 
BRANCH  18  21
ATOM      2  O   UNL     1     -10.119   9.887  16.047  0.00  0.00    -0.275 OA
ATOM      5  N   UNL     1     -11.477   8.053  15.635  0.00  0.00    -0.310 N 
ATOM     21  C   UNL     1     -10.758   8.917  16.448  0.00  0.00    +0.217 C 
ATOM     36  H   UNL     1     -11.987   7.285  16.062  0.00  0.00    +0.149 HD
BRANCH   5  23
ATOM     23  C   UNL     1     -11.549   8.209  14.200  0.00  0.00    +0.026 C 
ATOM     25  C   UNL     1     -12.766   7.443  13.668  0.00  0.00    +0.031 C 
ATOM     26  C   UNL     1     -11.684   9.697  13.865  0.00  0.00    +0.031 C 
ATOM     27  C   UNL     1     -10.271   7.647  13.566  0.00  0.00    +0.031 C 
ENDBRANCH   5  23
ENDBRANCH  18  21
ENDBRANCH  12  18
TORSDOF 7
ENDMDL
MODEL 7
REMARK VINA RESULT:      -6.2     23.538     24.243
REMARK  Name = 45361432
REMARK  13 active torsions:
REMARK  status: ('A' for Active; 'I' for Inactive)
REMARK    1  A    between atoms: O_1  and  C_10
REMARK    2  A    between atoms: N_4  and  C_14
REMARK    3  A    between atoms: N_5  and  C_23
REMARK    4  A    between atoms: C_7  and  C_17
REMARK    5  A    between atoms: C_9  and  C_19
REMARK    6  A    between atoms: C_12  and  C_18
REMARK    7  A    between atoms: C_18  and  C_20
REMARK    8  A    between atoms: C_18  and  C_21
REMARK    9  A    between atoms: C_22  and  C_24
REMARK   10  A    between atoms: C_23  and  C_25
REMARK   11  A    between atoms: C_23  and  C_26
REMARK   12  A    between atoms: C_23  and  C_27
REMARK   13  A    between atoms: C_32  and  C_33
REMARK                            x       y       z     vdW  Elec       q    Type
REMARK                         _______ _______ _______ _____ _____    ______ ____
ROOT
ATOM      7  C   UNL     1      -5.806 -11.388   6.338  0.00  0.00    -0.027 C 
ATOM      8  C   UNL     1      -5.945  -9.937   6.908  0.00  0.00    +0.028 C 
ATOM      9  C   UNL     1      -5.846  -9.942   8.476  0.00  0.00    +0.012 C 
ATOM     10  C   UNL     1      -7.191  -9.216   6.319  0.00  0.00    +0.122 C 
ATOM     11  C   UNL     1      -5.793 -11.336   4.792  0.00  0.00    +0.007 C 
ATOM     12  C   UNL     1      -7.226  -9.258   4.773  0.00  0.00    +0.029 C 
ATOM     13  C   UNL     1      -4.457 -11.985   6.800  0.00  0.00    +0.009 C 
ATOM     14  C   UNL     1      -4.519 -10.612   8.931  0.00  0.00    +0.076 C 
ATOM     15  C   UNL     1      -7.031 -10.665   4.210  0.00  0.00    +0.007 C 
ATOM     16  C   UNL     1      -4.292 -11.991   8.313  0.00  0.00    +0.023 C 
ATOM     17  C   UNL     1      -6.959 -12.319   6.795  0.00  0.00    +0.011 C 
ATOM     19  C   UNL     1      -5.947  -8.541   9.104  0.00  0.00    +0.010 C 
ENDROOT
BRANCH  14   4
ATOM      3  O   UNL     1      -2.509  -9.497  10.652  0.00  0.00    -0.270 OA
ATOM      4  N   UNL     1      -4.448 -10.738  10.372  0.00  0.00    -0.308 N 
ATOM     22  C   UNL     1      -3.433 -10.160  11.116  0.00  0.00    +0.244 C 
ATOM     34  H   UNL     1      -5.112 -11.368  10.810  0.00  0.00    +0.149 HD
BRANCH  22  24
ATOM     24  C   UNL     1      -3.488 -10.403  12.580  0.00  0.00    +0.037 A 
ATOM     28  C   UNL     1      -4.720 -10.464  13.232  0.00  0.00    +0.014 A 
ATOM     29  C   UNL     1      -2.307 -10.574  13.304  0.00  0.00    +0.014 A 
ATOM     30  C   UNL     1      -4.772 -10.694  14.607  0.00  0.00    +0.019 A 
ATOM     31  C   UNL     1      -2.358 -10.804  14.678  0.00  0.00    +0.019 A 
ATOM     32  C   UNL     1      -3.591 -10.865  15.329  0.00  0.00    +0.052 A 
BRANCH  32  33
ATOM      6  N   UNL     1      -3.687 -11.292  17.882  0.00  0.00    -0.191 NA
ATOM     33  C   UNL     1      -3.643 -11.100  16.738  0.00  0.00    +0.099 C 
ENDBRANCH  32  33
ENDBRANCH  22  24
ENDBRANCH  14   4
BRANCH  10   1
ATOM      1  O   UNL     1      -7.164  -7.837   6.690  0.00  0.00    -0.391 OA
ATOM     35  H   UNL     1      -6.890  -7.781   7.622  0.00  0.00    +0.210 HD
ENDBRANCH  10   1
BRANCH  12  18
ATOM     18  C   UNL     1      -8.523  -8.659   4.217  0.00  0.00    +0.077 C 
ATOM     20  C   UNL     1      -9.728  -9.410   4.773  0.00  0.00    +0.017 C 
BRANCH  18  21
ATOM      2  O   UNL     1      -7.602  -8.181   2.028  0.00  0.00    -0.275 OA
ATOM      5  N   UNL     1      -9.596  -9.358   2.160  0.00  0.00    -0.310 N 
ATOM     21  C   UNL     1      -8.501  -8.694   2.692  0.00  0.00    +0.217 C 
ATOM     36  H   UNL     1     -10.297  -9.736   2.792  0.00  0.00    +0.149 HD
BRANCH   5  23
ATOM     23  C   UNL     1      -9.798  -9.519   0.738  0.00  0.00    +0.026 C 
ATOM     25  C   UNL     1      -9.845  -8.138   0.073  0.00  0.00    +0.031 C 
ATOM     26  C   UNL     1      -8.640 -10.336   0.159  0.00  0.00    +0.031 C 
ATOM     27  C   UNL     1     -11.123 -10.251   0.495  0.00  0.00    +0.031 C 
ENDBRANCH   5  23
ENDBRANCH  18  21
ENDBRANCH  12  18
TORSDOF 7
ENDMDL
MODEL 8
REMARK VINA RESULT:      -6.2     21.575     23.506
REMARK  Name = 45361432
REMARK  13 active torsions:
REMARK  status: ('A' for Active; 'I' for Inactive)
REMARK    1  A    between atoms: O_1  and  C_10
REMARK    2  A    between atoms: N_4  and  C_14
REMARK    3  A    between atoms: N_5  and  C_23
REMARK    4  A    between atoms: C_7  and  C_17
REMARK    5  A    between atoms: C_9  and  C_19
REMARK    6  A    between atoms: C_12  and  C_18
REMARK    7  A    between atoms: C_18  and  C_20
REMARK    8  A    between atoms: C_18  and  C_21
REMARK    9  A    between atoms: C_22  and  C_24
REMARK   10  A    between atoms: C_23  and  C_25
REMARK   11  A    between atoms: C_23  and  C_26
REMARK   12  A    between atoms: C_23  and  C_27
REMARK   13  A    between atoms: C_32  and  C_33
REMARK                            x       y       z     vdW  Elec       q    Type
REMARK                         _______ _______ _______ _____ _____    ______ ____
ROOT
ATOM      7  C   UNL     1      21.765   7.067  22.691  0.00  0.00    -0.027 C 
ATOM      8  C   UNL     1      21.112   6.507  21.384  0.00  0.00    +0.028 C 
ATOM      9  C   UNL     1      19.546   6.615  21.452  0.00  0.00    +0.012 C 
ATOM     10  C   UNL     1      21.671   5.098  21.033  0.00  0.00    +0.122 C 
ATOM     11  C   UNL     1      23.305   7.052  22.545  0.00  0.00    +0.007 C 
ATOM     12  C   UNL     1      23.216   5.065  20.991  0.00  0.00    +0.029 C 
ATOM     13  C   UNL     1      21.326   8.537  22.885  0.00  0.00    +0.009 C 
ATOM     14  C   UNL     1      19.118   8.085  21.722  0.00  0.00    +0.076 C 
ATOM     15  C   UNL     1      23.860   5.666  22.240  0.00  0.00    +0.007 C 
ATOM     16  C   UNL     1      19.814   8.707  22.932  0.00  0.00    +0.023 C 
ATOM     17  C   UNL     1      21.377   6.248  23.948  0.00  0.00    +0.011 C 
ATOM     19  C   UNL     1      18.838   6.106  20.185  0.00  0.00    +0.010 C 
ENDROOT
BRANCH  14   4
ATOM      3  O   UNL     1      17.391  10.049  20.537  0.00  0.00    -0.270 OA
ATOM      4  N   UNL     1      17.687   8.202  21.906  0.00  0.00    -0.308 N 
ATOM     22  C   UNL     1      16.938   9.189  21.287  0.00  0.00    +0.244 C 
ATOM     34  H   UNL     1      17.264   7.597  22.604  0.00  0.00    +0.149 HD
BRANCH  22  24
ATOM     24  C   UNL     1      15.487   9.189  21.600  0.00  0.00    +0.037 A 
ATOM     28  C   UNL     1      14.728   8.036  21.396  0.00  0.00    +0.014 A 
ATOM     29  C   UNL     1      14.881  10.342  22.100  0.00  0.00    +0.014 A 
ATOM     30  C   UNL     1      13.365   8.036  21.691  0.00  0.00    +0.019 A 
ATOM     31  C   UNL     1      13.518  10.343  22.395  0.00  0.00    +0.019 A 
ATOM     32  C   UNL     1      12.760   9.189  22.191  0.00  0.00    +0.052 A 
BRANCH  32  33
ATOM      6  N   UNL     1      10.229   9.189  22.738  0.00  0.00    -0.191 NA
ATOM     33  C   UNL     1      11.363   9.190  22.493  0.00  0.00    +0.099 C 
ENDBRANCH  32  33
ENDBRANCH  22  24
ENDBRANCH  14   4
BRANCH  10   1
ATOM      1  O   UNL     1      21.218   4.716  19.733  0.00  0.00    -0.391 OA
ATOM     35  H   UNL     1      20.551   4.016  19.840  0.00  0.00    +0.210 HD
ENDBRANCH  10   1
BRANCH  12  18
ATOM     18  C   UNL     1      23.749   3.644  20.773  0.00  0.00    +0.077 C 
ATOM     20  C   UNL     1      23.526   2.803  22.026  0.00  0.00    +0.017 C 
BRANCH  18  21
ATOM      2  O   UNL     1      26.059   2.920  20.859  0.00  0.00    -0.275 OA
ATOM      5  N   UNL     1      25.505   4.701  19.480  0.00  0.00    -0.310 N 
ATOM     21  C   UNL     1      25.225   3.694  20.393  0.00  0.00    +0.217 C 
ATOM     36  H   UNL     1      24.749   5.302  19.164  0.00  0.00    +0.149 HD
BRANCH   5  23
ATOM     23  C   UNL     1      26.835   4.947  18.971  0.00  0.00    +0.026 C 
ATOM     25  C   UNL     1      27.765   5.304  20.137  0.00  0.00    +0.031 C 
ATOM     26  C   UNL     1      27.343   3.685  18.269  0.00  0.00    +0.031 C 
ATOM     27  C   UNL     1      26.788   6.113  17.977  0.00  0.00    +0.031 C 
ENDBRANCH   5  23
ENDBRANCH  18  21
ENDBRANCH  12  18
TORSDOF 7
ENDMDL
MODEL 9
REMARK VINA RESULT:      -6.1      4.671      7.471
REMARK  Name = 45361432
REMARK  13 active torsions:
REMARK  status: ('A' for Active; 'I' for Inactive)
REMARK    1  A    between atoms: O_1  and  C_10
REMARK    2  A    between atoms: N_4  and  C_14
REMARK    3  A    between atoms: N_5  and  C_23
REMARK    4  A    between atoms: C_7  and  C_17
REMARK    5  A    between atoms: C_9  and  C_19
REMARK    6  A    between atoms: C_12  and  C_18
REMARK    7  A    between atoms: C_18  and  C_20
REMARK    8  A    between atoms: C_18  and  C_21
REMARK    9  A    between atoms: C_22  and  C_24
REMARK   10  A    between atoms: C_23  and  C_25
REMARK   11  A    between atoms: C_23  and  C_26
REMARK   12  A    between atoms: C_23  and  C_27
REMARK   13  A    between atoms: C_32  and  C_33
REMARK                            x       y       z     vdW  Elec       q    Type
REMARK                         _______ _______ _______ _____ _____    ______ ____
ROOT
ATOM      7  C   UNL     1       9.773   6.101   5.398  0.00  0.00    -0.027 C 
ATOM      8  C   UNL     1      10.439   7.390   4.812  0.00  0.00    +0.028 C 
ATOM      9  C   UNL     1       9.837   8.680   5.476  0.00  0.00    +0.012 C 
ATOM     10  C   UNL     1      10.430   7.373   3.256  0.00  0.00    +0.122 C 
ATOM     11  C   UNL     1      10.465   4.849   4.808  0.00  0.00    +0.007 C 
ATOM     12  C   UNL     1      11.029   6.072   2.673  0.00  0.00    +0.029 C 
ATOM     13  C   UNL     1       9.982   6.076   6.929  0.00  0.00    +0.009 C 
ATOM     14  C   UNL     1       9.987   8.610   7.022  0.00  0.00    +0.076 C 
ATOM     15  C   UNL     1      10.424   4.809   3.285  0.00  0.00    +0.007 C 
ATOM     16  C   UNL     1       9.442   7.317   7.627  0.00  0.00    +0.023 C 
ATOM     17  C   UNL     1       8.256   6.023   5.089  0.00  0.00    +0.011 C 
ATOM     19  C   UNL     1      10.469   9.987   4.965  0.00  0.00    +0.010 C 
ENDROOT
BRANCH  14   4
ATOM      3  O   UNL     1      11.170  10.402   8.928  0.00  0.00    -0.270 OA
ATOM      4  N   UNL     1       9.339   9.729   7.674  0.00  0.00    -0.308 N 
ATOM     22  C   UNL     1       9.999  10.539   8.584  0.00  0.00    +0.244 C 
ATOM     34  H   UNL     1       8.340   9.831   7.525  0.00  0.00    +0.149 HD
BRANCH  22  24
ATOM     24  C   UNL     1       9.188  11.628   9.185  0.00  0.00    +0.037 A 
ATOM     28  C   UNL     1       8.909  11.617  10.552  0.00  0.00    +0.014 A 
ATOM     29  C   UNL     1       8.706  12.664   8.383  0.00  0.00    +0.014 A 
ATOM     30  C   UNL     1       8.148  12.641  11.116  0.00  0.00    +0.019 A 
ATOM     31  C   UNL     1       7.946  13.687   8.947  0.00  0.00    +0.019 A 
ATOM     32  C   UNL     1       7.667  13.676  10.314  0.00  0.00    +0.052 A 
BRANCH  32  33
ATOM      6  N   UNL     1       6.254  15.577  11.362  0.00  0.00    -0.191 NA
ATOM     33  C   UNL     1       6.887  14.725  10.892  0.00  0.00    +0.099 C 
ENDBRANCH  32  33
ENDBRANCH  22  24
ENDBRANCH  14   4
BRANCH  10   1
ATOM      1  O   UNL     1      11.230   8.448   2.762  0.00  0.00    -0.391 OA
ATOM     35  H   UNL     1      12.136   8.117   2.636  0.00  0.00    +0.210 HD
ENDBRANCH  10   1
BRANCH  12  18
ATOM     18  C   UNL     1      10.892   6.017   1.147  0.00  0.00    +0.077 C 
ATOM     20  C   UNL     1       9.973   4.869   0.744  0.00  0.00    +0.017 C 
BRANCH  18  21
ATOM      2  O   UNL     1      12.599   6.496  -0.504  0.00  0.00    -0.275 OA
ATOM      5  N   UNL     1      13.083   4.982   1.184  0.00  0.00    -0.310 N 
ATOM     21  C   UNL     1      12.269   5.877   0.505  0.00  0.00    +0.217 C 
ATOM     36  H   UNL     1      12.715   4.506   2.003  0.00  0.00    +0.149 HD
BRANCH   5  23
ATOM     23  C   UNL     1      14.433   4.681   0.766  0.00  0.00    +0.026 C 
ATOM     25  C   UNL     1      14.996   3.556   1.642  0.00  0.00    +0.031 C 
ATOM     26  C   UNL     1      14.415   4.237  -0.700  0.00  0.00    +0.031 C 
ATOM     27  C   UNL     1      15.302   5.934   0.919  0.00  0.00    +0.031 C 
ENDBRANCH   5  23
ENDBRANCH  18  21
ENDBRANCH  12  18
TORSDOF 7
ENDMDL
MODEL 10
REMARK VINA RESULT:      -6.1     23.936     27.628
REMARK  Name = 45361432
REMARK  13 active torsions:
REMARK  status: ('A' for Active; 'I' for Inactive)
REMARK    1  A    between atoms: O_1  and  C_10
REMARK    2  A    between atoms: N_4  and  C_14
REMARK    3  A    between atoms: N_5  and  C_23
REMARK    4  A    between atoms: C_7  and  C_17
REMARK    5  A    between atoms: C_9  and  C_19
REMARK    6  A    between atoms: C_12  and  C_18
REMARK    7  A    between atoms: C_18  and  C_20
REMARK    8  A    between atoms: C_18  and  C_21
REMARK    9  A    between atoms: C_22  and  C_24
REMARK   10  A    between atoms: C_23  and  C_25
REMARK   11  A    between atoms: C_23  and  C_26
REMARK   12  A    between atoms: C_23  and  C_27
REMARK   13  A    between atoms: C_32  and  C_33
REMARK                            x       y       z     vdW  Elec       q    Type
REMARK                         _______ _______ _______ _____ _____    ______ ____
ROOT
ATOM      7  C   UNL     1      -2.936 -10.944  14.644  0.00  0.00    -0.027 C 
ATOM      8  C   UNL     1      -4.293 -10.344  14.145  0.00  0.00    +0.028 C 
ATOM      9  C   UNL     1      -5.492 -10.894  14.997  0.00  0.00    +0.012 C 
ATOM     10  C   UNL     1      -4.443 -10.493  12.604  0.00  0.00    +0.122 C 
ATOM     11  C   UNL     1      -1.768 -10.298  13.862  0.00  0.00    +0.007 C 
ATOM     12  C   UNL     1      -3.224  -9.938  11.832  0.00  0.00    +0.029 C 
ATOM     13  C   UNL     1      -2.750 -10.598  16.139  0.00  0.00    +0.009 C 
ATOM     14  C   UNL     1      -5.258 -10.606  16.507  0.00  0.00    +0.076 C 
ATOM     15  C   UNL     1      -1.892 -10.475  12.354  0.00  0.00    +0.007 C 
ATOM     16  C   UNL     1      -3.898 -11.084  17.013  0.00  0.00    +0.023 C 
ATOM     17  C   UNL     1      -2.864 -12.482  14.464  0.00  0.00    +0.011 C 
ATOM     19  C   UNL     1      -6.858 -10.323  14.579  0.00  0.00    +0.010 C 
ENDROOT
BRANCH  14   4
ATOM      3  O   UNL     1      -7.391  -9.227  17.847  0.00  0.00    -0.270 OA
ATOM      4  N   UNL     1      -6.289 -11.201  17.332  0.00  0.00    -0.308 N 
ATOM     22  C   UNL     1      -7.279 -10.447  17.939  0.00  0.00    +0.244 C 
ATOM     34  H   UNL     1      -6.190 -12.189  17.546  0.00  0.00    +0.149 HD
BRANCH  22  24
ATOM     24  C   UNL     1      -8.246 -11.204  18.774  0.00  0.00    +0.037 A 
ATOM     28  C   UNL     1      -9.508 -10.671  19.038  0.00  0.00    +0.014 A 
ATOM     29  C   UNL     1      -7.892 -12.450  19.296  0.00  0.00    +0.014 A 
ATOM     30  C   UNL     1     -10.416 -11.383  19.822  0.00  0.00    +0.019 A 
ATOM     31  C   UNL     1      -8.799 -13.161  20.079  0.00  0.00    +0.019 A 
ATOM     32  C   UNL     1     -10.062 -12.628  20.342  0.00  0.00    +0.052 A 
BRANCH  32  33
ATOM      6  N   UNL     1     -11.748 -13.949  21.799  0.00  0.00    -0.191 NA
ATOM     33  C   UNL     1     -10.991 -13.357  21.146  0.00  0.00    +0.099 C 
ENDBRANCH  32  33
ENDBRANCH  22  24
ENDBRANCH  14   4
BRANCH  10   1
ATOM      1  O   UNL     1      -5.580  -9.750  12.162  0.00  0.00    -0.391 OA
ATOM     35  H   UNL     1      -6.269  -9.818  12.845  0.00  0.00    +0.210 HD
ENDBRANCH  10   1
BRANCH  12  18
ATOM     18  C   UNL     1      -3.332 -10.211  10.327  0.00  0.00    +0.077 C 
ATOM     20  C   UNL     1      -3.949  -9.010   9.618  0.00  0.00    +0.017 C 
BRANCH  18  21
ATOM      2  O   UNL     1      -3.714 -12.603  10.325  0.00  0.00    -0.275 OA
ATOM      5  N   UNL     1      -5.406 -11.209   9.568  0.00  0.00    -0.310 N 
ATOM     21  C   UNL     1      -4.147 -11.478  10.084  0.00  0.00    +0.217 C 
ATOM     36  H   UNL     1      -5.668 -10.244   9.388  0.00  0.00    +0.149 HD
BRANCH   5  23
ATOM     23  C   UNL     1      -6.360 -12.248   9.253  0.00  0.00    +0.026 C 
ATOM     25  C   UNL     1      -6.696 -13.030  10.529  0.00  0.00    +0.031 C 
ATOM     26  C   UNL     1      -7.629 -11.605   8.687  0.00  0.00    +0.031 C 
ATOM     27  C   UNL     1      -5.750 -13.197   8.215  0.00  0.00    +0.031 C 
ENDBRANCH   5  23
ENDBRANCH  18  21
ENDBRANCH  12  18
TORSDOF 7
ENDMDL
