REMARK  Name = 40777123
REMARK  10 active torsions:
REMARK  status: ('A' for Active; 'I' for Inactive)
REMARK    1  A    between atoms: N_4  and  C_14
REMARK    2  A    between atoms: C_8  and  C_15
REMARK    3  A    between atoms: C_9  and  C_14
REMARK    4  A    between atoms: C_17  and  C_20
REMARK    5  A    between atoms: C_18  and  C_21
REMARK    6  A    between atoms: C_19  and  C_22
REMARK    7  A    between atoms: C_27  and  C_28
REMARK    8  A    between atoms: C_27  and  C_33
REMARK    9  A    between atoms: C_27  and  C_34
REMARK   10  A    between atoms: C_27  and  C_35
REMARK                            x       y       z     vdW  Elec       q    Type
REMARK                         _______ _______ _______ _____ _____    ______ ____
ROOT
ATOM      3  N   UNL     1       0.680   3.251  -0.774  0.00  0.00    -0.297 NA
ATOM      7  C   UNL     1       0.975   2.436   1.682  0.00  0.00    +0.002 C 
ATOM      8  C   UNL     1       2.254   2.137   0.852  0.00  0.00    +0.055 C 
ATOM      9  C   UNL     1      -0.490   2.428  -0.368  0.00  0.00    +0.074 C 
ATOM     10  C   UNL     1      -0.240   1.767   1.005  0.00  0.00    +0.024 C 
ATOM     11  C   UNL     1       0.748   3.961   1.616  0.00  0.00    +0.019 C 
ATOM     12  C   UNL     1       1.930   2.463  -0.634  0.00  0.00    +0.094 C 
ATOM     13  C   UNL     1       0.759   4.412   0.145  0.00  0.00    +0.085 C 
ENDROOT
BRANCH   8  15
ATOM      5  N   UNL     1       2.323  -0.088   1.867  0.00  0.00    -0.237 NA
ATOM      6  N   UNL     1       4.052  -1.684   1.347  0.00  0.00    -0.232 NA
ATOM     15  C   UNL     1       2.913   0.774   1.014  0.00  0.00    +0.050 A 
ATOM     16  C   UNL     1       4.059   0.484   0.301  0.00  0.00    +0.052 A 
ATOM     17  C   UNL     1       4.589  -0.773   0.509  0.00  0.00    +0.076 A 
ATOM     19  C   UNL     1       2.936  -1.281   1.984  0.00  0.00    +0.127 A 
ATOM     22  C   UNL     1       2.313  -2.261   2.920  0.00  0.00    +0.088 C 
BRANCH  17  20
ATOM      1 BR   UNL     1       4.106  -2.214  -2.305  0.00  0.00    -0.050 Br
ATOM     20  C   UNL     1       5.787  -1.199  -0.175  0.00  0.00    +0.014 A 
ATOM     25  C   UNL     1       5.743  -1.842  -1.412  0.00  0.00    +0.027 A 
ATOM     26  C   UNL     1       7.014  -0.950   0.438  0.00  0.00    +0.011 A 
ATOM     31  C   UNL     1       6.926  -2.236  -2.036  0.00  0.00    +0.016 A 
ATOM     32  C   UNL     1       8.198  -1.344  -0.185  0.00  0.00    +0.001 A 
ATOM     36  C   UNL     1       8.154  -1.987  -1.422  0.00  0.00    +0.001 A 
ENDBRANCH  17  20
ENDBRANCH   8  15
BRANCH   9  14
ATOM     14  C   UNL     1      -0.878   1.401  -1.433  0.00  0.00    +0.123 C 
BRANCH  14   4
ATOM      2  O   UNL     1      -3.571   2.166  -2.069  0.00  0.00    -0.270 OA
ATOM      4  N   UNL     1      -2.073   0.708  -1.063  0.00  0.00    -0.310 N 
ATOM     18  C   UNL     1      -3.346   1.151  -1.415  0.00  0.00    +0.244 C 
ATOM     37  H   UNL     1      -1.962  -0.106  -0.468  0.00  0.00    +0.149 HD
BRANCH  18  21
ATOM     21  C   UNL     1      -4.487   0.333  -0.931  0.00  0.00    +0.037 A 
ATOM     23  C   UNL     1      -5.733   0.926  -0.722  0.00  0.00    +0.013 A 
ATOM     24  C   UNL     1      -4.314  -1.029  -0.683  0.00  0.00    +0.013 A 
ATOM     28  C   UNL     1      -6.630  -1.204  -0.019  0.00  0.00    -0.042 A 
ATOM     29  C   UNL     1      -6.804   0.158  -0.266  0.00  0.00    +0.005 A 
ATOM     30  C   UNL     1      -5.385  -1.798  -0.228  0.00  0.00    +0.005 A 
BRANCH  28  27
ATOM     27  C   UNL     1      -7.775  -2.026   0.468  0.00  0.00    -0.013 C 
ATOM     33  C   UNL     1      -8.958  -2.007  -0.549  0.00  0.00    +0.015 C 
ATOM     34  C   UNL     1      -8.316  -1.491   1.830  0.00  0.00    +0.015 C 
ATOM     35  C   UNL     1      -7.460  -3.539   0.711  0.00  0.00    +0.015 C 
ENDBRANCH  28  27
ENDBRANCH  18  21
ENDBRANCH  14   4
ENDBRANCH   9  14
TORSDOF 6
