REMARK  Name = 45783576
REMARK  8 active torsions:
REMARK  status: ('A' for Active; 'I' for Inactive)
REMARK    1  A    between atoms: O_1  and  C_12
REMARK    2  A    between atoms: O_1  and  C_24
REMARK    3  A    between atoms: O_3  and  C_30
REMARK    4  A    between atoms: O_3  and  C_32
REMARK    5  A    between atoms: N_4  and  C_13
REMARK    6  A    between atoms: C_8  and  C_19
REMARK    7  A    between atoms: C_13  and  C_20
REMARK    8  A    between atoms: C_21  and  C_25
REMARK                            x       y       z     vdW  Elec       q    Type
REMARK                         _______ _______ _______ _____ _____    ______ ____
ROOT
ATOM      2  O   UNL     1       3.111  -1.703  -1.690  0.00  0.00    -0.336 OA
ATOM      5  N   UNL     1       1.832  -1.117   0.053  0.00  0.00    -0.190 NA
ATOM      6  N   UNL     1       1.786  -1.763  -2.141  0.00  0.00    -0.056 NA
ATOM     19  C   UNL     1       3.048  -1.315  -0.389  0.00  0.00    +0.245 A 
ATOM     21  C   UNL     1       1.092  -1.403  -1.057  0.00  0.00    +0.204 A 
ENDROOT
BRANCH  21  25
ATOM      7  N   UNL     1      -2.375  -0.854   0.168  0.00  0.00    -0.221 NA
ATOM     24  C   UNL     1      -3.061  -1.149  -0.959  0.00  0.00    +0.215 A 
ATOM     25  C   UNL     1      -0.339  -1.322  -1.049  0.00  0.00    +0.041 A 
ATOM     28  C   UNL     1      -2.466  -1.532  -2.151  0.00  0.00    +0.068 A 
ATOM     29  C   UNL     1      -1.079  -1.618  -2.188  0.00  0.00    +0.018 A 
ATOM     31  C   UNL     1      -1.028  -0.949   0.094  0.00  0.00    +0.126 A 
BRANCH  24   1
ATOM      1  O   UNL     1      -4.426  -1.057  -0.897  0.00  0.00    -0.473 OA
BRANCH   1  12
ATOM     12  C   UNL     1      -4.984  -0.660   0.351  0.00  0.00    +0.175 C 
ATOM     14  C   UNL     1      -6.353  -1.313   0.531  0.00  0.00    +0.044 C 
ATOM     15  C   UNL     1      -5.075   0.865   0.410  0.00  0.00    +0.044 C 
ATOM     16  C   UNL     1      -7.036  -0.841   1.811  0.00  0.00    +0.004 C 
ATOM     17  C   UNL     1      -5.758   1.337   1.689  0.00  0.00    +0.004 C 
ATOM     18  C   UNL     1      -7.125   0.683   1.871  0.00  0.00    +0.000 C 
ENDBRANCH   1  12
ENDBRANCH  24   1
ENDBRANCH  21  25
BRANCH  19   8
ATOM      4  N   UNL     1       4.310  -0.191   1.437  0.00  0.00    -0.287 NA
ATOM      8  C   UNL     1       4.370  -1.173   0.337  0.00  0.00    +0.146 C 
ATOM      9  C   UNL     1       4.824  -2.484   1.007  0.00  0.00    +0.030 C 
ATOM     10  C   UNL     1       5.053  -2.125   2.468  0.00  0.00    +0.017 C 
ATOM     11  C   UNL     1       5.287  -0.628   2.435  0.00  0.00    +0.085 C 
BRANCH   4  13
ATOM     13  C   UNL     1       4.550   1.178   0.999  0.00  0.00    +0.120 C 
BRANCH  13  20
ATOM     20  C   UNL     1       3.324   1.789   0.373  0.00  0.00    -0.033 A 
ATOM     22  C   UNL     1       3.371   2.257  -0.941  0.00  0.00    +0.008 A 
ATOM     23  C   UNL     1       2.141   1.886   1.106  0.00  0.00    +0.008 A 
ATOM     26  C   UNL     1       2.235   2.823  -1.520  0.00  0.00    +0.046 A 
ATOM     27  C   UNL     1       1.006   2.451   0.526  0.00  0.00    +0.046 A 
ATOM     30  C   UNL     1       1.053   2.920  -0.787  0.00  0.00    +0.120 A 
BRANCH  30   3
ATOM      3  O   UNL     1      -0.056   3.471  -1.353  0.00  0.00    -0.495 OA
ATOM     32  C   UNL     1      -1.231   3.539  -0.546  0.00  0.00    +0.277 C 
ENDBRANCH  30   3
ENDBRANCH  13  20
ENDBRANCH   4  13
ENDBRANCH  19   8
TORSDOF 7
