MODEL 1
REMARK VINA RESULT:      -7.4      0.000      0.000
REMARK  Name = 40481380
REMARK  6 active torsions:
REMARK  status: ('A' for Active; 'I' for Inactive)
REMARK    1  A    between atoms: O_3  and  C_10
REMARK    2  A    between atoms: O_3  and  C_13
REMARK    3  A    between atoms: N_5  and  C_9
REMARK    4  A    between atoms: N_6  and  C_16
REMARK    5  A    between atoms: C_13  and  C_15
REMARK    6  A    between atoms: C_16  and  C_19
REMARK                            x       y       z     vdW  Elec       q    Type
REMARK                         _______ _______ _______ _____ _____    ______ ____
ROOT
ATOM      1  O   UNL     1     -14.826   7.033  23.203  0.00  0.00    -0.369 OA
ATOM      2  O   UNL     1     -16.133   5.062  21.252  0.00  0.00    -0.369 OA
ATOM      7  C   UNL     1     -15.402   4.851  22.478  0.00  0.00    +0.172 C 
ATOM      8  C   UNL     1     -14.297   5.888  22.515  0.00  0.00    +0.180 C 
ATOM      9  C   UNL     1     -16.268   5.201  23.665  0.00  0.00    +0.131 C 
ATOM     10  C   UNL     1     -14.067   6.172  21.050  0.00  0.00    +0.175 C 
ATOM     11  C   UNL     1     -16.118   6.710  23.739  0.00  0.00    +0.185 C 
ATOM     12  C   UNL     1     -15.464   6.072  20.482  0.00  0.00    +0.194 C 
ENDROOT
BRANCH   9   5
ATOM      4  O   UNL     1     -17.809   4.531  26.011  0.00  0.00    -0.253 OA
ATOM      5  N   UNL     1     -15.788   4.567  24.869  0.00  0.00    -0.292 N 
ATOM      6  N   UNL     1     -15.888   3.667  26.984  0.00  0.00    -0.295 N 
ATOM     14  C   UNL     1     -16.607   4.278  25.959  0.00  0.00    +0.300 C 
ATOM     28  H   UNL     1     -14.821   4.256  24.899  0.00  0.00    +0.151 HD
ATOM     29  H   UNL     1     -14.901   3.477  26.842  0.00  0.00    +0.151 HD
BRANCH   6  16
ATOM     16  C   UNL     1     -16.494   3.262  28.231  0.00  0.00    +0.141 C 
BRANCH  16  19
ATOM     19  C   UNL     1     -15.562   2.433  29.066  0.00  0.00    -0.030 A 
ATOM     23  C   UNL     1     -15.683   1.044  29.077  0.00  0.00    +0.005 A 
ATOM     24  C   UNL     1     -14.573   3.052  29.831  0.00  0.00    +0.005 A 
ATOM     25  C   UNL     1     -14.817   0.274  29.853  0.00  0.00    +0.000 A 
ATOM     26  C   UNL     1     -13.707   2.282  30.608  0.00  0.00    +0.000 A 
ATOM     27  C   UNL     1     -13.830   0.893  30.618  0.00  0.00    +0.000 A 
ENDBRANCH  16  19
ENDBRANCH   6  16
ENDBRANCH   9   5
BRANCH  10   3
ATOM      3  O   UNL     1     -13.483   7.432  20.806  0.00  0.00    -0.367 OA
BRANCH   3  13
ATOM     13  C   UNL     1     -12.071   7.412  21.000  0.00  0.00    +0.195 C 
BRANCH  13  15
ATOM     15  C   UNL     1     -11.404   8.031  19.807  0.00  0.00    -0.022 A 
ATOM     17  C   UNL     1     -10.797   9.283  19.919  0.00  0.00    +0.006 A 
ATOM     18  C   UNL     1     -11.388   7.355  18.587  0.00  0.00    +0.006 A 
ATOM     20  C   UNL     1     -10.177   9.859  18.810  0.00  0.00    +0.000 A 
ATOM     21  C   UNL     1     -10.767   7.932  17.479  0.00  0.00    +0.000 A 
ATOM     22  C   UNL     1     -10.162   9.183  17.591  0.00  0.00    +0.000 A 
ENDBRANCH  13  15
ENDBRANCH   3  13
ENDBRANCH  10   3
TORSDOF 6
ENDMDL
MODEL 2
REMARK VINA RESULT:      -7.0     15.807     18.458
REMARK  Name = 40481380
REMARK  6 active torsions:
REMARK  status: ('A' for Active; 'I' for Inactive)
REMARK    1  A    between atoms: O_3  and  C_10
REMARK    2  A    between atoms: O_3  and  C_13
REMARK    3  A    between atoms: N_5  and  C_9
REMARK    4  A    between atoms: N_6  and  C_16
REMARK    5  A    between atoms: C_13  and  C_15
REMARK    6  A    between atoms: C_16  and  C_19
REMARK                            x       y       z     vdW  Elec       q    Type
REMARK                         _______ _______ _______ _____ _____    ______ ____
ROOT
ATOM      1  O   UNL     1     -10.050  -8.790  15.032  0.00  0.00    -0.369 OA
ATOM      2  O   UNL     1     -11.156  -8.313  17.852  0.00  0.00    -0.369 OA
ATOM      7  C   UNL     1     -10.779  -7.395  16.805  0.00  0.00    +0.172 C 
ATOM      8  C   UNL     1      -9.563  -7.985  16.119  0.00  0.00    +0.180 C 
ATOM      9  C   UNL     1     -11.834  -7.380  15.723  0.00  0.00    +0.131 C 
ATOM     10  C   UNL     1      -8.951  -8.829  17.210  0.00  0.00    +0.175 C 
ATOM     11  C   UNL     1     -11.466  -8.601  14.899  0.00  0.00    +0.185 C 
ATOM     12  C   UNL     1     -10.172  -9.354  17.931  0.00  0.00    +0.194 C 
ENDROOT
BRANCH   9   5
ATOM      4  O   UNL     1     -14.007  -6.052  14.366  0.00  0.00    -0.253 OA
ATOM      5  N   UNL     1     -11.760  -6.173  14.936  0.00  0.00    -0.292 N 
ATOM      6  N   UNL     1     -12.512  -4.442  13.620  0.00  0.00    -0.295 N 
ATOM     14  C   UNL     1     -12.866  -5.598  14.312  0.00  0.00    +0.300 C 
ATOM     28  H   UNL     1     -10.872  -5.681  14.886  0.00  0.00    +0.151 HD
ATOM     29  H   UNL     1     -11.547  -4.130  13.651  0.00  0.00    +0.151 HD
BRANCH   6  16
ATOM     16  C   UNL     1     -13.469  -3.648  12.883  0.00  0.00    +0.141 C 
BRANCH  16  19
ATOM     19  C   UNL     1     -13.112  -3.548  11.429  0.00  0.00    -0.030 A 
ATOM     23  C   UNL     1     -11.783  -3.681  11.026  0.00  0.00    +0.005 A 
ATOM     24  C   UNL     1     -14.109  -3.319  10.480  0.00  0.00    +0.005 A 
ATOM     25  C   UNL     1     -11.451  -3.586   9.674  0.00  0.00    +0.000 A 
ATOM     26  C   UNL     1     -13.777  -3.224   9.128  0.00  0.00    +0.000 A 
ATOM     27  C   UNL     1     -12.448  -3.358   8.726  0.00  0.00    +0.000 A 
ENDBRANCH  16  19
ENDBRANCH   6  16
ENDBRANCH   9   5
BRANCH  10   3
ATOM      3  O   UNL     1      -8.132  -9.869  16.725  0.00  0.00    -0.367 OA
BRANCH   3  13
ATOM     13  C   UNL     1      -6.771  -9.464  16.603  0.00  0.00    +0.195 C 
BRANCH  13  15
ATOM     15  C   UNL     1      -5.923 -10.316  17.501  0.00  0.00    -0.022 A 
ATOM     17  C   UNL     1      -6.398 -10.693  18.757  0.00  0.00    +0.006 A 
ATOM     18  C   UNL     1      -4.660 -10.733  17.079  0.00  0.00    +0.006 A 
ATOM     20  C   UNL     1      -5.609 -11.486  19.592  0.00  0.00    +0.000 A 
ATOM     21  C   UNL     1      -3.872 -11.525  17.913  0.00  0.00    +0.000 A 
ATOM     22  C   UNL     1      -4.347 -11.901  19.170  0.00  0.00    +0.000 A 
ENDBRANCH  13  15
ENDBRANCH   3  13
ENDBRANCH  10   3
TORSDOF 6
ENDMDL
MODEL 3
REMARK VINA RESULT:      -6.9     19.391     21.757
REMARK  Name = 40481380
REMARK  6 active torsions:
REMARK  status: ('A' for Active; 'I' for Inactive)
REMARK    1  A    between atoms: O_3  and  C_10
REMARK    2  A    between atoms: O_3  and  C_13
REMARK    3  A    between atoms: N_5  and  C_9
REMARK    4  A    between atoms: N_6  and  C_16
REMARK    5  A    between atoms: C_13  and  C_15
REMARK    6  A    between atoms: C_16  and  C_19
REMARK                            x       y       z     vdW  Elec       q    Type
REMARK                         _______ _______ _______ _____ _____    ______ ____
ROOT
ATOM      1  O   UNL     1      -5.946 -10.276  17.226  0.00  0.00    -0.369 OA
ATOM      2  O   UNL     1      -4.727 -11.885  19.534  0.00  0.00    -0.369 OA
ATOM      7  C   UNL     1      -4.903 -12.200  18.137  0.00  0.00    +0.172 C 
ATOM      8  C   UNL     1      -6.227 -11.598  17.714  0.00  0.00    +0.180 C 
ATOM      9  C   UNL     1      -3.884 -11.456  17.306  0.00  0.00    +0.131 C 
ATOM     10  C   UNL     1      -6.999 -11.564  19.011  0.00  0.00    +0.175 C 
ATOM     11  C   UNL     1      -4.525 -10.086  17.163  0.00  0.00    +0.185 C 
ATOM     12  C   UNL     1      -5.918 -11.246  20.018  0.00  0.00    +0.194 C 
ENDROOT
BRANCH   9   5
ATOM      4  O   UNL     1      -1.900 -10.793  15.318  0.00  0.00    -0.253 OA
ATOM      5  N   UNL     1      -3.697 -12.084  16.021  0.00  0.00    -0.292 N 
ATOM      6  N   UNL     1      -2.750 -12.470  13.959  0.00  0.00    -0.295 N 
ATOM     14  C   UNL     1      -2.707 -11.698  15.118  0.00  0.00    +0.300 C 
ATOM     28  H   UNL     1      -4.271 -12.889  15.787  0.00  0.00    +0.151 HD
ATOM     29  H   UNL     1      -3.439 -13.213  13.893  0.00  0.00    +0.151 HD
BRANCH   6  16
ATOM     16  C   UNL     1      -1.834 -12.280  12.859  0.00  0.00    +0.141 C 
BRANCH  16  19
ATOM     19  C   UNL     1      -2.364 -11.303  11.850  0.00  0.00    -0.030 A 
ATOM     23  C   UNL     1      -1.720 -10.081  11.657  0.00  0.00    +0.005 A 
ATOM     24  C   UNL     1      -3.503 -11.616  11.106  0.00  0.00    +0.005 A 
ATOM     25  C   UNL     1      -2.214  -9.173  10.721  0.00  0.00    +0.000 A 
ATOM     26  C   UNL     1      -3.996 -10.708  10.169  0.00  0.00    +0.000 A 
ATOM     27  C   UNL     1      -3.351  -9.486   9.977  0.00  0.00    +0.000 A 
ENDBRANCH  16  19
ENDBRANCH   6  16
ENDBRANCH   9   5
BRANCH  10   3
ATOM      3  O   UNL     1      -8.036 -10.608  19.024  0.00  0.00    -0.367 OA
BRANCH   3  13
ATOM     13  C   UNL     1      -9.194 -11.067  18.331  0.00  0.00    +0.195 C 
BRANCH  13  15
ATOM     15  C   UNL     1      -9.925  -9.886  17.764  0.00  0.00    -0.022 A 
ATOM     17  C   UNL     1     -11.319  -9.897  17.693  0.00  0.00    +0.006 A 
ATOM     18  C   UNL     1      -9.213  -8.776  17.310  0.00  0.00    +0.006 A 
ATOM     20  C   UNL     1     -11.999  -8.799  17.166  0.00  0.00    +0.000 A 
ATOM     21  C   UNL     1      -9.893  -7.678  16.784  0.00  0.00    +0.000 A 
ATOM     22  C   UNL     1     -11.286  -7.690  16.712  0.00  0.00    +0.000 A 
ENDBRANCH  13  15
ENDBRANCH   3  13
ENDBRANCH  10   3
TORSDOF 6
ENDMDL
MODEL 4
REMARK VINA RESULT:      -6.9     19.521     20.724
REMARK  Name = 40481380
REMARK  6 active torsions:
REMARK  status: ('A' for Active; 'I' for Inactive)
REMARK    1  A    between atoms: O_3  and  C_10
REMARK    2  A    between atoms: O_3  and  C_13
REMARK    3  A    between atoms: N_5  and  C_9
REMARK    4  A    between atoms: N_6  and  C_16
REMARK    5  A    between atoms: C_13  and  C_15
REMARK    6  A    between atoms: C_16  and  C_19
REMARK                            x       y       z     vdW  Elec       q    Type
REMARK                         _______ _______ _______ _____ _____    ______ ____
ROOT
ATOM      1  O   UNL     1      -3.957 -12.391  14.442  0.00  0.00    -0.369 OA
ATOM      2  O   UNL     1      -2.436 -10.832  16.600  0.00  0.00    -0.369 OA
ATOM      7  C   UNL     1      -3.799 -10.739  16.134  0.00  0.00    +0.172 C 
ATOM      8  C   UNL     1      -3.770 -10.979  14.639  0.00  0.00    +0.180 C 
ATOM      9  C   UNL     1      -4.610 -11.893  16.672  0.00  0.00    +0.131 C 
ATOM     10  C   UNL     1      -2.374 -10.542  14.265  0.00  0.00    +0.175 C 
ATOM     11  C   UNL     1      -4.267 -13.008  15.700  0.00  0.00    +0.185 C 
ATOM     12  C   UNL     1      -1.569 -10.982  15.467  0.00  0.00    +0.194 C 
ENDROOT
BRANCH   9   5
ATOM      4  O   UNL     1      -6.188 -10.796  18.825  0.00  0.00    -0.253 OA
ATOM      5  N   UNL     1      -6.022 -11.596  16.652  0.00  0.00    -0.292 N 
ATOM      6  N   UNL     1      -8.056 -10.875  17.452  0.00  0.00    -0.295 N 
ATOM     14  C   UNL     1      -6.707 -11.064  17.744  0.00  0.00    +0.300 C 
ATOM     28  H   UNL     1      -6.530 -11.719  15.781  0.00  0.00    +0.151 HD
ATOM     29  H   UNL     1      -8.391 -11.105  16.521  0.00  0.00    +0.151 HD
BRANCH   6  16
ATOM     16  C   UNL     1      -8.995 -10.336  18.408  0.00  0.00    +0.141 C 
BRANCH  16  19
ATOM     19  C   UNL     1      -9.965  -9.386  17.767  0.00  0.00    -0.030 A 
ATOM     23  C   UNL     1      -9.504  -8.204  17.188  0.00  0.00    +0.005 A 
ATOM     24  C   UNL     1     -11.328  -9.685  17.752  0.00  0.00    +0.005 A 
ATOM     25  C   UNL     1     -10.406  -7.321  16.594  0.00  0.00    +0.000 A 
ATOM     26  C   UNL     1     -12.229  -8.801  17.158  0.00  0.00    +0.000 A 
ATOM     27  C   UNL     1     -11.768  -7.619  16.579  0.00  0.00    +0.000 A 
ENDBRANCH  16  19
ENDBRANCH   6  16
ENDBRANCH   9   5
BRANCH  10   3
ATOM      3  O   UNL     1      -1.903 -11.122  13.069  0.00  0.00    -0.367 OA
BRANCH   3  13
ATOM     13  C   UNL     1      -1.685 -10.147  12.053  0.00  0.00    +0.195 C 
BRANCH  13  15
ATOM     15  C   UNL     1      -2.731 -10.305  10.989  0.00  0.00    -0.022 A 
ATOM     17  C   UNL     1      -3.123  -9.204  10.227  0.00  0.00    +0.006 A 
ATOM     18  C   UNL     1      -3.311 -11.553  10.761  0.00  0.00    +0.006 A 
ATOM     20  C   UNL     1      -4.096  -9.351   9.238  0.00  0.00    +0.000 A 
ATOM     21  C   UNL     1      -4.284 -11.700   9.772  0.00  0.00    +0.000 A 
ATOM     22  C   UNL     1      -4.676 -10.599   9.011  0.00  0.00    +0.000 A 
ENDBRANCH  13  15
ENDBRANCH   3  13
ENDBRANCH  10   3
TORSDOF 6
ENDMDL
MODEL 5
REMARK VINA RESULT:      -6.8     33.227     35.182
REMARK  Name = 40481380
REMARK  6 active torsions:
REMARK  status: ('A' for Active; 'I' for Inactive)
REMARK    1  A    between atoms: O_3  and  C_10
REMARK    2  A    between atoms: O_3  and  C_13
REMARK    3  A    between atoms: N_5  and  C_9
REMARK    4  A    between atoms: N_6  and  C_16
REMARK    5  A    between atoms: C_13  and  C_15
REMARK    6  A    between atoms: C_16  and  C_19
REMARK                            x       y       z     vdW  Elec       q    Type
REMARK                         _______ _______ _______ _____ _____    ______ ____
ROOT
ATOM      1  O   UNL     1       2.679   3.074  -7.197  0.00  0.00    -0.369 OA
ATOM      2  O   UNL     1       1.445   3.907  -4.517  0.00  0.00    -0.369 OA
ATOM      7  C   UNL     1       2.808   3.619  -4.894  0.00  0.00    +0.172 C 
ATOM      8  C   UNL     1       2.756   2.480  -5.891  0.00  0.00    +0.180 C 
ATOM      9  C   UNL     1       3.381   4.770  -5.687  0.00  0.00    +0.131 C 
ATOM     10  C   UNL     1       1.473   1.778  -5.518  0.00  0.00    +0.175 C 
ATOM     11  C   UNL     1       2.849   4.495  -7.083  0.00  0.00    +0.185 C 
ATOM     12  C   UNL     1       0.582   2.932  -5.119  0.00  0.00    +0.194 C 
ENDROOT
BRANCH   9   5
ATOM      4  O   UNL     1       5.103   6.175  -3.846  0.00  0.00    -0.253 OA
ATOM      5  N   UNL     1       4.823   4.757  -5.663  0.00  0.00    -0.292 N 
ATOM      6  N   UNL     1       6.943   5.277  -4.937  0.00  0.00    -0.295 N 
ATOM     14  C   UNL     1       5.579   5.469  -4.733  0.00  0.00    +0.300 C 
ATOM     28  H   UNL     1       5.312   4.148  -6.313  0.00  0.00    +0.151 HD
ATOM     29  H   UNL     1       7.243   4.657  -5.682  0.00  0.00    +0.151 HD
BRANCH   6  16
ATOM     16  C   UNL     1       7.952   5.901  -4.112  0.00  0.00    +0.141 C 
BRANCH  16  19
ATOM     19  C   UNL     1       8.950   4.905  -3.597  0.00  0.00    -0.030 A 
ATOM     23  C   UNL     1       9.088   3.667  -4.224  0.00  0.00    +0.005 A 
ATOM     24  C   UNL     1       9.739   5.217  -2.489  0.00  0.00    +0.005 A 
ATOM     25  C   UNL     1      10.014   2.741  -3.744  0.00  0.00    +0.000 A 
ATOM     26  C   UNL     1      10.665   4.291  -2.009  0.00  0.00    +0.000 A 
ATOM     27  C   UNL     1      10.803   3.053  -2.637  0.00  0.00    +0.000 A 
ENDBRANCH  16  19
ENDBRANCH   6  16
ENDBRANCH   9   5
BRANCH  10   3
ATOM      3  O   UNL     1       0.920   1.019  -6.570  0.00  0.00    -0.367 OA
BRANCH   3  13
ATOM     13  C   UNL     1      -0.296   1.583  -7.054  0.00  0.00    +0.195 C 
BRANCH  13  15
ATOM     15  C   UNL     1      -1.323   0.498  -7.183  0.00  0.00    -0.022 A 
ATOM     17  C   UNL     1      -1.150  -0.711  -6.508  0.00  0.00    +0.006 A 
ATOM     18  C   UNL     1      -2.454   0.697  -7.976  0.00  0.00    +0.006 A 
ATOM     20  C   UNL     1      -2.106  -1.720  -6.627  0.00  0.00    +0.000 A 
ATOM     21  C   UNL     1      -3.409  -0.312  -8.095  0.00  0.00    +0.000 A 
ATOM     22  C   UNL     1      -3.235  -1.520  -7.421  0.00  0.00    +0.000 A 
ENDBRANCH  13  15
ENDBRANCH   3  13
ENDBRANCH  10   3
TORSDOF 6
ENDMDL
MODEL 6
REMARK VINA RESULT:      -6.7     30.902     34.089
REMARK  Name = 40481380
REMARK  6 active torsions:
REMARK  status: ('A' for Active; 'I' for Inactive)
REMARK    1  A    between atoms: O_3  and  C_10
REMARK    2  A    between atoms: O_3  and  C_13
REMARK    3  A    between atoms: N_5  and  C_9
REMARK    4  A    between atoms: N_6  and  C_16
REMARK    5  A    between atoms: C_13  and  C_15
REMARK    6  A    between atoms: C_16  and  C_19
REMARK                            x       y       z     vdW  Elec       q    Type
REMARK                         _______ _______ _______ _____ _____    ______ ____
ROOT
ATOM      1  O   UNL     1      20.591   5.783  22.769  0.00  0.00    -0.369 OA
ATOM      2  O   UNL     1      21.017   7.690  20.407  0.00  0.00    -0.369 OA
ATOM      7  C   UNL     1      19.920   6.814  20.743  0.00  0.00    +0.172 C 
ATOM      8  C   UNL     1      20.526   5.565  21.350  0.00  0.00    +0.180 C 
ATOM      9  C   UNL     1      19.108   7.408  21.870  0.00  0.00    +0.131 C 
ATOM     10  C   UNL     1      21.900   5.532  20.726  0.00  0.00    +0.175 C 
ATOM     11  C   UNL     1      19.914   7.006  23.093  0.00  0.00    +0.185 C 
ATOM     12  C   UNL     1      22.251   7.000  20.649  0.00  0.00    +0.194 C 
ENDROOT
BRANCH   9   5
ATOM      4  O   UNL     1      16.982   7.840  19.967  0.00  0.00    -0.253 OA
ATOM      5  N   UNL     1      17.779   6.850  21.910  0.00  0.00    -0.292 N 
ATOM      6  N   UNL     1      15.620   6.446  21.225  0.00  0.00    -0.295 N 
ATOM     14  C   UNL     1      16.810   7.113  20.943  0.00  0.00    +0.300 C 
ATOM     28  H   UNL     1      17.557   6.181  22.642  0.00  0.00    +0.151 HD
ATOM     29  H   UNL     1      15.578   5.847  22.044  0.00  0.00    +0.151 HD
BRANCH   6  16
ATOM     16  C   UNL     1      14.450   6.544  20.384  0.00  0.00    +0.141 C 
BRANCH  16  19
ATOM     19  C   UNL     1      13.310   7.224  21.086  0.00  0.00    -0.030 A 
ATOM     23  C   UNL     1      13.489   8.489  21.644  0.00  0.00    +0.005 A 
ATOM     24  C   UNL     1      12.071   6.589  21.182  0.00  0.00    +0.005 A 
ATOM     25  C   UNL     1      12.430   9.120  22.297  0.00  0.00    +0.000 A 
ATOM     26  C   UNL     1      11.012   7.220  21.835  0.00  0.00    +0.000 A 
ATOM     27  C   UNL     1      11.192   8.486  22.393  0.00  0.00    +0.000 A 
ENDBRANCH  16  19
ENDBRANCH   6  16
ENDBRANCH   9   5
BRANCH  10   3
ATOM      3  O   UNL     1      22.842   4.798  21.476  0.00  0.00    -0.367 OA
BRANCH   3  13
ATOM     13  C   UNL     1      23.468   3.781  20.698  0.00  0.00    +0.195 C 
BRANCH  13  15
ATOM     15  C   UNL     1      23.854   2.644  21.597  0.00  0.00    -0.022 A 
ATOM     17  C   UNL     1      23.340   2.573  22.892  0.00  0.00    +0.006 A 
ATOM     18  C   UNL     1      24.725   1.656  21.138  0.00  0.00    +0.006 A 
ATOM     20  C   UNL     1      23.699   1.516  23.728  0.00  0.00    +0.000 A 
ATOM     21  C   UNL     1      25.084   0.599  21.974  0.00  0.00    +0.000 A 
ATOM     22  C   UNL     1      24.571   0.529  23.269  0.00  0.00    +0.000 A 
ENDBRANCH  13  15
ENDBRANCH   3  13
ENDBRANCH  10   3
TORSDOF 6
ENDMDL
MODEL 7
REMARK VINA RESULT:      -6.6      6.858     11.896
REMARK  Name = 40481380
REMARK  6 active torsions:
REMARK  status: ('A' for Active; 'I' for Inactive)
REMARK    1  A    between atoms: O_3  and  C_10
REMARK    2  A    between atoms: O_3  and  C_13
REMARK    3  A    between atoms: N_5  and  C_9
REMARK    4  A    between atoms: N_6  and  C_16
REMARK    5  A    between atoms: C_13  and  C_15
REMARK    6  A    between atoms: C_16  and  C_19
REMARK                            x       y       z     vdW  Elec       q    Type
REMARK                         _______ _______ _______ _____ _____    ______ ____
ROOT
ATOM      1  O   UNL     1     -15.151   5.875  32.211  0.00  0.00    -0.369 OA
ATOM      2  O   UNL     1     -14.067   6.332  35.042  0.00  0.00    -0.369 OA
ATOM      7  C   UNL     1     -13.447   6.475  33.747  0.00  0.00    +0.172 C 
ATOM      8  C   UNL     1     -13.987   5.358  32.877  0.00  0.00    +0.180 C 
ATOM      9  C   UNL     1     -13.941   7.732  33.071  0.00  0.00    +0.131 C 
ATOM     10  C   UNL     1     -14.347   4.299  33.891  0.00  0.00    +0.175 C 
ATOM     11  C   UNL     1     -15.265   7.280  32.480  0.00  0.00    +0.185 C 
ATOM     12  C   UNL     1     -14.845   5.126  35.054  0.00  0.00    +0.194 C 
ENDROOT
BRANCH   9   5
ATOM      4  O   UNL     1     -13.319  10.452  32.334  0.00  0.00    -0.253 OA
ATOM      5  N   UNL     1     -13.029   8.167  32.042  0.00  0.00    -0.292 N 
ATOM      6  N   UNL     1     -11.864   9.645  30.717  0.00  0.00    -0.295 N 
ATOM     14  C   UNL     1     -12.787   9.509  31.752  0.00  0.00    +0.300 C 
ATOM     28  H   UNL     1     -12.487   7.464  31.547  0.00  0.00    +0.151 HD
ATOM     29  H   UNL     1     -11.460   8.807  30.310  0.00  0.00    +0.151 HD
BRANCH   6  16
ATOM     16  C   UNL     1     -11.434  10.930  30.216  0.00  0.00    +0.141 C 
BRANCH  16  19
ATOM     19  C   UNL     1     -11.511  11.003  28.719  0.00  0.00    -0.030 A 
ATOM     23  C   UNL     1     -11.008   9.959  27.942  0.00  0.00    +0.005 A 
ATOM     24  C   UNL     1     -12.086  12.116  28.103  0.00  0.00    +0.005 A 
ATOM     25  C   UNL     1     -11.079  10.028  26.551  0.00  0.00    +0.000 A 
ATOM     26  C   UNL     1     -12.157  12.184  26.712  0.00  0.00    +0.000 A 
ATOM     27  C   UNL     1     -11.653  11.140  25.936  0.00  0.00    +0.000 A 
ENDBRANCH  16  19
ENDBRANCH   6  16
ENDBRANCH   9   5
BRANCH  10   3
ATOM      3  O   UNL     1     -15.320   3.387  33.432  0.00  0.00    -0.367 OA
BRANCH   3  13
ATOM     13  C   UNL     1     -14.796   2.068  33.301  0.00  0.00    +0.195 C 
BRANCH  13  15
ATOM     15  C   UNL     1     -15.027   1.585  31.900  0.00  0.00    -0.022 A 
ATOM     17  C   UNL     1     -14.802   0.247  31.577  0.00  0.00    +0.006 A 
ATOM     18  C   UNL     1     -15.471   2.474  30.920  0.00  0.00    +0.006 A 
ATOM     20  C   UNL     1     -15.018  -0.202  30.274  0.00  0.00    +0.000 A 
ATOM     21  C   UNL     1     -15.686   2.025  29.617  0.00  0.00    +0.000 A 
ATOM     22  C   UNL     1     -15.460   0.687  29.295  0.00  0.00    +0.000 A 
ENDBRANCH  13  15
ENDBRANCH   3  13
ENDBRANCH  10   3
TORSDOF 6
ENDMDL
MODEL 8
REMARK VINA RESULT:      -6.4     30.152     34.063
REMARK  Name = 40481380
REMARK  6 active torsions:
REMARK  status: ('A' for Active; 'I' for Inactive)
REMARK    1  A    between atoms: O_3  and  C_10
REMARK    2  A    between atoms: O_3  and  C_13
REMARK    3  A    between atoms: N_5  and  C_9
REMARK    4  A    between atoms: N_6  and  C_16
REMARK    5  A    between atoms: C_13  and  C_15
REMARK    6  A    between atoms: C_16  and  C_19
REMARK                            x       y       z     vdW  Elec       q    Type
REMARK                         _______ _______ _______ _____ _____    ______ ____
ROOT
ATOM      1  O   UNL     1      11.507   7.734   4.825  0.00  0.00    -0.369 OA
ATOM      2  O   UNL     1      11.013   6.922   7.741  0.00  0.00    -0.369 OA
ATOM      7  C   UNL     1      12.170   6.778   6.891  0.00  0.00    +0.172 C 
ATOM      8  C   UNL     1      11.658   6.473   5.498  0.00  0.00    +0.180 C 
ATOM      9  C   UNL     1      12.870   8.108   6.737  0.00  0.00    +0.131 C 
ATOM     10  C   UNL     1      10.323   5.824   5.777  0.00  0.00    +0.175 C 
ATOM     11  C   UNL     1      12.051   8.777   5.647  0.00  0.00    +0.185 C 
ATOM     12  C   UNL     1       9.839   6.595   6.983  0.00  0.00    +0.194 C 
ENDROOT
BRANCH   9   5
ATOM      4  O   UNL     1      14.951  10.107   6.736  0.00  0.00    -0.253 OA
ATOM      5  N   UNL     1      14.243   7.934   6.329  0.00  0.00    -0.292 N 
ATOM      6  N   UNL     1      16.429   8.518   5.915  0.00  0.00    -0.295 N 
ATOM     14  C   UNL     1      15.186   8.959   6.361  0.00  0.00    +0.300 C 
ATOM     28  H   UNL     1      14.555   7.003   6.066  0.00  0.00    +0.151 HD
ATOM     29  H   UNL     1      16.534   7.544   5.647  0.00  0.00    +0.151 HD
BRANCH   6  16
ATOM     16  C   UNL     1      17.587   9.379   5.846  0.00  0.00    +0.141 C 
BRANCH  16  19
ATOM     19  C   UNL     1      18.856   8.600   5.657  0.00  0.00    -0.030 A 
ATOM     23  C   UNL     1      19.769   8.489   6.705  0.00  0.00    +0.005 A 
ATOM     24  C   UNL     1      19.122   7.987   4.432  0.00  0.00    +0.005 A 
ATOM     25  C   UNL     1      20.949   7.766   6.528  0.00  0.00    +0.000 A 
ATOM     26  C   UNL     1      20.302   7.264   4.256  0.00  0.00    +0.000 A 
ATOM     27  C   UNL     1      21.216   7.154   5.304  0.00  0.00    +0.000 A 
ENDBRANCH  16  19
ENDBRANCH   6  16
ENDBRANCH   9   5
BRANCH  10   3
ATOM      3  O   UNL     1       9.420   5.906   4.696  0.00  0.00    -0.367 OA
BRANCH   3  13
ATOM     13  C   UNL     1       8.278   6.697   5.014  0.00  0.00    +0.195 C 
BRANCH  13  15
ATOM     15  C   UNL     1       8.171   7.823   4.029  0.00  0.00    -0.022 A 
ATOM     17  C   UNL     1       8.704   7.681   2.747  0.00  0.00    +0.006 A 
ATOM     18  C   UNL     1       7.538   9.012   4.394  0.00  0.00    +0.006 A 
ATOM     20  C   UNL     1       8.604   8.729   1.831  0.00  0.00    +0.000 A 
ATOM     21  C   UNL     1       7.439  10.058   3.478  0.00  0.00    +0.000 A 
ATOM     22  C   UNL     1       7.972   9.917   2.197  0.00  0.00    +0.000 A 
ENDBRANCH  13  15
ENDBRANCH   3  13
ENDBRANCH  10   3
TORSDOF 6
ENDMDL
MODEL 9
REMARK VINA RESULT:      -6.3     28.845     34.170
REMARK  Name = 40481380
REMARK  6 active torsions:
REMARK  status: ('A' for Active; 'I' for Inactive)
REMARK    1  A    between atoms: O_3  and  C_10
REMARK    2  A    between atoms: O_3  and  C_13
REMARK    3  A    between atoms: N_5  and  C_9
REMARK    4  A    between atoms: N_6  and  C_16
REMARK    5  A    between atoms: C_13  and  C_15
REMARK    6  A    between atoms: C_16  and  C_19
REMARK                            x       y       z     vdW  Elec       q    Type
REMARK                         _______ _______ _______ _____ _____    ______ ____
ROOT
ATOM      1  O   UNL     1      11.938   7.680   7.185  0.00  0.00    -0.369 OA
ATOM      2  O   UNL     1      11.367   9.147   4.554  0.00  0.00    -0.369 OA
ATOM      7  C   UNL     1      12.417   9.309   5.531  0.00  0.00    +0.172 C 
ATOM      8  C   UNL     1      11.790   9.079   6.891  0.00  0.00    +0.180 C 
ATOM      9  C   UNL     1      13.424   8.191   5.401  0.00  0.00    +0.131 C 
ATOM     10  C   UNL     1      10.347   9.451   6.653  0.00  0.00    +0.175 C 
ATOM     11  C   UNL     1      12.759   7.068   6.179  0.00  0.00    +0.185 C 
ATOM     12  C   UNL     1      10.120   8.963   5.240  0.00  0.00    +0.194 C 
ENDROOT
BRANCH   9   5
ATOM      4  O   UNL     1      15.700   9.333   4.045  0.00  0.00    -0.253 OA
ATOM      5  N   UNL     1      14.691   8.556   5.986  0.00  0.00    -0.292 N 
ATOM      6  N   UNL     1      16.844   9.363   6.063  0.00  0.00    -0.295 N 
ATOM     14  C   UNL     1      15.741   9.106   5.253  0.00  0.00    +0.300 C 
ATOM     28  H   UNL     1      14.803   8.469   6.992  0.00  0.00    +0.151 HD
ATOM     29  H   UNL     1      16.778   9.162   7.056  0.00  0.00    +0.151 HD
BRANCH   6  16
ATOM     16  C   UNL     1      18.071   9.933   5.557  0.00  0.00    +0.141 C 
BRANCH  16  19
ATOM     19  C   UNL     1      19.163   8.910   5.449  0.00  0.00    -0.030 A 
ATOM     23  C   UNL     1      19.354   8.216   4.254  0.00  0.00    +0.005 A 
ATOM     24  C   UNL     1      19.988   8.650   6.544  0.00  0.00    +0.005 A 
ATOM     25  C   UNL     1      20.368   7.263   4.154  0.00  0.00    +0.000 A 
ATOM     26  C   UNL     1      21.003   7.698   6.444  0.00  0.00    +0.000 A 
ATOM     27  C   UNL     1      21.192   7.004   5.249  0.00  0.00    +0.000 A 
ENDBRANCH  16  19
ENDBRANCH   6  16
ENDBRANCH   9   5
BRANCH  10   3
ATOM      3  O   UNL     1       9.454   8.858   7.569  0.00  0.00    -0.367 OA
BRANCH   3  13
ATOM     13  C   UNL     1       8.635   7.867   6.952  0.00  0.00    +0.195 C 
BRANCH  13  15
ATOM     15  C   UNL     1       9.016   6.517   7.483  0.00  0.00    -0.022 A 
ATOM     17  C   UNL     1       9.013   6.281   8.858  0.00  0.00    +0.006 A 
ATOM     18  C   UNL     1       9.370   5.495   6.601  0.00  0.00    +0.006 A 
ATOM     20  C   UNL     1       9.367   5.025   9.351  0.00  0.00    +0.000 A 
ATOM     21  C   UNL     1       9.724   4.240   7.095  0.00  0.00    +0.000 A 
ATOM     22  C   UNL     1       9.722   4.005   8.469  0.00  0.00    +0.000 A 
ENDBRANCH  13  15
ENDBRANCH   3  13
ENDBRANCH  10   3
TORSDOF 6
ENDMDL
MODEL 10
REMARK VINA RESULT:      -6.3     33.073     35.710
REMARK  Name = 40481380
REMARK  6 active torsions:
REMARK  status: ('A' for Active; 'I' for Inactive)
REMARK    1  A    between atoms: O_3  and  C_10
REMARK    2  A    between atoms: O_3  and  C_13
REMARK    3  A    between atoms: N_5  and  C_9
REMARK    4  A    between atoms: N_6  and  C_16
REMARK    5  A    between atoms: C_13  and  C_15
REMARK    6  A    between atoms: C_16  and  C_19
REMARK                            x       y       z     vdW  Elec       q    Type
REMARK                         _______ _______ _______ _____ _____    ______ ____
ROOT
ATOM      1  O   UNL     1       9.117   5.890  -3.116  0.00  0.00    -0.369 OA
ATOM      2  O   UNL     1      10.002   4.899  -5.880  0.00  0.00    -0.369 OA
ATOM      7  C   UNL     1       8.877   4.541  -5.051  0.00  0.00    +0.172 C 
ATOM      8  C   UNL     1       9.363   4.565  -3.616  0.00  0.00    +0.180 C 
ATOM      9  C   UNL     1       7.830   5.629  -5.097  0.00  0.00    +0.131 C 
ATOM     10  C   UNL     1      10.839   4.288  -3.767  0.00  0.00    +0.175 C 
ATOM     11  C   UNL     1       8.362   6.630  -4.086  0.00  0.00    +0.185 C 
ATOM     12  C   UNL     1      11.170   5.011  -5.053  0.00  0.00    +0.194 C 
ENDROOT
BRANCH   9   5
ATOM      4  O   UNL     1       5.325   6.029  -6.472  0.00  0.00    -0.253 OA
ATOM      5  N   UNL     1       6.535   5.128  -4.708  0.00  0.00    -0.292 N 
ATOM      6  N   UNL     1       4.265   4.770  -4.836  0.00  0.00    -0.295 N 
ATOM     14  C   UNL     1       5.370   5.370  -5.435  0.00  0.00    +0.300 C 
ATOM     28  H   UNL     1       6.476   4.515  -3.900  0.00  0.00    +0.151 HD
ATOM     29  H   UNL     1       4.404   4.225  -3.991  0.00  0.00    +0.151 HD
BRANCH   6  16
ATOM     16  C   UNL     1       2.932   4.864  -5.384  0.00  0.00    +0.141 C 
BRANCH  16  19
ATOM     19  C   UNL     1       2.150   3.600  -5.176  0.00  0.00    -0.030 A 
ATOM     23  C   UNL     1       0.895   3.647  -4.569  0.00  0.00    +0.005 A 
ATOM     24  C   UNL     1       2.678   2.376  -5.590  0.00  0.00    +0.005 A 
ATOM     25  C   UNL     1       0.169   2.472  -4.376  0.00  0.00    +0.000 A 
ATOM     26  C   UNL     1       1.952   1.201  -5.397  0.00  0.00    +0.000 A 
ATOM     27  C   UNL     1       0.697   1.249  -4.789  0.00  0.00    +0.000 A 
ENDBRANCH  16  19
ENDBRANCH   6  16
ENDBRANCH   9   5
BRANCH  10   3
ATOM      3  O   UNL     1      11.613   4.752  -2.683  0.00  0.00    -0.367 OA
BRANCH   3  13
ATOM     13  C   UNL     1      12.387   3.709  -2.095  0.00  0.00    +0.195 C 
BRANCH  13  15
ATOM     15  C   UNL     1      12.157   3.705  -0.613  0.00  0.00    -0.022 A 
ATOM     17  C   UNL     1      10.962   4.199  -0.091  0.00  0.00    +0.006 A 
ATOM     18  C   UNL     1      13.138   3.204   0.244  0.00  0.00    +0.006 A 
ATOM     20  C   UNL     1      10.748   4.194   1.288  0.00  0.00    +0.000 A 
ATOM     21  C   UNL     1      12.924   3.200   1.622  0.00  0.00    +0.000 A 
ATOM     22  C   UNL     1      11.729   3.695   2.144  0.00  0.00    +0.000 A 
ENDBRANCH  13  15
ENDBRANCH   3  13
ENDBRANCH  10   3
TORSDOF 6
ENDMDL
