REMARK  Name = 75536065
REMARK  6 active torsions:
REMARK  status: ('A' for Active; 'I' for Inactive)
REMARK    1  A    between atoms: O_1  and  C_10
REMARK    2  A    between atoms: O_2  and  C_12
REMARK    3  A    between atoms: N_5  and  C_9
REMARK    4  A    between atoms: C_8  and  C_13
REMARK    5  A    between atoms: C_16  and  C_18
REMARK    6  A    between atoms: C_21  and  C_22
REMARK                            x       y       z     vdW  Elec       q    Type
REMARK                         _______ _______ _______ _____ _____    ______ ____
ROOT
ATOM      8  C   UNL     1       1.722   0.404   0.944  0.00  0.00    +0.046 C 
ATOM      9  C   UNL     1       0.870   1.208  -0.064  0.00  0.00    +0.112 C 
ATOM     10  C   UNL     1       1.317   2.651   0.163  0.00  0.00    +0.164 C 
ATOM     11  C   UNL     1       2.966   1.282   1.239  0.00  0.00    +0.044 C 
ATOM     12  C   UNL     1       2.823   2.521   0.357  0.00  0.00    +0.145 C 
ENDROOT
BRANCH   8  13
ATOM      6  N   UNL     1       1.905  -3.383   0.813  0.00  0.00    -0.263 NA
ATOM     13  C   UNL     1       2.046  -0.995   0.463  0.00  0.00    -0.024 A 
ATOM     14  C   UNL     1       2.752  -1.202  -0.717  0.00  0.00    +0.007 A 
ATOM     15  C   UNL     1       1.649  -2.109   1.185  0.00  0.00    +0.114 A 
ATOM     17  C   UNL     1       3.035  -2.498  -1.133  0.00  0.00    +0.020 A 
ATOM     19  C   UNL     1       2.594  -3.544  -0.340  0.00  0.00    +0.111 A 
ENDBRANCH   8  13
BRANCH   9   5
ATOM      3  O   UNL     1      -0.856  -0.714  -1.318  0.00  0.00    -0.268 OA
ATOM      5  N   UNL     1      -0.542   1.039   0.168  0.00  0.00    -0.304 N 
ATOM     16  C   UNL     1      -1.298   0.077  -0.489  0.00  0.00    +0.266 C 
ATOM     23  H   UNL     1      -0.992   1.625   0.865  0.00  0.00    +0.149 HD
BRANCH  16  18
ATOM      4  O   UNL     1      -4.601   0.620   0.795  0.00  0.00    -0.359 OA
ATOM      7  N   UNL     1      -3.246   0.918   0.724  0.00  0.00    -0.073 NA
ATOM     18  C   UNL     1      -2.746   0.049  -0.159  0.00  0.00    +0.168 A 
ATOM     20  C   UNL     1      -3.729  -0.813  -0.674  0.00  0.00    +0.080 A 
ATOM     21  C   UNL     1      -4.877  -0.413  -0.042  0.00  0.00    +0.135 A 
ATOM     22  C   UNL     1      -6.274  -0.862  -0.092  0.00  0.00    +0.089 C 
ENDBRANCH  16  18
ENDBRANCH   9   5
BRANCH  10   1
ATOM      1  O   UNL     1       1.014   3.486  -0.938  0.00  0.00    -0.387 OA
ATOM     24  H   UNL     1       1.409   4.357  -0.762  0.00  0.00    +0.210 HD
ENDBRANCH  10   1
BRANCH  12   2
ATOM      2  O   UNL     1       3.478   2.275  -0.884  0.00  0.00    -0.389 OA
ATOM     25  H   UNL     1       4.425   2.162  -0.697  0.00  0.00    +0.210 HD
ENDBRANCH  12   2
TORSDOF 5
