MODEL 1
REMARK VINA RESULT:      -6.4      0.000      0.000
REMARK  Name = 26743844
REMARK  8 active torsions:
REMARK  status: ('A' for Active; 'I' for Inactive)
REMARK    1  A    between atoms: O_1  and  C_10
REMARK    2  A    between atoms: O_4  and  C_20
REMARK    3  A    between atoms: N_5  and  C_12
REMARK    4  A    between atoms: C_8  and  C_13
REMARK    5  A    between atoms: C_12  and  C_14
REMARK    6  A    between atoms: C_16  and  C_19
REMARK    7  A    between atoms: C_17  and  C_20
REMARK    8  A    between atoms: C_23  and  C_26
REMARK                            x       y       z     vdW  Elec       q    Type
REMARK                         _______ _______ _______ _____ _____    ______ ____
ROOT
ATOM      5  N   UNL     1      13.342   5.621   1.922  0.00  0.00    -0.282 NA
ATOM      8  C   UNL     1      11.905   5.306   1.791  0.00  0.00    +0.149 C 
ATOM      9  C   UNL     1      11.859   4.035   0.923  0.00  0.00    +0.061 C 
ATOM     10  C   UNL     1      13.313   3.739   0.578  0.00  0.00    +0.130 C 
ATOM     11  C   UNL     1      13.994   5.086   0.728  0.00  0.00    +0.117 C 
ENDROOT
BRANCH   8  13
ATOM      2  O   UNL     1      10.870   3.855   3.464  0.00  0.00    -0.336 OA
ATOM      6  N   UNL     1      10.917   6.020   4.035  0.00  0.00    -0.190 NA
ATOM      7  N   UNL     1      10.267   3.938   4.725  0.00  0.00    -0.056 NA
ATOM     13  C   UNL     1      11.224   5.125   3.131  0.00  0.00    +0.245 A 
ATOM     16  C   UNL     1      10.332   5.245   4.993  0.00  0.00    +0.202 A 
BRANCH  16  19
ATOM     19  C   UNL     1       9.824   5.809   6.211  0.00  0.00    +0.023 A 
ATOM     21  C   UNL     1       9.863   5.070   7.393  0.00  0.00    +0.015 A 
ATOM     22  C   UNL     1       9.294   7.099   6.212  0.00  0.00    +0.012 A 
ATOM     23  C   UNL     1       9.371   5.620   8.577  0.00  0.00    -0.050 A 
ATOM     24  C   UNL     1       8.802   7.650   7.397  0.00  0.00    +0.001 A 
ATOM     25  C   UNL     1       8.840   6.909   8.578  0.00  0.00    +0.003 A 
ATOM     26  C   UNL     1       9.412   4.829   9.840  0.00  0.00    +0.044 C 
ENDBRANCH  16  19
ENDBRANCH   8  13
BRANCH  10   1
ATOM      1  O   UNL     1      13.425   3.238  -0.740  0.00  0.00    -0.390 OA
ATOM     27  H   UNL     1      12.782   2.514  -0.832  0.00  0.00    +0.210 HD
ENDBRANCH  10   1
BRANCH   5  12
ATOM     12  C   UNL     1      13.604   7.044   2.098  0.00  0.00    +0.159 C 
BRANCH  12  14
ATOM      3  O   UNL     1      13.808   7.157   4.521  0.00  0.00    -0.461 OA
ATOM     14  C   UNL     1      14.433   7.313   3.326  0.00  0.00    +0.119 A 
ATOM     15  C   UNL     1      15.741   7.698   3.511  0.00  0.00    +0.046 A 
ATOM     17  C   UNL     1      14.725   7.446   5.481  0.00  0.00    +0.131 A 
ATOM     18  C   UNL     1      15.930   7.785   4.911  0.00  0.00    +0.047 A 
BRANCH  17  20
ATOM     20  C   UNL     1      14.265   7.342   6.873  0.00  0.00    +0.230 C 
BRANCH  20   4
ATOM      4  O   UNL     1      13.517   6.138   7.057  0.00  0.00    -0.387 OA
ATOM     28  H   UNL     1      13.261   5.824   6.173  0.00  0.00    +0.210 HD
ENDBRANCH  20   4
ENDBRANCH  17  20
ENDBRANCH  12  14
ENDBRANCH   5  12
TORSDOF 7
ENDMDL
MODEL 2
REMARK VINA RESULT:      -6.4     23.461     26.795
REMARK  Name = 26743844
REMARK  8 active torsions:
REMARK  status: ('A' for Active; 'I' for Inactive)
REMARK    1  A    between atoms: O_1  and  C_10
REMARK    2  A    between atoms: O_4  and  C_20
REMARK    3  A    between atoms: N_5  and  C_12
REMARK    4  A    between atoms: C_8  and  C_13
REMARK    5  A    between atoms: C_12  and  C_14
REMARK    6  A    between atoms: C_16  and  C_19
REMARK    7  A    between atoms: C_17  and  C_20
REMARK    8  A    between atoms: C_23  and  C_26
REMARK                            x       y       z     vdW  Elec       q    Type
REMARK                         _______ _______ _______ _____ _____    ______ ____
ROOT
ATOM      5  N   UNL     1      -8.043  -9.744  16.348  0.00  0.00    -0.282 NA
ATOM      8  C   UNL     1      -8.895  -9.713  15.142  0.00  0.00    +0.149 C 
ATOM      9  C   UNL     1      -9.761  -8.451  15.305  0.00  0.00    +0.061 C 
ATOM     10  C   UNL     1      -9.358  -7.866  16.652  0.00  0.00    +0.130 C 
ATOM     11  C   UNL     1      -8.789  -9.058  17.400  0.00  0.00    +0.117 C 
ENDROOT
BRANCH   8  13
ATOM      2  O   UNL     1      -8.791  -9.825  12.702  0.00  0.00    -0.336 OA
ATOM      6  N   UNL     1      -6.794  -9.608  13.692  0.00  0.00    -0.190 NA
ATOM      7  N   UNL     1      -7.846  -9.797  11.669  0.00  0.00    -0.056 NA
ATOM     13  C   UNL     1      -8.088  -9.708  13.859  0.00  0.00    +0.245 A 
ATOM     16  C   UNL     1      -6.694  -9.668  12.333  0.00  0.00    +0.202 A 
BRANCH  16  19
ATOM     19  C   UNL     1      -5.424  -9.592  11.668  0.00  0.00    +0.023 A 
ATOM     21  C   UNL     1      -4.321 -10.267  12.190  0.00  0.00    +0.015 A 
ATOM     22  C   UNL     1      -5.295  -8.845  10.497  0.00  0.00    +0.012 A 
ATOM     23  C   UNL     1      -3.088 -10.196  11.542  0.00  0.00    -0.050 A 
ATOM     24  C   UNL     1      -4.061  -8.773   9.849  0.00  0.00    +0.001 A 
ATOM     25  C   UNL     1      -2.958  -9.448  10.372  0.00  0.00    +0.003 A 
ATOM     26  C   UNL     1      -1.909 -10.917  12.101  0.00  0.00    +0.044 C 
ENDBRANCH  16  19
ENDBRANCH   8  13
BRANCH  10   1
ATOM      1  O   UNL     1     -10.478  -7.315  17.316  0.00  0.00    -0.390 OA
ATOM     27  H   UNL     1     -10.148  -6.645  17.938  0.00  0.00    +0.210 HD
ENDBRANCH  10   1
BRANCH   5  12
ATOM     12  C   UNL     1      -7.655 -11.093  16.742  0.00  0.00    +0.159 C 
BRANCH  12  14
ATOM      3  O   UNL     1      -5.271 -11.049  16.253  0.00  0.00    -0.461 OA
ATOM     14  C   UNL     1      -6.226 -11.150  17.214  0.00  0.00    +0.119 A 
ATOM     15  C   UNL     1      -5.651 -11.286  18.456  0.00  0.00    +0.046 A 
ATOM     17  C   UNL     1      -4.072 -11.123  16.888  0.00  0.00    +0.131 A 
ATOM     18  C   UNL     1      -4.251 -11.270  18.244  0.00  0.00    +0.047 A 
BRANCH  17  20
ATOM     20  C   UNL     1      -2.878 -11.035  16.035  0.00  0.00    +0.230 C 
BRANCH  20   4
ATOM      4  O   UNL     1      -1.694 -11.077  16.836  0.00  0.00    -0.387 OA
ATOM     28  H   UNL     1      -1.565 -12.003  17.103  0.00  0.00    +0.210 HD
ENDBRANCH  20   4
ENDBRANCH  17  20
ENDBRANCH  12  14
ENDBRANCH   5  12
TORSDOF 7
ENDMDL
MODEL 3
REMARK VINA RESULT:      -6.4     23.219     26.525
REMARK  Name = 26743844
REMARK  8 active torsions:
REMARK  status: ('A' for Active; 'I' for Inactive)
REMARK    1  A    between atoms: O_1  and  C_10
REMARK    2  A    between atoms: O_4  and  C_20
REMARK    3  A    between atoms: N_5  and  C_12
REMARK    4  A    between atoms: C_8  and  C_13
REMARK    5  A    between atoms: C_12  and  C_14
REMARK    6  A    between atoms: C_16  and  C_19
REMARK    7  A    between atoms: C_17  and  C_20
REMARK    8  A    between atoms: C_23  and  C_26
REMARK                            x       y       z     vdW  Elec       q    Type
REMARK                         _______ _______ _______ _____ _____    ______ ____
ROOT
ATOM      5  N   UNL     1      -3.455 -10.628  14.769  0.00  0.00    -0.282 NA
ATOM      8  C   UNL     1      -3.492 -11.339  16.063  0.00  0.00    +0.149 C 
ATOM      9  C   UNL     1      -2.161 -10.980  16.748  0.00  0.00    +0.061 C 
ATOM     10  C   UNL     1      -1.425 -10.102  15.744  0.00  0.00    +0.130 C 
ATOM     11  C   UNL     1      -2.045 -10.488  14.414  0.00  0.00    +0.117 C 
ENDROOT
BRANCH   8  13
ATOM      2  O   UNL     1      -4.573 -11.111  18.243  0.00  0.00    -0.336 OA
ATOM      6  N   UNL     1      -5.868 -10.519  16.515  0.00  0.00    -0.190 NA
ATOM      7  N   UNL     1      -5.798 -10.712  18.793  0.00  0.00    -0.056 NA
ATOM     13  C   UNL     1      -4.700 -10.966  16.898  0.00  0.00    +0.245 A 
ATOM     16  C   UNL     1      -6.508 -10.378  17.712  0.00  0.00    +0.202 A 
BRANCH  16  19
ATOM     19  C   UNL     1      -7.857  -9.898  17.793  0.00  0.00    +0.023 A 
ATOM     21  C   UNL     1      -8.759 -10.492  18.676  0.00  0.00    +0.015 A 
ATOM     22  C   UNL     1      -8.267  -8.834  16.989  0.00  0.00    +0.012 A 
ATOM     23  C   UNL     1     -10.070 -10.023  18.755  0.00  0.00    -0.050 A 
ATOM     24  C   UNL     1      -9.579  -8.364  17.069  0.00  0.00    +0.001 A 
ATOM     25  C   UNL     1     -10.480  -8.960  17.952  0.00  0.00    +0.003 A 
ATOM     26  C   UNL     1     -11.033 -10.659  19.699  0.00  0.00    +0.044 C 
ENDBRANCH  16  19
ENDBRANCH   8  13
BRANCH  10   1
ATOM      1  O   UNL     1      -0.036 -10.363  15.772  0.00  0.00    -0.390 OA
ATOM     27  H   UNL     1       0.169 -10.762  16.635  0.00  0.00    +0.210 HD
ENDBRANCH  10   1
BRANCH   5  12
ATOM     12  C   UNL     1      -4.219 -11.297  13.724  0.00  0.00    +0.159 C 
BRANCH  12  14
ATOM      3  O   UNL     1      -4.284  -9.966  11.687  0.00  0.00    -0.461 OA
ATOM     14  C   UNL     1      -4.928 -10.314  12.831  0.00  0.00    +0.119 A 
ATOM     15  C   UNL     1      -6.137  -9.662  12.923  0.00  0.00    +0.046 A 
ATOM     17  C   UNL     1      -5.089  -9.083  11.041  0.00  0.00    +0.131 A 
ATOM     18  C   UNL     1      -6.240  -8.862  11.759  0.00  0.00    +0.047 A 
BRANCH  17  20
ATOM     20  C   UNL     1      -4.588  -8.565   9.759  0.00  0.00    +0.230 C 
BRANCH  20   4
ATOM      4  O   UNL     1      -5.639  -7.904   9.049  0.00  0.00    -0.387 OA
ATOM     28  H   UNL     1      -5.792  -7.054   9.496  0.00  0.00    +0.210 HD
ENDBRANCH  20   4
ENDBRANCH  17  20
ENDBRANCH  12  14
ENDBRANCH   5  12
TORSDOF 7
ENDMDL
MODEL 4
REMARK VINA RESULT:      -6.3     23.855     27.668
REMARK  Name = 26743844
REMARK  8 active torsions:
REMARK  status: ('A' for Active; 'I' for Inactive)
REMARK    1  A    between atoms: O_1  and  C_10
REMARK    2  A    between atoms: O_4  and  C_20
REMARK    3  A    between atoms: N_5  and  C_12
REMARK    4  A    between atoms: C_8  and  C_13
REMARK    5  A    between atoms: C_12  and  C_14
REMARK    6  A    between atoms: C_16  and  C_19
REMARK    7  A    between atoms: C_17  and  C_20
REMARK    8  A    between atoms: C_23  and  C_26
REMARK                            x       y       z     vdW  Elec       q    Type
REMARK                         _______ _______ _______ _____ _____    ______ ____
ROOT
ATOM      5  N   UNL     1      -7.270 -10.720  17.513  0.00  0.00    -0.282 NA
ATOM      8  C   UNL     1      -5.900 -10.995  17.991  0.00  0.00    +0.149 C 
ATOM      9  C   UNL     1      -5.984 -12.386  18.647  0.00  0.00    +0.061 C 
ATOM     10  C   UNL     1      -7.448 -12.790  18.530  0.00  0.00    +0.130 C 
ATOM     11  C   UNL     1      -8.172 -11.463  18.390  0.00  0.00    +0.117 C 
ENDROOT
BRANCH   8  13
ATOM      2  O   UNL     1      -3.581 -11.165  17.237  0.00  0.00    -0.336 OA
ATOM      6  N   UNL     1      -5.039 -10.686  15.606  0.00  0.00    -0.190 NA
ATOM      7  N   UNL     1      -2.828 -11.055  16.061  0.00  0.00    -0.056 NA
ATOM     13  C   UNL     1      -4.872 -10.934  16.880  0.00  0.00    +0.245 A 
ATOM     16  C   UNL     1      -3.758 -10.771  15.145  0.00  0.00    +0.202 A 
BRANCH  16  19
ATOM     19  C   UNL     1      -3.441 -10.569  13.761  0.00  0.00    +0.023 A 
ATOM     21  C   UNL     1      -4.464 -10.427  12.823  0.00  0.00    +0.015 A 
ATOM     22  C   UNL     1      -2.109 -10.512  13.352  0.00  0.00    +0.012 A 
ATOM     23  C   UNL     1      -4.156 -10.228  11.478  0.00  0.00    -0.050 A 
ATOM     24  C   UNL     1      -1.800 -10.313  12.006  0.00  0.00    +0.001 A 
ATOM     25  C   UNL     1      -2.823 -10.172  11.069  0.00  0.00    +0.003 A 
ATOM     26  C   UNL     1      -5.249 -10.077  10.476  0.00  0.00    +0.044 C 
ENDBRANCH  16  19
ENDBRANCH   8  13
BRANCH  10   1
ATOM      1  O   UNL     1      -7.868 -13.498  19.680  0.00  0.00    -0.390 OA
ATOM     27  H   UNL     1      -8.735 -13.143  19.941  0.00  0.00    +0.210 HD
ENDBRANCH  10   1
BRANCH   5  12
ATOM     12  C   UNL     1      -7.590  -9.299  17.475  0.00  0.00    +0.159 C 
BRANCH  12  14
ATOM      3  O   UNL     1      -9.413  -7.903  16.666  0.00  0.00    -0.461 OA
ATOM     14  C   UNL     1      -8.627  -8.985  16.430  0.00  0.00    +0.119 A 
ATOM     15  C   UNL     1      -8.969  -9.579  15.237  0.00  0.00    +0.046 A 
ATOM     17  C   UNL     1     -10.266  -7.804  15.614  0.00  0.00    +0.131 A 
ATOM     18  C   UNL     1     -10.034  -8.811  14.707  0.00  0.00    +0.047 A 
BRANCH  17  20
ATOM     20  C   UNL     1     -11.222  -6.688  15.655  0.00  0.00    +0.230 C 
BRANCH  20   4
ATOM      4  O   UNL     1     -10.959  -5.853  16.786  0.00  0.00    -0.387 OA
ATOM     28  H   UNL     1     -10.927  -4.937  16.460  0.00  0.00    +0.210 HD
ENDBRANCH  20   4
ENDBRANCH  17  20
ENDBRANCH  12  14
ENDBRANCH   5  12
TORSDOF 7
ENDMDL
MODEL 5
REMARK VINA RESULT:      -6.3     22.833     25.565
REMARK  Name = 26743844
REMARK  8 active torsions:
REMARK  status: ('A' for Active; 'I' for Inactive)
REMARK    1  A    between atoms: O_1  and  C_10
REMARK    2  A    between atoms: O_4  and  C_20
REMARK    3  A    between atoms: N_5  and  C_12
REMARK    4  A    between atoms: C_8  and  C_13
REMARK    5  A    between atoms: C_12  and  C_14
REMARK    6  A    between atoms: C_16  and  C_19
REMARK    7  A    between atoms: C_17  and  C_20
REMARK    8  A    between atoms: C_23  and  C_26
REMARK                            x       y       z     vdW  Elec       q    Type
REMARK                         _______ _______ _______ _____ _____    ______ ____
ROOT
ATOM      5  N   UNL     1      -4.126 -11.436  10.480  0.00  0.00    -0.282 NA
ATOM      8  C   UNL     1      -3.083 -10.573  11.068  0.00  0.00    +0.149 C 
ATOM      9  C   UNL     1      -3.368  -9.170  10.502  0.00  0.00    +0.061 C 
ATOM     10  C   UNL     1      -4.561  -9.354   9.572  0.00  0.00    +0.130 C 
ATOM     11  C   UNL     1      -4.501 -10.825   9.206  0.00  0.00    +0.117 C 
ENDROOT
BRANCH   8  13
ATOM      2  O   UNL     1      -1.870 -10.649  13.189  0.00  0.00    -0.336 OA
ATOM      6  N   UNL     1      -4.097 -10.598  13.412  0.00  0.00    -0.190 NA
ATOM      7  N   UNL     1      -2.123 -10.673  14.565  0.00  0.00    -0.056 NA
ATOM     13  C   UNL     1      -3.085 -10.605  12.582  0.00  0.00    +0.245 A 
ATOM     16  C   UNL     1      -3.458 -10.641  14.616  0.00  0.00    +0.202 A 
BRANCH  16  19
ATOM     19  C   UNL     1      -4.184 -10.648  15.854  0.00  0.00    +0.023 A 
ATOM     21  C   UNL     1      -3.680 -11.340  16.955  0.00  0.00    +0.015 A 
ATOM     22  C   UNL     1      -5.393  -9.961  15.955  0.00  0.00    +0.012 A 
ATOM     23  C   UNL     1      -4.385 -11.344  18.159  0.00  0.00    -0.050 A 
ATOM     24  C   UNL     1      -6.099  -9.965  17.160  0.00  0.00    +0.001 A 
ATOM     25  C   UNL     1      -5.595 -10.658  18.261  0.00  0.00    +0.003 A 
ATOM     26  C   UNL     1      -3.846 -12.084  19.336  0.00  0.00    +0.044 C 
ENDBRANCH  16  19
ENDBRANCH   8  13
BRANCH  10   1
ATOM      1  O   UNL     1      -4.442  -8.524   8.433  0.00  0.00    -0.390 OA
ATOM     27  H   UNL     1      -5.342  -8.320   8.126  0.00  0.00    +0.210 HD
ENDBRANCH  10   1
BRANCH   5  12
ATOM     12  C   UNL     1      -3.702 -12.821  10.319  0.00  0.00    +0.159 C 
BRANCH  12  14
ATOM      3  O   UNL     1      -2.630 -14.012  12.152  0.00  0.00    -0.461 OA
ATOM     14  C   UNL     1      -3.802 -13.591  11.610  0.00  0.00    +0.119 A 
ATOM     15  C   UNL     1      -4.864 -13.979  12.394  0.00  0.00    +0.046 A 
ATOM     17  C   UNL     1      -2.946 -14.675  13.295  0.00  0.00    +0.131 A 
ATOM     18  C   UNL     1      -4.308 -14.684  13.488  0.00  0.00    +0.047 A 
BRANCH  17  20
ATOM     20  C   UNL     1      -1.819 -15.226  14.060  0.00  0.00    +0.230 C 
BRANCH  20   4
ATOM      4  O   UNL     1      -2.287 -15.809  15.279  0.00  0.00    -0.387 OA
ATOM     28  H   UNL     1      -1.508 -15.942  15.847  0.00  0.00    +0.210 HD
ENDBRANCH  20   4
ENDBRANCH  17  20
ENDBRANCH  12  14
ENDBRANCH   5  12
TORSDOF 7
ENDMDL
MODEL 6
REMARK VINA RESULT:      -6.2     23.096     25.140
REMARK  Name = 26743844
REMARK  8 active torsions:
REMARK  status: ('A' for Active; 'I' for Inactive)
REMARK    1  A    between atoms: O_1  and  C_10
REMARK    2  A    between atoms: O_4  and  C_20
REMARK    3  A    between atoms: N_5  and  C_12
REMARK    4  A    between atoms: C_8  and  C_13
REMARK    5  A    between atoms: C_12  and  C_14
REMARK    6  A    between atoms: C_16  and  C_19
REMARK    7  A    between atoms: C_17  and  C_20
REMARK    8  A    between atoms: C_23  and  C_26
REMARK                            x       y       z     vdW  Elec       q    Type
REMARK                         _______ _______ _______ _____ _____    ______ ____
ROOT
ATOM      5  N   UNL     1      -4.202 -10.091  10.498  0.00  0.00    -0.282 NA
ATOM      8  C   UNL     1      -5.105  -9.221  11.278  0.00  0.00    +0.149 C 
ATOM      9  C   UNL     1      -6.256  -8.882  10.313  0.00  0.00    +0.061 C 
ATOM     10  C   UNL     1      -5.888  -9.567   9.003  0.00  0.00    +0.130 C 
ATOM     11  C   UNL     1      -4.381  -9.722   9.095  0.00  0.00    +0.117 C 
ENDROOT
BRANCH   8  13
ATOM      2  O   UNL     1      -6.331 -11.006  12.412  0.00  0.00    -0.336 OA
ATOM      6  N   UNL     1      -5.393  -9.520  13.799  0.00  0.00    -0.190 NA
ATOM      7  N   UNL     1      -6.656 -11.425  13.708  0.00  0.00    -0.056 NA
ATOM     13  C   UNL     1      -5.587  -9.879  12.555  0.00  0.00    +0.245 A 
ATOM     16  C   UNL     1      -6.067 -10.497  14.469  0.00  0.00    +0.202 A 
BRANCH  16  19
ATOM     19  C   UNL     1      -6.132 -10.520  15.902  0.00  0.00    +0.023 A 
ATOM     21  C   UNL     1      -5.117 -11.132  16.638  0.00  0.00    +0.015 A 
ATOM     22  C   UNL     1      -7.209  -9.927  16.560  0.00  0.00    +0.012 A 
ATOM     23  C   UNL     1      -5.179 -11.152  18.031  0.00  0.00    -0.050 A 
ATOM     24  C   UNL     1      -7.272  -9.947  17.955  0.00  0.00    +0.001 A 
ATOM     25  C   UNL     1      -6.257 -10.560  18.689  0.00  0.00    +0.003 A 
ATOM     26  C   UNL     1      -4.094 -11.807  18.817  0.00  0.00    +0.044 C 
ENDBRANCH  16  19
ENDBRANCH   8  13
BRANCH  10   1
ATOM      1  O   UNL     1      -6.268  -8.773   7.897  0.00  0.00    -0.390 OA
ATOM     27  H   UNL     1      -6.888  -8.098   8.222  0.00  0.00    +0.210 HD
ENDBRANCH  10   1
BRANCH   5  12
ATOM     12  C   UNL     1      -2.809  -9.995  10.916  0.00  0.00    +0.159 C 
BRANCH  12  14
ATOM      3  O   UNL     1      -2.129 -10.310  13.232  0.00  0.00    -0.461 OA
ATOM     14  C   UNL     1      -2.507 -10.910  12.073  0.00  0.00    +0.119 A 
ATOM     15  C   UNL     1      -2.532 -12.277  12.222  0.00  0.00    +0.046 A 
ATOM     17  C   UNL     1      -1.909 -11.305  14.131  0.00  0.00    +0.131 A 
ATOM     18  C   UNL     1      -2.142 -12.534  13.559  0.00  0.00    +0.047 A 
BRANCH  17  20
ATOM     20  C   UNL     1      -1.484 -10.885  15.474  0.00  0.00    +0.230 C 
BRANCH  20   4
ATOM      4  O   UNL     1      -1.232  -9.478  15.496  0.00  0.00    -0.387 OA
ATOM     28  H   UNL     1      -0.319  -9.359  15.809  0.00  0.00    +0.210 HD
ENDBRANCH  20   4
ENDBRANCH  17  20
ENDBRANCH  12  14
ENDBRANCH   5  12
TORSDOF 7
ENDMDL
MODEL 7
REMARK VINA RESULT:      -6.1     22.493     26.308
REMARK  Name = 26743844
REMARK  8 active torsions:
REMARK  status: ('A' for Active; 'I' for Inactive)
REMARK    1  A    between atoms: O_1  and  C_10
REMARK    2  A    between atoms: O_4  and  C_20
REMARK    3  A    between atoms: N_5  and  C_12
REMARK    4  A    between atoms: C_8  and  C_13
REMARK    5  A    between atoms: C_12  and  C_14
REMARK    6  A    between atoms: C_16  and  C_19
REMARK    7  A    between atoms: C_17  and  C_20
REMARK    8  A    between atoms: C_23  and  C_26
REMARK                            x       y       z     vdW  Elec       q    Type
REMARK                         _______ _______ _______ _____ _____    ______ ____
ROOT
ATOM      5  N   UNL     1      -6.414 -10.600  16.716  0.00  0.00    -0.282 NA
ATOM      8  C   UNL     1      -7.507 -10.944  15.784  0.00  0.00    +0.149 C 
ATOM      9  C   UNL     1      -8.623  -9.930  16.097  0.00  0.00    +0.061 C 
ATOM     10  C   UNL     1      -8.083  -9.091  17.248  0.00  0.00    +0.130 C 
ATOM     11  C   UNL     1      -7.043  -9.992  17.886  0.00  0.00    +0.117 C 
ENDROOT
BRANCH   8  13
ATOM      2  O   UNL     1      -7.704 -11.757  13.487  0.00  0.00    -0.336 OA
ATOM      6  N   UNL     1      -6.157 -10.162  13.761  0.00  0.00    -0.190 NA
ATOM      7  N   UNL     1      -7.139 -11.542  12.224  0.00  0.00    -0.056 NA
ATOM     13  C   UNL     1      -7.070 -10.904  14.334  0.00  0.00    +0.245 A 
ATOM     16  C   UNL     1      -6.236 -10.589  12.468  0.00  0.00    +0.202 A 
BRANCH  16  19
ATOM     19  C   UNL     1      -5.397 -10.039  11.442  0.00  0.00    +0.023 A 
ATOM     21  C   UNL     1      -4.023  -9.924  11.649  0.00  0.00    +0.015 A 
ATOM     22  C   UNL     1      -5.958  -9.622  10.234  0.00  0.00    +0.012 A 
ATOM     23  C   UNL     1      -3.208  -9.392  10.650  0.00  0.00    -0.050 A 
ATOM     24  C   UNL     1      -5.142  -9.089   9.234  0.00  0.00    +0.001 A 
ATOM     25  C   UNL     1      -3.768  -8.974   9.442  0.00  0.00    +0.003 A 
ATOM     26  C   UNL     1      -1.739  -9.269  10.872  0.00  0.00    +0.044 C 
ENDBRANCH  16  19
ENDBRANCH   8  13
BRANCH  10   1
ATOM      1  O   UNL     1      -9.116  -8.758  18.154  0.00  0.00    -0.390 OA
ATOM     27  H   UNL     1      -8.702  -8.337  18.927  0.00  0.00    +0.210 HD
ENDBRANCH  10   1
BRANCH   5  12
ATOM     12  C   UNL     1      -5.583 -11.744  17.072  0.00  0.00    +0.159 C 
BRANCH  12  14
ATOM      3  O   UNL     1      -3.362 -10.917  16.516  0.00  0.00    -0.461 OA
ATOM     14  C   UNL     1      -4.338 -11.817  16.229  0.00  0.00    +0.119 A 
ATOM     15  C   UNL     1      -3.955 -12.630  15.187  0.00  0.00    +0.046 A 
ATOM     17  C   UNL     1      -2.345 -11.156  15.648  0.00  0.00    +0.131 A 
ATOM     18  C   UNL     1      -2.660 -12.199  14.809  0.00  0.00    +0.047 A 
BRANCH  17  20
ATOM     20  C   UNL     1      -1.164 -10.290  15.776  0.00  0.00    +0.230 C 
BRANCH  20   4
ATOM      4  O   UNL     1      -1.134  -9.335  14.712  0.00  0.00    -0.387 OA
ATOM     28  H   UNL     1      -0.741  -9.781  13.942  0.00  0.00    +0.210 HD
ENDBRANCH  20   4
ENDBRANCH  17  20
ENDBRANCH  12  14
ENDBRANCH   5  12
TORSDOF 7
ENDMDL
MODEL 8
REMARK VINA RESULT:      -6.1     23.710     27.358
REMARK  Name = 26743844
REMARK  8 active torsions:
REMARK  status: ('A' for Active; 'I' for Inactive)
REMARK    1  A    between atoms: O_1  and  C_10
REMARK    2  A    between atoms: O_4  and  C_20
REMARK    3  A    between atoms: N_5  and  C_12
REMARK    4  A    between atoms: C_8  and  C_13
REMARK    5  A    between atoms: C_12  and  C_14
REMARK    6  A    between atoms: C_16  and  C_19
REMARK    7  A    between atoms: C_17  and  C_20
REMARK    8  A    between atoms: C_23  and  C_26
REMARK                            x       y       z     vdW  Elec       q    Type
REMARK                         _______ _______ _______ _____ _____    ______ ____
ROOT
ATOM      5  N   UNL     1      -4.506 -10.815  14.898  0.00  0.00    -0.282 NA
ATOM      8  C   UNL     1      -4.970 -11.388  16.177  0.00  0.00    +0.149 C 
ATOM      9  C   UNL     1      -3.782 -11.214  17.141  0.00  0.00    +0.061 C 
ATOM     10  C   UNL     1      -2.682 -10.576  16.301  0.00  0.00    +0.130 C 
ATOM     11  C   UNL     1      -3.052 -10.963  14.881  0.00  0.00    +0.117 C 
ENDROOT
BRANCH   8  13
ATOM      2  O   UNL     1      -6.391  -9.412  16.397  0.00  0.00    -0.336 OA
ATOM      6  N   UNL     1      -7.223 -11.247  17.372  0.00  0.00    -0.190 NA
ATOM      7  N   UNL     1      -7.615  -9.031  16.960  0.00  0.00    -0.056 NA
ATOM     13  C   UNL     1      -6.237 -10.731  16.685  0.00  0.00    +0.245 A 
ATOM     16  C   UNL     1      -8.044 -10.168  17.517  0.00  0.00    +0.202 A 
BRANCH  16  19
ATOM     19  C   UNL     1      -9.290 -10.259  18.223  0.00  0.00    +0.023 A 
ATOM     21  C   UNL     1     -10.459  -9.765  17.645  0.00  0.00    +0.015 A 
ATOM     22  C   UNL     1      -9.332 -10.844  19.489  0.00  0.00    +0.012 A 
ATOM     23  C   UNL     1     -11.670  -9.856  18.331  0.00  0.00    -0.050 A 
ATOM     24  C   UNL     1     -10.543 -10.935  20.175  0.00  0.00    +0.001 A 
ATOM     25  C   UNL     1     -11.712 -10.440  19.596  0.00  0.00    +0.003 A 
ATOM     26  C   UNL     1     -12.919  -9.327  17.712  0.00  0.00    +0.044 C 
ENDBRANCH  16  19
ENDBRANCH   8  13
BRANCH  10   1
ATOM      1  O   UNL     1      -1.413 -11.080  16.669  0.00  0.00    -0.390 OA
ATOM     27  H   UNL     1      -0.743 -10.481  16.298  0.00  0.00    +0.210 HD
ENDBRANCH  10   1
BRANCH   5  12
ATOM     12  C   UNL     1      -5.133 -11.427  13.734  0.00  0.00    +0.159 C 
BRANCH  12  14
ATOM      3  O   UNL     1      -4.572 -10.678  11.486  0.00  0.00    -0.461 OA
ATOM     14  C   UNL     1      -5.303 -10.443  12.607  0.00  0.00    +0.119 A 
ATOM     15  C   UNL     1      -6.069  -9.310  12.455  0.00  0.00    +0.046 A 
ATOM     17  C   UNL     1      -4.874  -9.685  10.609  0.00  0.00    +0.131 A 
ATOM     18  C   UNL     1      -5.789  -8.818  11.158  0.00  0.00    +0.047 A 
BRANCH  17  20
ATOM     20  C   UNL     1      -4.191  -9.737   9.309  0.00  0.00    +0.230 C 
BRANCH  20   4
ATOM      4  O   UNL     1      -4.399  -8.517   8.593  0.00  0.00    -0.387 OA
ATOM     28  H   UNL     1      -3.530  -8.090   8.500  0.00  0.00    +0.210 HD
ENDBRANCH  20   4
ENDBRANCH  17  20
ENDBRANCH  12  14
ENDBRANCH   5  12
TORSDOF 7
ENDMDL
MODEL 9
REMARK VINA RESULT:      -6.0     24.049     28.150
REMARK  Name = 26743844
REMARK  8 active torsions:
REMARK  status: ('A' for Active; 'I' for Inactive)
REMARK    1  A    between atoms: O_1  and  C_10
REMARK    2  A    between atoms: O_4  and  C_20
REMARK    3  A    between atoms: N_5  and  C_12
REMARK    4  A    between atoms: C_8  and  C_13
REMARK    5  A    between atoms: C_12  and  C_14
REMARK    6  A    between atoms: C_16  and  C_19
REMARK    7  A    between atoms: C_17  and  C_20
REMARK    8  A    between atoms: C_23  and  C_26
REMARK                            x       y       z     vdW  Elec       q    Type
REMARK                         _______ _______ _______ _____ _____    ______ ____
ROOT
ATOM      5  N   UNL     1      -6.973 -11.934  17.510  0.00  0.00    -0.282 NA
ATOM      8  C   UNL     1      -6.046 -10.806  17.292  0.00  0.00    +0.149 C 
ATOM      9  C   UNL     1      -5.248 -10.694  18.604  0.00  0.00    +0.061 C 
ATOM     10  C   UNL     1      -5.830 -11.770  19.513  0.00  0.00    +0.130 C 
ATOM     11  C   UNL     1      -7.220 -11.997  18.949  0.00  0.00    +0.117 C 
ENDROOT
BRANCH   8  13
ATOM      2  O   UNL     1      -4.436 -12.159  16.046  0.00  0.00    -0.336 OA
ATOM      6  N   UNL     1      -4.972 -10.228  15.048  0.00  0.00    -0.190 NA
ATOM      7  N   UNL     1      -3.703 -12.121  14.854  0.00  0.00    -0.056 NA
ATOM     13  C   UNL     1      -5.157 -11.008  16.082  0.00  0.00    +0.245 A 
ATOM     16  C   UNL     1      -4.073 -10.952  14.322  0.00  0.00    +0.202 A 
BRANCH  16  19
ATOM     19  C   UNL     1      -3.564 -10.480  13.066  0.00  0.00    +0.023 A 
ATOM     21  C   UNL     1      -4.443 -10.034  12.080  0.00  0.00    +0.015 A 
ATOM     22  C   UNL     1      -2.189 -10.465  12.834  0.00  0.00    +0.012 A 
ATOM     23  C   UNL     1      -3.948  -9.573  10.860  0.00  0.00    -0.050 A 
ATOM     24  C   UNL     1      -1.693 -10.004  11.613  0.00  0.00    +0.001 A 
ATOM     25  C   UNL     1      -2.573  -9.558  10.627  0.00  0.00    +0.003 A 
ATOM     26  C   UNL     1      -4.888  -9.096   9.805  0.00  0.00    +0.044 C 
ENDBRANCH  16  19
ENDBRANCH   8  13
BRANCH  10   1
ATOM      1  O   UNL     1      -5.874 -11.324  20.854  0.00  0.00    -0.390 OA
ATOM     27  H   UNL     1      -6.372 -11.985  21.365  0.00  0.00    +0.210 HD
ENDBRANCH  10   1
BRANCH   5  12
ATOM     12  C   UNL     1      -8.210 -11.816  16.747  0.00  0.00    +0.159 C 
BRANCH  12  14
ATOM      3  O   UNL     1     -10.011 -11.018  18.176  0.00  0.00    -0.461 OA
ATOM     14  C   UNL     1      -9.073 -10.690  17.250  0.00  0.00    +0.119 A 
ATOM     15  C   UNL     1      -9.124  -9.345  16.965  0.00  0.00    +0.046 A 
ATOM     17  C   UNL     1     -10.668  -9.870  18.487  0.00  0.00    +0.131 A 
ATOM     18  C   UNL     1     -10.161  -8.813  17.769  0.00  0.00    +0.047 A 
BRANCH  17  20
ATOM     20  C   UNL     1     -11.741  -9.986  19.485  0.00  0.00    +0.230 C 
BRANCH  20   4
ATOM      4  O   UNL     1     -11.190 -10.003  20.804  0.00  0.00    -0.387 OA
ATOM     28  H   UNL     1     -11.934 -10.108  21.421  0.00  0.00    +0.210 HD
ENDBRANCH  20   4
ENDBRANCH  17  20
ENDBRANCH  12  14
ENDBRANCH   5  12
TORSDOF 7
ENDMDL
MODEL 10
REMARK VINA RESULT:      -6.0      2.648      6.683
REMARK  Name = 26743844
REMARK  8 active torsions:
REMARK  status: ('A' for Active; 'I' for Inactive)
REMARK    1  A    between atoms: O_1  and  C_10
REMARK    2  A    between atoms: O_4  and  C_20
REMARK    3  A    between atoms: N_5  and  C_12
REMARK    4  A    between atoms: C_8  and  C_13
REMARK    5  A    between atoms: C_12  and  C_14
REMARK    6  A    between atoms: C_16  and  C_19
REMARK    7  A    between atoms: C_17  and  C_20
REMARK    8  A    between atoms: C_23  and  C_26
REMARK                            x       y       z     vdW  Elec       q    Type
REMARK                         _______ _______ _______ _____ _____    ______ ____
ROOT
ATOM      5  N   UNL     1      10.663   8.480   4.848  0.00  0.00    -0.282 NA
ATOM      8  C   UNL     1       9.687   7.444   4.454  0.00  0.00    +0.149 C 
ATOM      9  C   UNL     1       8.656   8.186   3.584  0.00  0.00    +0.061 C 
ATOM     10  C   UNL     1       9.110   9.640   3.585  0.00  0.00    +0.130 C 
ATOM     11  C   UNL     1       9.941   9.750   4.850  0.00  0.00    +0.117 C 
ENDROOT
BRANCH   8  13
ATOM      2  O   UNL     1      10.192   5.057   4.307  0.00  0.00    -0.336 OA
ATOM      6  N   UNL     1      11.020   6.271   2.618  0.00  0.00    -0.190 NA
ATOM      7  N   UNL     1      10.862   4.155   3.472  0.00  0.00    -0.056 NA
ATOM     13  C   UNL     1      10.333   6.280   3.731  0.00  0.00    +0.245 A 
ATOM     16  C   UNL     1      11.323   4.947   2.500  0.00  0.00    +0.202 A 
BRANCH  16  19
ATOM     19  C   UNL     1      12.089   4.445   1.395  0.00  0.00    +0.023 A 
ATOM     21  C   UNL     1      13.477   4.356   1.489  0.00  0.00    +0.015 A 
ATOM     22  C   UNL     1      11.442   4.044   0.225  0.00  0.00    +0.012 A 
ATOM     23  C   UNL     1      14.220   3.867   0.415  0.00  0.00    -0.050 A 
ATOM     24  C   UNL     1      12.185   3.554  -0.850  0.00  0.00    +0.001 A 
ATOM     25  C   UNL     1      13.574   3.466  -0.755  0.00  0.00    +0.003 A 
ATOM     26  C   UNL     1      15.705   3.773   0.516  0.00  0.00    +0.044 C 
ENDBRANCH  16  19
ENDBRANCH   8  13
BRANCH  10   1
ATOM      1  O   UNL     1       7.999  10.514   3.608  0.00  0.00    -0.390 OA
ATOM     27  H   UNL     1       7.198   9.970   3.513  0.00  0.00    +0.210 HD
ENDBRANCH  10   1
BRANCH   5  12
ATOM     12  C   UNL     1      11.301   8.210   6.130  0.00  0.00    +0.159 C 
BRANCH  12  14
ATOM      3  O   UNL     1      10.568   6.282   7.423  0.00  0.00    -0.461 OA
ATOM     14  C   UNL     1      10.345   7.585   7.111  0.00  0.00    +0.119 A 
ATOM     15  C   UNL     1       9.249   8.064   7.791  0.00  0.00    +0.046 A 
ATOM     17  C   UNL     1       9.604   5.924   8.311  0.00  0.00    +0.131 A 
ATOM     18  C   UNL     1       8.767   6.984   8.570  0.00  0.00    +0.047 A 
BRANCH  17  20
ATOM     20  C   UNL     1       9.648   4.537   8.794  0.00  0.00    +0.230 C 
BRANCH  20   4
ATOM      4  O   UNL     1      10.443   3.733   7.919  0.00  0.00    -0.387 OA
ATOM     28  H   UNL     1      10.460   4.184   7.057  0.00  0.00    +0.210 HD
ENDBRANCH  20   4
ENDBRANCH  17  20
ENDBRANCH  12  14
ENDBRANCH   5  12
TORSDOF 7
ENDMDL
