MODEL 1
REMARK VINA RESULT:      -6.3      0.000      0.000
REMARK  Name = 56774711
REMARK  9 active torsions:
REMARK  status: ('A' for Active; 'I' for Inactive)
REMARK    1  A    between atoms: O_2  and  C_8
REMARK    2  A    between atoms: N_5  and  C_9
REMARK    3  A    between atoms: N_6  and  C_21
REMARK    4  A    between atoms: C_7  and  C_8
REMARK    5  A    between atoms: C_8  and  C_14
REMARK    6  A    between atoms: C_9  and  C_11
REMARK    7  A    between atoms: C_11  and  C_15
REMARK    8  A    between atoms: C_11  and  C_16
REMARK    9  A    between atoms: C_22  and  C_23
REMARK                            x       y       z     vdW  Elec       q    Type
REMARK                         _______ _______ _______ _____ _____    ______ ____
ROOT
ATOM     14  C   UNL     1     -11.954   8.732  20.467  0.00  0.00    -0.017 A 
ATOM     17  C   UNL     1     -11.575   7.389  20.482  0.00  0.00    +0.008 A 
ATOM     18  C   UNL     1     -13.101   9.141  21.146  0.00  0.00    +0.008 A 
ATOM     19  C   UNL     1     -12.344   6.455  21.178  0.00  0.00    +0.023 A 
ATOM     20  C   UNL     1     -13.870   8.208  21.842  0.00  0.00    +0.023 A 
ATOM     21  C   UNL     1     -13.491   6.865  21.858  0.00  0.00    +0.034 A 
ENDROOT
BRANCH  21   6
ATOM      4  O   UNL     1     -15.747   5.126  20.918  0.00  0.00    -0.270 OA
ATOM      6  N   UNL     1     -14.260   5.931  22.554  0.00  0.00    -0.282 N 
ATOM     22  C   UNL     1     -15.309   5.140  22.064  0.00  0.00    +0.248 C 
ATOM     30  H   UNL     1     -13.973   5.803  23.520  0.00  0.00    +0.155 HD
BRANCH  22  23
ATOM     23  C   UNL     1     -15.920   4.212  23.050  0.00  0.00    +0.037 A 
ATOM     24  C   UNL     1     -17.102   3.540  22.736  0.00  0.00    +0.013 A 
ATOM     25  C   UNL     1     -15.311   4.011  24.289  0.00  0.00    +0.013 A 
ATOM     26  C   UNL     1     -17.674   2.667  23.662  0.00  0.00    +0.001 A 
ATOM     27  C   UNL     1     -15.884   3.138  25.214  0.00  0.00    +0.001 A 
ATOM     28  C   UNL     1     -17.066   2.466  24.900  0.00  0.00    +0.000 A 
ENDBRANCH  22  23
ENDBRANCH  21   6
BRANCH  14   8
ATOM      8  C   UNL     1     -11.123   9.740  19.716  0.00  0.00    +0.167 C 
BRANCH   8   7
ATOM      1  O   UNL     1     -10.113  11.811  17.899  0.00  0.00    -0.369 OA
ATOM      3  O   UNL     1     -10.312   9.126  15.493  0.00  0.00    -0.273 OA
ATOM      5  N   UNL     1     -11.686   9.563  17.321  0.00  0.00    -0.291 N 
ATOM      7  C   UNL     1     -11.893  10.351  18.542  0.00  0.00    +0.135 C 
ATOM     10  C   UNL     1     -11.477  11.798  18.306  0.00  0.00    +0.185 C 
ATOM     12  C   UNL     1     -10.645   9.845  16.437  0.00  0.00    +0.242 C 
ATOM     13  C   UNL     1      -9.955  11.188  16.644  0.00  0.00    +0.255 C 
BRANCH   5   9
ATOM      9  C   UNL     1     -12.489   8.360  17.151  0.00  0.00    +0.111 C 
BRANCH   9  11
ATOM     11  C   UNL     1     -13.976   8.676  16.955  0.00  0.00    +0.000 C 
ATOM     15  C   UNL     1     -14.490   8.162  15.607  0.00  0.00    +0.009 C 
ATOM     16  C   UNL     1     -14.797   8.066  18.092  0.00  0.00    +0.009 C 
ENDBRANCH   9  11
ENDBRANCH   5   9
ENDBRANCH   8   7
BRANCH   8   2
ATOM      2  O   UNL     1      -9.942   9.112  19.228  0.00  0.00    -0.385 OA
ATOM     29  H   UNL     1     -10.157   8.205  18.953  0.00  0.00    +0.210 HD
ENDBRANCH   8   2
ENDBRANCH  14   8
TORSDOF 7
ENDMDL
MODEL 2
REMARK VINA RESULT:      -6.3     28.892     31.996
REMARK  Name = 56774711
REMARK  9 active torsions:
REMARK  status: ('A' for Active; 'I' for Inactive)
REMARK    1  A    between atoms: O_2  and  C_8
REMARK    2  A    between atoms: N_5  and  C_9
REMARK    3  A    between atoms: N_6  and  C_21
REMARK    4  A    between atoms: C_7  and  C_8
REMARK    5  A    between atoms: C_8  and  C_14
REMARK    6  A    between atoms: C_9  and  C_11
REMARK    7  A    between atoms: C_11  and  C_15
REMARK    8  A    between atoms: C_11  and  C_16
REMARK    9  A    between atoms: C_22  and  C_23
REMARK                            x       y       z     vdW  Elec       q    Type
REMARK                         _______ _______ _______ _____ _____    ______ ____
ROOT
ATOM     14  C   UNL     1      17.299   7.690  20.944  0.00  0.00    -0.017 A 
ATOM     17  C   UNL     1      18.465   8.079  21.604  0.00  0.00    +0.008 A 
ATOM     18  C   UNL     1      17.306   6.566  20.119  0.00  0.00    +0.008 A 
ATOM     19  C   UNL     1      19.638   7.342  21.440  0.00  0.00    +0.023 A 
ATOM     20  C   UNL     1      18.479   5.829  19.955  0.00  0.00    +0.023 A 
ATOM     21  C   UNL     1      19.645   6.217  20.615  0.00  0.00    +0.034 A 
ENDROOT
BRANCH  21   6
ATOM      4  O   UNL     1      21.328   4.779  22.637  0.00  0.00    -0.270 OA
ATOM      6  N   UNL     1      20.818   5.479  20.451  0.00  0.00    -0.282 N 
ATOM     22  C   UNL     1      21.570   4.823  21.435  0.00  0.00    +0.248 C 
ATOM     30  H   UNL     1      21.115   5.392  19.483  0.00  0.00    +0.155 HD
BRANCH  22  23
ATOM     23  C   UNL     1      22.765   4.091  20.942  0.00  0.00    +0.037 A 
ATOM     24  C   UNL     1      23.765   4.774  20.249  0.00  0.00    +0.013 A 
ATOM     25  C   UNL     1      22.887   2.721  21.172  0.00  0.00    +0.013 A 
ATOM     26  C   UNL     1      24.888   4.086  19.787  0.00  0.00    +0.001 A 
ATOM     27  C   UNL     1      24.010   2.034  20.711  0.00  0.00    +0.001 A 
ATOM     28  C   UNL     1      25.010   2.717  20.018  0.00  0.00    +0.000 A 
ENDBRANCH  22  23
ENDBRANCH  21   6
BRANCH  14   8
ATOM      8  C   UNL     1      16.032   8.487  21.122  0.00  0.00    +0.167 C 
BRANCH   8   7
ATOM      1  O   UNL     1      13.319   7.840  22.033  0.00  0.00    -0.369 OA
ATOM      3  O   UNL     1      12.456  10.647  19.931  0.00  0.00    -0.273 OA
ATOM      5  N   UNL     1      14.140   9.065  19.648  0.00  0.00    -0.291 N 
ATOM      7  C   UNL     1      14.897   7.955  20.242  0.00  0.00    +0.135 C 
ATOM     10  C   UNL     1      13.962   7.052  21.038  0.00  0.00    +0.185 C 
ATOM     12  C   UNL     1      13.029   9.614  20.285  0.00  0.00    +0.242 C 
ATOM     13  C   UNL     1      12.470   8.801  21.446  0.00  0.00    +0.255 C 
BRANCH   5   9
ATOM      9  C   UNL     1      14.693   9.696  18.458  0.00  0.00    +0.111 C 
BRANCH   9  11
ATOM     11  C   UNL     1      13.932   9.309  17.185  0.00  0.00    +0.000 C 
ATOM     15  C   UNL     1      14.408  10.116  15.975  0.00  0.00    +0.009 C 
ATOM     16  C   UNL     1      14.094   7.814  16.912  0.00  0.00    +0.009 C 
ENDBRANCH   9  11
ENDBRANCH   5   9
ENDBRANCH   8   7
BRANCH   8   2
ATOM      2  O   UNL     1      16.279   9.851  20.798  0.00  0.00    -0.385 OA
ATOM     29  H   UNL     1      15.938  10.030  19.906  0.00  0.00    +0.210 HD
ENDBRANCH   8   2
ENDBRANCH  14   8
TORSDOF 7
ENDMDL
MODEL 3
REMARK VINA RESULT:      -6.1      2.141      3.950
REMARK  Name = 56774711
REMARK  9 active torsions:
REMARK  status: ('A' for Active; 'I' for Inactive)
REMARK    1  A    between atoms: O_2  and  C_8
REMARK    2  A    between atoms: N_5  and  C_9
REMARK    3  A    between atoms: N_6  and  C_21
REMARK    4  A    between atoms: C_7  and  C_8
REMARK    5  A    between atoms: C_8  and  C_14
REMARK    6  A    between atoms: C_9  and  C_11
REMARK    7  A    between atoms: C_11  and  C_15
REMARK    8  A    between atoms: C_11  and  C_16
REMARK    9  A    between atoms: C_22  and  C_23
REMARK                            x       y       z     vdW  Elec       q    Type
REMARK                         _______ _______ _______ _____ _____    ______ ____
ROOT
ATOM     14  C   UNL     1     -13.677   6.881  21.134  0.00  0.00    -0.017 A 
ATOM     17  C   UNL     1     -14.950   7.128  21.649  0.00  0.00    +0.008 A 
ATOM     18  C   UNL     1     -12.891   5.864  21.674  0.00  0.00    +0.008 A 
ATOM     19  C   UNL     1     -15.437   6.357  22.705  0.00  0.00    +0.023 A 
ATOM     20  C   UNL     1     -13.378   5.092  22.729  0.00  0.00    +0.023 A 
ATOM     21  C   UNL     1     -14.650   5.339  23.245  0.00  0.00    +0.034 A 
ENDROOT
BRANCH  21   6
ATOM      4  O   UNL     1     -16.226   2.788  23.214  0.00  0.00    -0.270 OA
ATOM      6  N   UNL     1     -15.137   4.567  24.301  0.00  0.00    -0.282 N 
ATOM     22  C   UNL     1     -15.872   3.376  24.231  0.00  0.00    +0.248 C 
ATOM     30  H   UNL     1     -14.875   4.916  25.218  0.00  0.00    +0.155 HD
BRANCH  22  23
ATOM     23  C   UNL     1     -16.225   2.768  25.541  0.00  0.00    +0.037 A 
ATOM     24  C   UNL     1     -16.689   1.454  25.597  0.00  0.00    +0.013 A 
ATOM     25  C   UNL     1     -16.092   3.512  26.712  0.00  0.00    +0.013 A 
ATOM     26  C   UNL     1     -17.019   0.883  26.827  0.00  0.00    +0.001 A 
ATOM     27  C   UNL     1     -16.422   2.941  27.942  0.00  0.00    +0.001 A 
ATOM     28  C   UNL     1     -16.886   1.627  27.999  0.00  0.00    +0.000 A 
ENDBRANCH  22  23
ENDBRANCH  21   6
BRANCH  14   8
ATOM      8  C   UNL     1     -13.152   7.714  19.993  0.00  0.00    +0.167 C 
BRANCH   8   7
ATOM      1  O   UNL     1     -11.236   9.158  18.304  0.00  0.00    -0.369 OA
ATOM      3  O   UNL     1     -13.328  11.974  19.162  0.00  0.00    -0.273 OA
ATOM      5  N   UNL     1     -12.777  10.111  20.444  0.00  0.00    -0.291 N 
ATOM      7  C   UNL     1     -12.161   8.778  20.474  0.00  0.00    +0.135 C 
ATOM     10  C   UNL     1     -10.893   8.771  19.629  0.00  0.00    +0.185 C 
ATOM     12  C   UNL     1     -12.695  10.928  19.318  0.00  0.00    +0.242 C 
ATOM     13  C   UNL     1     -11.677  10.497  18.268  0.00  0.00    +0.255 C 
BRANCH   5   9
ATOM      9  C   UNL     1     -13.635  10.482  21.561  0.00  0.00    +0.111 C 
BRANCH   9  11
ATOM     11  C   UNL     1     -12.994  10.167  22.917  0.00  0.00    +0.000 C 
ATOM     15  C   UNL     1     -12.115  11.320  23.408  0.00  0.00    +0.009 C 
ATOM     16  C   UNL     1     -14.077   9.860  23.951  0.00  0.00    +0.009 C 
ENDBRANCH   9  11
ENDBRANCH   5   9
ENDBRANCH   8   7
BRANCH   8   2
ATOM      2  O   UNL     1     -14.239   8.350  19.330  0.00  0.00    -0.385 OA
ATOM     29  H   UNL     1     -14.008   9.279  19.163  0.00  0.00    +0.210 HD
ENDBRANCH   8   2
ENDBRANCH  14   8
TORSDOF 7
ENDMDL
MODEL 4
REMARK VINA RESULT:      -5.9     19.051     20.342
REMARK  Name = 56774711
REMARK  9 active torsions:
REMARK  status: ('A' for Active; 'I' for Inactive)
REMARK    1  A    between atoms: O_2  and  C_8
REMARK    2  A    between atoms: N_5  and  C_9
REMARK    3  A    between atoms: N_6  and  C_21
REMARK    4  A    between atoms: C_7  and  C_8
REMARK    5  A    between atoms: C_8  and  C_14
REMARK    6  A    between atoms: C_9  and  C_11
REMARK    7  A    between atoms: C_11  and  C_15
REMARK    8  A    between atoms: C_11  and  C_16
REMARK    9  A    between atoms: C_22  and  C_23
REMARK                            x       y       z     vdW  Elec       q    Type
REMARK                         _______ _______ _______ _____ _____    ______ ____
ROOT
ATOM     14  C   UNL     1      -5.221 -10.499  16.887  0.00  0.00    -0.017 A 
ATOM     17  C   UNL     1      -6.087  -9.560  16.326  0.00  0.00    +0.008 A 
ATOM     18  C   UNL     1      -5.636 -11.270  17.972  0.00  0.00    +0.008 A 
ATOM     19  C   UNL     1      -7.369  -9.392  16.851  0.00  0.00    +0.023 A 
ATOM     20  C   UNL     1      -6.917 -11.102  18.497  0.00  0.00    +0.023 A 
ATOM     21  C   UNL     1      -7.783 -10.163  17.938  0.00  0.00    +0.034 A 
ENDROOT
BRANCH  21   6
ATOM      4  O   UNL     1     -10.444 -11.052  16.877  0.00  0.00    -0.270 OA
ATOM      6  N   UNL     1      -9.065  -9.995  18.463  0.00  0.00    -0.282 N 
ATOM     22  C   UNL     1     -10.282 -10.433  17.925  0.00  0.00    +0.248 C 
ATOM     30  H   UNL     1      -9.079  -9.532  19.367  0.00  0.00    +0.155 HD
BRANCH  22  23
ATOM     23  C   UNL     1     -11.487 -10.126  18.739  0.00  0.00    +0.037 A 
ATOM     24  C   UNL     1     -12.705  -9.863  18.112  0.00  0.00    +0.013 A 
ATOM     25  C   UNL     1     -11.399 -10.101  20.130  0.00  0.00    +0.013 A 
ATOM     26  C   UNL     1     -13.836  -9.576  18.877  0.00  0.00    +0.001 A 
ATOM     27  C   UNL     1     -12.530  -9.814  20.896  0.00  0.00    +0.001 A 
ATOM     28  C   UNL     1     -13.748  -9.551  20.269  0.00  0.00    +0.000 A 
ENDBRANCH  22  23
ENDBRANCH  21   6
BRANCH  14   8
ATOM      8  C   UNL     1      -3.837 -10.680  16.318  0.00  0.00    +0.167 C 
BRANCH   8   7
ATOM      1  O   UNL     1      -1.496 -11.086  14.596  0.00  0.00    -0.369 OA
ATOM      3  O   UNL     1      -2.771 -14.463  14.467  0.00  0.00    -0.273 OA
ATOM      5  N   UNL     1      -3.943 -12.456  14.609  0.00  0.00    -0.291 N 
ATOM      7  C   UNL     1      -3.874 -11.005  14.822  0.00  0.00    +0.135 C 
ATOM     10  C   UNL     1      -2.659 -10.429  14.104  0.00  0.00    +0.185 C 
ATOM     12  C   UNL     1      -2.792 -13.230  14.476  0.00  0.00    +0.242 C 
ATOM     13  C   UNL     1      -1.502 -12.452  14.244  0.00  0.00    +0.255 C 
BRANCH   5   9
ATOM      9  C   UNL     1      -5.248 -13.093  14.724  0.00  0.00    +0.111 C 
BRANCH   9  11
ATOM     11  C   UNL     1      -6.329 -12.353  13.929  0.00  0.00    +0.000 C 
ATOM     15  C   UNL     1      -6.464 -12.908  12.509  0.00  0.00    +0.009 C 
ATOM     16  C   UNL     1      -7.671 -12.445  14.655  0.00  0.00    +0.009 C 
ENDBRANCH   9  11
ENDBRANCH   5   9
ENDBRANCH   8   7
BRANCH   8   2
ATOM      2  O   UNL     1      -3.173 -11.732  17.011  0.00  0.00    -0.385 OA
ATOM     29  H   UNL     1      -2.479 -12.098  16.438  0.00  0.00    +0.210 HD
ENDBRANCH   8   2
ENDBRANCH  14   8
TORSDOF 7
ENDMDL
MODEL 5
REMARK VINA RESULT:      -5.8     21.241     23.112
REMARK  Name = 56774711
REMARK  9 active torsions:
REMARK  status: ('A' for Active; 'I' for Inactive)
REMARK    1  A    between atoms: O_2  and  C_8
REMARK    2  A    between atoms: N_5  and  C_9
REMARK    3  A    between atoms: N_6  and  C_21
REMARK    4  A    between atoms: C_7  and  C_8
REMARK    5  A    between atoms: C_8  and  C_14
REMARK    6  A    between atoms: C_9  and  C_11
REMARK    7  A    between atoms: C_11  and  C_15
REMARK    8  A    between atoms: C_11  and  C_16
REMARK    9  A    between atoms: C_22  and  C_23
REMARK                            x       y       z     vdW  Elec       q    Type
REMARK                         _______ _______ _______ _____ _____    ______ ____
ROOT
ATOM     14  C   UNL     1      -3.400 -10.615  10.396  0.00  0.00    -0.017 A 
ATOM     17  C   UNL     1      -4.074 -11.522   9.577  0.00  0.00    +0.008 A 
ATOM     18  C   UNL     1      -3.553  -9.244  10.192  0.00  0.00    +0.008 A 
ATOM     19  C   UNL     1      -4.901 -11.057   8.554  0.00  0.00    +0.023 A 
ATOM     20  C   UNL     1      -4.379  -8.779   9.170  0.00  0.00    +0.023 A 
ATOM     21  C   UNL     1      -5.053  -9.685   8.350  0.00  0.00    +0.034 A 
ENDROOT
BRANCH  21   6
ATOM      4  O   UNL     1      -7.953  -8.926   8.397  0.00  0.00    -0.270 OA
ATOM      6  N   UNL     1      -5.880  -9.220   7.327  0.00  0.00    -0.282 N 
ATOM     22  C   UNL     1      -7.236  -8.877   7.403  0.00  0.00    +0.248 C 
ATOM     30  H   UNL     1      -5.399  -9.084   6.442  0.00  0.00    +0.155 HD
BRANCH  22  23
ATOM     23  C   UNL     1      -7.840  -8.382   6.138  0.00  0.00    +0.037 A 
ATOM     24  C   UNL     1      -9.044  -7.679   6.169  0.00  0.00    +0.013 A 
ATOM     25  C   UNL     1      -7.201  -8.620   4.922  0.00  0.00    +0.013 A 
ATOM     26  C   UNL     1      -9.609  -7.212   4.981  0.00  0.00    +0.001 A 
ATOM     27  C   UNL     1      -7.767  -8.153   3.734  0.00  0.00    +0.001 A 
ATOM     28  C   UNL     1      -8.971  -7.450   3.765  0.00  0.00    +0.000 A 
ENDBRANCH  22  23
ENDBRANCH  21   6
BRANCH  14   8
ATOM      8  C   UNL     1      -2.508 -11.118  11.502  0.00  0.00    +0.167 C 
BRANCH   8   7
ATOM      1  O   UNL     1      -1.300 -12.709  13.651  0.00  0.00    -0.369 OA
ATOM      3  O   UNL     1      -3.123 -10.395  15.740  0.00  0.00    -0.273 OA
ATOM      5  N   UNL     1      -3.700 -11.258  13.657  0.00  0.00    -0.291 N 
ATOM      7  C   UNL     1      -3.266 -12.021  12.479  0.00  0.00    +0.135 C 
ATOM     10  C   UNL     1      -2.410 -13.205  12.911  0.00  0.00    +0.185 C 
ATOM     12  C   UNL     1      -2.900 -11.152  14.793  0.00  0.00    +0.242 C 
ATOM     13  C   UNL     1      -1.724 -12.119  14.860  0.00  0.00    +0.255 C 
BRANCH   5   9
ATOM      9  C   UNL     1      -4.914 -10.463  13.534  0.00  0.00    +0.111 C 
BRANCH   9  11
ATOM     11  C   UNL     1      -6.031 -11.214  12.801  0.00  0.00    +0.000 C 
ATOM     15  C   UNL     1      -6.988 -11.899  13.781  0.00  0.00    +0.009 C 
ATOM     16  C   UNL     1      -6.806 -10.253  11.900  0.00  0.00    +0.009 C 
ENDBRANCH   9  11
ENDBRANCH   5   9
ENDBRANCH   8   7
BRANCH   8   2
ATOM      2  O   UNL     1      -1.960 -10.011  12.211  0.00  0.00    -0.385 OA
ATOM     29  H   UNL     1      -1.880  -9.257  11.604  0.00  0.00    +0.210 HD
ENDBRANCH   8   2
ENDBRANCH  14   8
TORSDOF 7
ENDMDL
MODEL 6
REMARK VINA RESULT:      -5.8     18.682     20.243
REMARK  Name = 56774711
REMARK  9 active torsions:
REMARK  status: ('A' for Active; 'I' for Inactive)
REMARK    1  A    between atoms: O_2  and  C_8
REMARK    2  A    between atoms: N_5  and  C_9
REMARK    3  A    between atoms: N_6  and  C_21
REMARK    4  A    between atoms: C_7  and  C_8
REMARK    5  A    between atoms: C_8  and  C_14
REMARK    6  A    between atoms: C_9  and  C_11
REMARK    7  A    between atoms: C_11  and  C_15
REMARK    8  A    between atoms: C_11  and  C_16
REMARK    9  A    between atoms: C_22  and  C_23
REMARK                            x       y       z     vdW  Elec       q    Type
REMARK                         _______ _______ _______ _____ _____    ______ ____
ROOT
ATOM     14  C   UNL     1      -6.612 -11.253  15.324  0.00  0.00    -0.017 A 
ATOM     17  C   UNL     1      -7.399 -12.306  15.792  0.00  0.00    +0.008 A 
ATOM     18  C   UNL     1      -7.030  -9.936  15.504  0.00  0.00    +0.008 A 
ATOM     19  C   UNL     1      -8.605 -12.040  16.441  0.00  0.00    +0.023 A 
ATOM     20  C   UNL     1      -8.236  -9.669  16.153  0.00  0.00    +0.023 A 
ATOM     21  C   UNL     1      -9.023 -10.721  16.621  0.00  0.00    +0.034 A 
ENDROOT
BRANCH  21   6
ATOM      4  O   UNL     1      -9.672 -10.645  19.547  0.00  0.00    -0.270 OA
ATOM      6  N   UNL     1     -10.230 -10.455  17.270  0.00  0.00    -0.282 N 
ATOM     22  C   UNL     1     -10.480 -10.432  18.649  0.00  0.00    +0.248 C 
ATOM     30  H   UNL     1     -10.989 -10.212  16.640  0.00  0.00    +0.155 HD
BRANCH  22  23
ATOM     23  C   UNL     1     -11.872 -10.085  19.037  0.00  0.00    +0.037 A 
ATOM     24  C   UNL     1     -12.207  -9.948  20.385  0.00  0.00    +0.013 A 
ATOM     25  C   UNL     1     -12.843  -9.895  18.055  0.00  0.00    +0.013 A 
ATOM     26  C   UNL     1     -13.513  -9.620  20.749  0.00  0.00    +0.001 A 
ATOM     27  C   UNL     1     -14.150  -9.567  18.419  0.00  0.00    +0.001 A 
ATOM     28  C   UNL     1     -14.484  -9.431  19.766  0.00  0.00    +0.000 A 
ENDBRANCH  22  23
ENDBRANCH  21   6
BRANCH  14   8
ATOM      8  C   UNL     1      -5.309 -11.542  14.623  0.00  0.00    +0.167 C 
BRANCH   8   7
ATOM      1  O   UNL     1      -2.786 -12.765  13.760  0.00  0.00    -0.369 OA
ATOM      3  O   UNL     1      -1.373 -10.234  15.915  0.00  0.00    -0.273 OA
ATOM      5  N   UNL     1      -3.371 -11.408  16.143  0.00  0.00    -0.291 N 
ATOM      7  C   UNL     1      -4.340 -12.318  15.519  0.00  0.00    +0.135 C 
ATOM     10  C   UNL     1      -3.609 -13.399  14.732  0.00  0.00    +0.185 C 
ATOM     12  C   UNL     1      -2.151 -11.112  15.536  0.00  0.00    +0.242 C 
ATOM     13  C   UNL     1      -1.759 -12.021  14.377  0.00  0.00    +0.255 C 
BRANCH   5   9
ATOM      9  C   UNL     1      -3.798 -10.678  17.329  0.00  0.00    +0.111 C 
BRANCH   9  11
ATOM     11  C   UNL     1      -4.580 -11.563  18.306  0.00  0.00    +0.000 C 
ATOM     15  C   UNL     1      -3.668 -12.155  19.385  0.00  0.00    +0.009 C 
ATOM     16  C   UNL     1      -5.705 -10.758  18.958  0.00  0.00    +0.009 C 
ENDBRANCH   9  11
ENDBRANCH   5   9
ENDBRANCH   8   7
BRANCH   8   2
ATOM      2  O   UNL     1      -4.703 -10.316  14.225  0.00  0.00    -0.385 OA
ATOM     29  H   UNL     1      -4.163  -9.979  14.959  0.00  0.00    +0.210 HD
ENDBRANCH   8   2
ENDBRANCH  14   8
TORSDOF 7
ENDMDL
MODEL 7
REMARK VINA RESULT:      -5.8     15.477     16.917
REMARK  Name = 56774711
REMARK  9 active torsions:
REMARK  status: ('A' for Active; 'I' for Inactive)
REMARK    1  A    between atoms: O_2  and  C_8
REMARK    2  A    between atoms: N_5  and  C_9
REMARK    3  A    between atoms: N_6  and  C_21
REMARK    4  A    between atoms: C_7  and  C_8
REMARK    5  A    between atoms: C_8  and  C_14
REMARK    6  A    between atoms: C_9  and  C_11
REMARK    7  A    between atoms: C_11  and  C_15
REMARK    8  A    between atoms: C_11  and  C_16
REMARK    9  A    between atoms: C_22  and  C_23
REMARK                            x       y       z     vdW  Elec       q    Type
REMARK                         _______ _______ _______ _____ _____    ______ ____
ROOT
ATOM     14  C   UNL     1     -12.390  -6.550  14.216  0.00  0.00    -0.017 A 
ATOM     17  C   UNL     1     -12.026  -7.835  13.813  0.00  0.00    +0.008 A 
ATOM     18  C   UNL     1     -11.619  -5.868  15.157  0.00  0.00    +0.008 A 
ATOM     19  C   UNL     1     -10.889  -8.439  14.352  0.00  0.00    +0.023 A 
ATOM     20  C   UNL     1     -10.483  -6.472  15.696  0.00  0.00    +0.023 A 
ATOM     21  C   UNL     1     -10.119  -7.757  15.294  0.00  0.00    +0.034 A 
ENDROOT
BRANCH  21   6
ATOM      4  O   UNL     1      -9.744  -9.212  17.889  0.00  0.00    -0.270 OA
ATOM      6  N   UNL     1      -8.982  -8.361  15.834  0.00  0.00    -0.282 N 
ATOM     22  C   UNL     1      -8.860  -9.032  17.058  0.00  0.00    +0.248 C 
ATOM     30  H   UNL     1      -8.172  -8.328  15.221  0.00  0.00    +0.155 HD
BRANCH  22  23
ATOM     23  C   UNL     1      -7.516  -9.598  17.343  0.00  0.00    +0.037 A 
ATOM     24  C   UNL     1      -7.266 -10.218  18.567  0.00  0.00    +0.013 A 
ATOM     25  C   UNL     1      -6.505  -9.508  16.387  0.00  0.00    +0.013 A 
ATOM     26  C   UNL     1      -6.004 -10.751  18.834  0.00  0.00    +0.001 A 
ATOM     27  C   UNL     1      -5.243 -10.041  16.654  0.00  0.00    +0.001 A 
ATOM     28  C   UNL     1      -4.993 -10.661  17.878  0.00  0.00    +0.000 A 
ENDBRANCH  22  23
ENDBRANCH  21   6
BRANCH  14   8
ATOM      8  C   UNL     1     -13.617  -5.897  13.633  0.00  0.00    +0.167 C 
BRANCH   8   7
ATOM      1  O   UNL     1     -16.035  -5.389  12.050  0.00  0.00    -0.369 OA
ATOM      3  O   UNL     1     -13.823  -3.161  10.265  0.00  0.00    -0.273 OA
ATOM      5  N   UNL     1     -13.345  -5.200  11.282  0.00  0.00    -0.291 N 
ATOM      7  C   UNL     1     -13.818  -6.276  12.163  0.00  0.00    +0.135 C 
ATOM     10  C   UNL     1     -15.282  -6.583  11.869  0.00  0.00    +0.185 C 
ATOM     12  C   UNL     1     -14.191  -4.178  10.857  0.00  0.00    +0.242 C 
ATOM     13  C   UNL     1     -15.678  -4.418  11.091  0.00  0.00    +0.255 C 
BRANCH   5   9
ATOM      9  C   UNL     1     -11.915  -5.131  11.012  0.00  0.00    +0.111 C 
BRANCH   9  11
ATOM     11  C   UNL     1     -11.565  -5.608   9.598  0.00  0.00    +0.000 C 
ATOM     15  C   UNL     1     -10.495  -4.725   8.953  0.00  0.00    +0.009 C 
ATOM     16  C   UNL     1     -11.089  -7.061   9.637  0.00  0.00    +0.009 C 
ENDBRANCH   9  11
ENDBRANCH   5   9
ENDBRANCH   8   7
BRANCH   8   2
ATOM      2  O   UNL     1     -13.501  -4.483  13.743  0.00  0.00    -0.385 OA
ATOM     29  H   UNL     1     -13.713  -4.081  12.884  0.00  0.00    +0.210 HD
ENDBRANCH   8   2
ENDBRANCH  14   8
TORSDOF 7
ENDMDL
MODEL 8
REMARK VINA RESULT:      -5.7     18.998     20.209
REMARK  Name = 56774711
REMARK  9 active torsions:
REMARK  status: ('A' for Active; 'I' for Inactive)
REMARK    1  A    between atoms: O_2  and  C_8
REMARK    2  A    between atoms: N_5  and  C_9
REMARK    3  A    between atoms: N_6  and  C_21
REMARK    4  A    between atoms: C_7  and  C_8
REMARK    5  A    between atoms: C_8  and  C_14
REMARK    6  A    between atoms: C_9  and  C_11
REMARK    7  A    between atoms: C_11  and  C_15
REMARK    8  A    between atoms: C_11  and  C_16
REMARK    9  A    between atoms: C_22  and  C_23
REMARK                            x       y       z     vdW  Elec       q    Type
REMARK                         _______ _______ _______ _____ _____    ______ ____
ROOT
ATOM     14  C   UNL     1      -5.320 -11.267  16.616  0.00  0.00    -0.017 A 
ATOM     17  C   UNL     1      -6.216 -12.318  16.812  0.00  0.00    +0.008 A 
ATOM     18  C   UNL     1      -5.735  -9.950  16.814  0.00  0.00    +0.008 A 
ATOM     19  C   UNL     1      -7.528 -12.052  17.207  0.00  0.00    +0.023 A 
ATOM     20  C   UNL     1      -7.045  -9.684  17.209  0.00  0.00    +0.023 A 
ATOM     21  C   UNL     1      -7.942 -10.735  17.404  0.00  0.00    +0.034 A 
ENDROOT
BRANCH  21   6
ATOM      4  O   UNL     1      -9.209 -10.851  20.120  0.00  0.00    -0.270 OA
ATOM      6  N   UNL     1      -9.254 -10.468  17.799  0.00  0.00    -0.282 N 
ATOM     22  C   UNL     1      -9.797 -10.538  19.089  0.00  0.00    +0.248 C 
ATOM     30  H   UNL     1      -9.852 -10.148  17.043  0.00  0.00    +0.155 HD
BRANCH  22  23
ATOM     23  C   UNL     1     -11.231 -10.164  19.197  0.00  0.00    +0.037 A 
ATOM     24  C   UNL     1     -11.979  -9.924  18.044  0.00  0.00    +0.013 A 
ATOM     25  C   UNL     1     -11.830 -10.054  20.452  0.00  0.00    +0.013 A 
ATOM     26  C   UNL     1     -13.326  -9.574  18.146  0.00  0.00    +0.001 A 
ATOM     27  C   UNL     1     -13.177  -9.705  20.554  0.00  0.00    +0.001 A 
ATOM     28  C   UNL     1     -13.924  -9.464  19.401  0.00  0.00    +0.000 A 
ENDBRANCH  22  23
ENDBRANCH  21   6
BRANCH  14   8
ATOM      8  C   UNL     1      -3.903 -11.555  16.190  0.00  0.00    +0.167 C 
BRANCH   8   7
ATOM      1  O   UNL     1      -1.345 -11.762  14.767  0.00  0.00    -0.369 OA
ATOM      3  O   UNL     1      -3.423 -13.273  12.229  0.00  0.00    -0.273 OA
ATOM      5  N   UNL     1      -3.940 -11.565  13.723  0.00  0.00    -0.291 N 
ATOM      7  C   UNL     1      -3.530 -10.803  14.910  0.00  0.00    +0.135 C 
ATOM     10  C   UNL     1      -2.033 -10.519  14.855  0.00  0.00    +0.185 C 
ATOM     12  C   UNL     1      -3.087 -12.482  13.113  0.00  0.00    +0.242 C 
ATOM     13  C   UNL     1      -1.628 -12.410  13.546  0.00  0.00    +0.255 C 
BRANCH   5   9
ATOM      9  C   UNL     1      -5.333 -11.467  13.309  0.00  0.00    +0.111 C 
BRANCH   9  11
ATOM     11  C   UNL     1      -5.793 -10.013  13.149  0.00  0.00    +0.000 C 
ATOM     15  C   UNL     1      -5.488  -9.476  11.748  0.00  0.00    +0.009 C 
ATOM     16  C   UNL     1      -7.290  -9.902  13.437  0.00  0.00    +0.009 C 
ENDBRANCH   9  11
ENDBRANCH   5   9
ENDBRANCH   8   7
BRANCH   8   2
ATOM      2  O   UNL     1      -3.747 -12.954  15.976  0.00  0.00    -0.385 OA
ATOM     29  H   UNL     1      -4.335 -13.433  16.583  0.00  0.00    +0.210 HD
ENDBRANCH   8   2
ENDBRANCH  14   8
TORSDOF 7
ENDMDL
MODEL 9
REMARK VINA RESULT:      -5.5     26.056     30.942
REMARK  Name = 56774711
REMARK  9 active torsions:
REMARK  status: ('A' for Active; 'I' for Inactive)
REMARK    1  A    between atoms: O_2  and  C_8
REMARK    2  A    between atoms: N_5  and  C_9
REMARK    3  A    between atoms: N_6  and  C_21
REMARK    4  A    between atoms: C_7  and  C_8
REMARK    5  A    between atoms: C_8  and  C_14
REMARK    6  A    between atoms: C_9  and  C_11
REMARK    7  A    between atoms: C_11  and  C_15
REMARK    8  A    between atoms: C_11  and  C_16
REMARK    9  A    between atoms: C_22  and  C_23
REMARK                            x       y       z     vdW  Elec       q    Type
REMARK                         _______ _______ _______ _____ _____    ______ ____
ROOT
ATOM     14  C   UNL     1       9.504   6.370   3.565  0.00  0.00    -0.017 A 
ATOM     17  C   UNL     1       9.522   7.284   2.512  0.00  0.00    +0.008 A 
ATOM     18  C   UNL     1      10.098   5.117   3.414  0.00  0.00    +0.008 A 
ATOM     19  C   UNL     1      10.136   6.945   1.305  0.00  0.00    +0.023 A 
ATOM     20  C   UNL     1      10.712   4.779   2.208  0.00  0.00    +0.023 A 
ATOM     21  C   UNL     1      10.730   5.692   1.154  0.00  0.00    +0.034 A 
ENDROOT
BRANCH  21   6
ATOM      4  O   UNL     1       9.553   4.604  -1.381  0.00  0.00    -0.270 OA
ATOM      6  N   UNL     1      11.344   5.353  -0.053  0.00  0.00    -0.282 N 
ATOM     22  C   UNL     1      10.745   4.846  -1.213  0.00  0.00    +0.248 C 
ATOM     30  H   UNL     1      12.341   5.548  -0.074  0.00  0.00    +0.155 HD
BRANCH  22  23
ATOM     23  C   UNL     1      11.666   4.609  -2.355  0.00  0.00    +0.037 A 
ATOM     24  C   UNL     1      12.436   5.657  -2.860  0.00  0.00    +0.013 A 
ATOM     25  C   UNL     1      11.761   3.338  -2.921  0.00  0.00    +0.013 A 
ATOM     26  C   UNL     1      13.302   5.433  -3.931  0.00  0.00    +0.001 A 
ATOM     27  C   UNL     1      12.627   3.114  -3.992  0.00  0.00    +0.001 A 
ATOM     28  C   UNL     1      13.397   4.162  -4.497  0.00  0.00    +0.000 A 
ENDBRANCH  22  23
ENDBRANCH  21   6
BRANCH  14   8
ATOM      8  C   UNL     1       8.841   6.737   4.869  0.00  0.00    +0.167 C 
BRANCH   8   7
ATOM      1  O   UNL     1       8.147   7.820   7.506  0.00  0.00    -0.369 OA
ATOM      3  O   UNL     1      10.917   5.755   8.556  0.00  0.00    -0.273 OA
ATOM      5  N   UNL     1      10.628   6.917   6.560  0.00  0.00    -0.291 N 
ATOM      7  C   UNL     1       9.711   7.680   5.703  0.00  0.00    +0.135 C 
ATOM     10  C   UNL     1       8.853   8.609   6.555  0.00  0.00    +0.185 C 
ATOM     12  C   UNL     1      10.272   6.535   7.852  0.00  0.00    +0.242 C 
ATOM     13  C   UNL     1       9.035   7.219   8.422  0.00  0.00    +0.255 C 
BRANCH   5   9
ATOM      9  C   UNL     1      11.852   6.413   5.954  0.00  0.00    +0.111 C 
BRANCH   9  11
ATOM     11  C   UNL     1      12.763   7.541   5.456  0.00  0.00    +0.000 C 
ATOM     15  C   UNL     1      14.021   7.673   6.320  0.00  0.00    +0.009 C 
ATOM     16  C   UNL     1      13.155   7.295   3.999  0.00  0.00    +0.009 C 
ENDBRANCH   9  11
ENDBRANCH   5   9
ENDBRANCH   8   7
BRANCH   8   2
ATOM      2  O   UNL     1       8.578   5.554   5.617  0.00  0.00    -0.385 OA
ATOM     29  H   UNL     1       8.477   4.808   5.002  0.00  0.00    +0.210 HD
ENDBRANCH   8   2
ENDBRANCH  14   8
TORSDOF 7
ENDMDL
MODEL 10
REMARK VINA RESULT:      -5.4     20.101     22.232
REMARK  Name = 56774711
REMARK  9 active torsions:
REMARK  status: ('A' for Active; 'I' for Inactive)
REMARK    1  A    between atoms: O_2  and  C_8
REMARK    2  A    between atoms: N_5  and  C_9
REMARK    3  A    between atoms: N_6  and  C_21
REMARK    4  A    between atoms: C_7  and  C_8
REMARK    5  A    between atoms: C_8  and  C_14
REMARK    6  A    between atoms: C_9  and  C_11
REMARK    7  A    between atoms: C_11  and  C_15
REMARK    8  A    between atoms: C_11  and  C_16
REMARK    9  A    between atoms: C_22  and  C_23
REMARK                            x       y       z     vdW  Elec       q    Type
REMARK                         _______ _______ _______ _____ _____    ______ ____
ROOT
ATOM     14  C   UNL     1      -5.353 -10.329  14.368  0.00  0.00    -0.017 A 
ATOM     17  C   UNL     1      -6.535 -10.006  13.701  0.00  0.00    +0.008 A 
ATOM     18  C   UNL     1      -4.244 -10.774  13.649  0.00  0.00    +0.008 A 
ATOM     19  C   UNL     1      -6.607 -10.129  12.312  0.00  0.00    +0.023 A 
ATOM     20  C   UNL     1      -4.317 -10.897  12.262  0.00  0.00    +0.023 A 
ATOM     21  C   UNL     1      -5.498 -10.575  11.594  0.00  0.00    +0.034 A 
ENDROOT
BRANCH  21   6
ATOM      4  O   UNL     1      -4.238  -8.920   9.434  0.00  0.00    -0.270 OA
ATOM      6  N   UNL     1      -5.570 -10.698  10.205  0.00  0.00    -0.282 N 
ATOM     22  C   UNL     1      -4.959  -9.893   9.235  0.00  0.00    +0.248 C 
ATOM     30  H   UNL     1      -6.106 -11.504   9.893  0.00  0.00    +0.155 HD
BRANCH  22  23
ATOM     23  C   UNL     1      -5.203 -10.298   7.826  0.00  0.00    +0.037 A 
ATOM     24  C   UNL     1      -4.507 -11.376   7.279  0.00  0.00    +0.013 A 
ATOM     25  C   UNL     1      -6.128  -9.599   7.051  0.00  0.00    +0.013 A 
ATOM     26  C   UNL     1      -4.738 -11.756   5.956  0.00  0.00    +0.001 A 
ATOM     27  C   UNL     1      -6.359  -9.979   5.728  0.00  0.00    +0.001 A 
ATOM     28  C   UNL     1      -5.663 -11.057   5.181  0.00  0.00    +0.000 A 
ENDBRANCH  22  23
ENDBRANCH  21   6
BRANCH  14   8
ATOM      8  C   UNL     1      -5.275 -10.195  15.868  0.00  0.00    +0.167 C 
BRANCH   8   7
ATOM      1  O   UNL     1      -4.422 -12.249  17.782  0.00  0.00    -0.369 OA
ATOM      3  O   UNL     1      -6.312 -10.208  20.086  0.00  0.00    -0.273 OA
ATOM      5  N   UNL     1      -6.707 -10.624  17.830  0.00  0.00    -0.291 N 
ATOM      7  C   UNL     1      -6.195 -11.193  16.576  0.00  0.00    +0.135 C 
ATOM     10  C   UNL     1      -5.472 -12.505  16.856  0.00  0.00    +0.185 C 
ATOM     12  C   UNL     1      -6.035 -10.795  19.038  0.00  0.00    +0.242 C 
ATOM     13  C   UNL     1      -4.939 -11.855  19.034  0.00  0.00    +0.255 C 
BRANCH   5   9
ATOM      9  C   UNL     1      -7.846  -9.719  17.743  0.00  0.00    +0.111 C 
BRANCH   9  11
ATOM     11  C   UNL     1      -8.953 -10.262  16.834  0.00  0.00    +0.000 C 
ATOM     15  C   UNL     1     -10.166 -10.734  17.641  0.00  0.00    +0.009 C 
ATOM     16  C   UNL     1      -9.380  -9.191  15.830  0.00  0.00    +0.009 C 
ENDBRANCH   9  11
ENDBRANCH   5   9
ENDBRANCH   8   7
BRANCH   8   2
ATOM      2  O   UNL     1      -5.637  -8.871  16.245  0.00  0.00    -0.385 OA
ATOM     29  H   UNL     1      -6.036  -8.894  17.131  0.00  0.00    +0.210 HD
ENDBRANCH   8   2
ENDBRANCH  14   8
TORSDOF 7
ENDMDL
