MODEL 1
REMARK VINA RESULT:      -6.2      0.000      0.000
REMARK  Name = 45784407
REMARK  14 active torsions:
REMARK  status: ('A' for Active; 'I' for Inactive)
REMARK    1  A    between atoms: O_1  and  C_11
REMARK    2  A    between atoms: O_4  and  C_24
REMARK    3  A    between atoms: O_4  and  C_28
REMARK    4  A    between atoms: N_5  and  C_15
REMARK    5  A    between atoms: N_6  and  C_25
REMARK    6  A    between atoms: N_6  and  C_26
REMARK    7  A    between atoms: C_8  and  C_18
REMARK    8  A    between atoms: C_10  and  C_20
REMARK    9  A    between atoms: C_13  and  C_19
REMARK   10  A    between atoms: C_19  and  C_21
REMARK   11  A    between atoms: C_19  and  C_22
REMARK   12  A    between atoms: C_23  and  C_24
REMARK   13  A    between atoms: C_25  and  C_27
REMARK   14  A    between atoms: C_27  and  C_29
REMARK                            x       y       z     vdW  Elec       q    Type
REMARK                         _______ _______ _______ _____ _____    ______ ____
ROOT
ATOM      8  C   UNL     1      -4.762 -11.580  17.675  0.00  0.00    -0.027 C 
ATOM      9  C   UNL     1      -5.617 -10.531  16.889  0.00  0.00    +0.028 C 
ATOM     10  C   UNL     1      -7.110 -10.547  17.379  0.00  0.00    +0.012 C 
ATOM     11  C   UNL     1      -5.416 -10.677  15.353  0.00  0.00    +0.122 C 
ATOM     12  C   UNL     1      -3.280 -11.461  17.250  0.00  0.00    +0.007 C 
ATOM     13  C   UNL     1      -3.925 -10.661  14.944  0.00  0.00    +0.029 C 
ATOM     14  C   UNL     1      -4.845 -11.268  19.188  0.00  0.00    +0.009 C 
ATOM     15  C   UNL     1      -7.176 -10.305  18.913  0.00  0.00    +0.076 C 
ATOM     16  C   UNL     1      -3.075 -11.642  15.752  0.00  0.00    +0.007 C 
ATOM     17  C   UNL     1      -6.272 -11.242  19.715  0.00  0.00    +0.023 C 
ATOM     18  C   UNL     1      -5.235 -13.035  17.429  0.00  0.00    +0.011 C 
ATOM     20  C   UNL     1      -8.003  -9.517  16.666  0.00  0.00    +0.010 C 
ENDROOT
BRANCH  15   5
ATOM      3  O   UNL     1      -8.757 -12.720  19.098  0.00  0.00    -0.273 OA
ATOM      5  N   UNL     1      -8.527 -10.428  19.418  0.00  0.00    -0.310 N 
ATOM     23  C   UNL     1      -9.203 -11.636  19.465  0.00  0.00    +0.239 C 
ATOM     30  H   UNL     1      -9.015  -9.579  19.689  0.00  0.00    +0.149 HD
BRANCH  23  24
ATOM     24  C   UNL     1     -10.593 -11.474  20.039  0.00  0.00    +0.255 C 
BRANCH  24   4
ATOM      4  O   UNL     1     -10.913 -10.109  20.197  0.00  0.00    -0.374 OA
ATOM     28  C   UNL     1     -12.321  -9.892  20.228  0.00  0.00    +0.194 C 
ENDBRANCH  24   4
ENDBRANCH  23  24
ENDBRANCH  15   5
BRANCH  11   1
ATOM      1  O   UNL     1      -6.034  -9.577  14.685  0.00  0.00    -0.391 OA
ATOM     31  H   UNL     1      -5.339  -8.942  14.441  0.00  0.00    +0.210 HD
ENDBRANCH  11   1
BRANCH  13  19
ATOM     19  C   UNL     1      -3.742 -10.936  13.447  0.00  0.00    +0.078 C 
ATOM     21  C   UNL     1      -3.698 -12.447  13.209  0.00  0.00    +0.017 C 
BRANCH  19  22
ATOM      2  O   UNL     1      -1.549 -10.025  13.748  0.00  0.00    -0.275 OA
ATOM      6  N   UNL     1      -2.387  -9.924  11.594  0.00  0.00    -0.303 N 
ATOM     22  C   UNL     1      -2.461 -10.263  12.949  0.00  0.00    +0.219 C 
ATOM     26  C   UNL     1      -1.189  -9.261  11.091  0.00  0.00    +0.132 C 
BRANCH   6  25
ATOM     25  C   UNL     1      -3.402 -10.200  10.580  0.00  0.00    +0.122 C 
BRANCH  25  27
ATOM     27  C   UNL     1      -4.234  -8.969  10.239  0.00  0.00    +0.137 C 
BRANCH  27  29
ATOM      7  N   UNL     1      -6.282  -8.691  11.866  0.00  0.00    -0.197 NA
ATOM     29  C   UNL     1      -5.379  -8.813  11.148  0.00  0.00    +0.064 C 
ENDBRANCH  27  29
ENDBRANCH  25  27
ENDBRANCH   6  25
ENDBRANCH  19  22
ENDBRANCH  13  19
TORSDOF 9
ENDMDL
MODEL 2
REMARK VINA RESULT:      -6.2      3.238      8.129
REMARK  Name = 45784407
REMARK  14 active torsions:
REMARK  status: ('A' for Active; 'I' for Inactive)
REMARK    1  A    between atoms: O_1  and  C_11
REMARK    2  A    between atoms: O_4  and  C_24
REMARK    3  A    between atoms: O_4  and  C_28
REMARK    4  A    between atoms: N_5  and  C_15
REMARK    5  A    between atoms: N_6  and  C_25
REMARK    6  A    between atoms: N_6  and  C_26
REMARK    7  A    between atoms: C_8  and  C_18
REMARK    8  A    between atoms: C_10  and  C_20
REMARK    9  A    between atoms: C_13  and  C_19
REMARK   10  A    between atoms: C_19  and  C_21
REMARK   11  A    between atoms: C_19  and  C_22
REMARK   12  A    between atoms: C_23  and  C_24
REMARK   13  A    between atoms: C_25  and  C_27
REMARK   14  A    between atoms: C_27  and  C_29
REMARK                            x       y       z     vdW  Elec       q    Type
REMARK                         _______ _______ _______ _____ _____    ______ ____
ROOT
ATOM      8  C   UNL     1      -3.714 -10.409  10.552  0.00  0.00    -0.027 C 
ATOM      9  C   UNL     1      -5.046 -10.201  11.347  0.00  0.00    +0.028 C 
ATOM     10  C   UNL     1      -5.894  -9.037  10.721  0.00  0.00    +0.012 C 
ATOM     11  C   UNL     1      -4.779 -10.086  12.875  0.00  0.00    +0.122 C 
ATOM     12  C   UNL     1      -2.958 -11.632  11.123  0.00  0.00    +0.007 C 
ATOM     13  C   UNL     1      -3.933 -11.260  13.421  0.00  0.00    +0.029 C 
ATOM     14  C   UNL     1      -4.051 -10.712   9.074  0.00  0.00    +0.009 C 
ATOM     15  C   UNL     1      -6.164  -9.316   9.216  0.00  0.00    +0.076 C 
ATOM     16  C   UNL     1      -2.660 -11.505  12.611  0.00  0.00    +0.007 C 
ATOM     17  C   UNL     1      -4.897  -9.629   8.420  0.00  0.00    +0.023 C 
ATOM     18  C   UNL     1      -2.783  -9.172  10.620  0.00  0.00    +0.011 C 
ATOM     20  C   UNL     1      -7.234  -8.797  11.437  0.00  0.00    +0.010 C 
ENDROOT
BRANCH  15   5
ATOM      3  O   UNL     1      -8.205  -9.463   7.172  0.00  0.00    -0.273 OA
ATOM      5  N   UNL     1      -6.843  -8.208   8.578  0.00  0.00    -0.310 N 
ATOM     23  C   UNL     1      -7.811  -8.382   7.604  0.00  0.00    +0.239 C 
ATOM     30  H   UNL     1      -6.547  -7.266   8.816  0.00  0.00    +0.149 HD
BRANCH  23  24
ATOM     24  C   UNL     1      -8.354  -7.058   7.113  0.00  0.00    +0.255 C 
BRANCH  24   4
ATOM      4  O   UNL     1      -8.127  -6.041   8.066  0.00  0.00    -0.374 OA
ATOM     28  C   UNL     1      -9.337  -5.404   8.464  0.00  0.00    +0.194 C 
ENDBRANCH  24   4
ENDBRANCH  23  24
ENDBRANCH  15   5
BRANCH  11   1
ATOM      1  O   UNL     1      -6.020 -10.115  13.581  0.00  0.00    -0.391 OA
ATOM     31  H   UNL     1      -6.403  -9.221  13.557  0.00  0.00    +0.210 HD
ENDBRANCH  11   1
BRANCH  13  19
ATOM     19  C   UNL     1      -3.571 -11.062  14.898  0.00  0.00    +0.078 C 
ATOM     21  C   UNL     1      -2.056 -10.902  15.034  0.00  0.00    +0.017 C 
BRANCH  19  22
ATOM      2  O   UNL     1      -4.029 -13.388  15.234  0.00  0.00    -0.275 OA
ATOM      6  N   UNL     1      -4.586 -11.994  16.994  0.00  0.00    -0.303 N 
ATOM     22  C   UNL     1      -4.073 -12.252  15.719  0.00  0.00    +0.219 C 
ATOM     26  C   UNL     1      -5.094 -13.104  17.794  0.00  0.00    +0.132 C 
BRANCH   6  25
ATOM     25  C   UNL     1      -4.643 -10.692  17.654  0.00  0.00    +0.122 C 
BRANCH  25  27
ATOM     27  C   UNL     1      -6.048 -10.340  18.128  0.00  0.00    +0.137 C 
BRANCH  27  29
ATOM      7  N   UNL     1      -7.582  -9.548  16.144  0.00  0.00    -0.197 NA
ATOM     29  C   UNL     1      -6.906  -9.898  17.020  0.00  0.00    +0.064 C 
ENDBRANCH  27  29
ENDBRANCH  25  27
ENDBRANCH   6  25
ENDBRANCH  19  22
ENDBRANCH  13  19
TORSDOF 9
ENDMDL
MODEL 3
REMARK VINA RESULT:      -6.1     24.992     27.089
REMARK  Name = 45784407
REMARK  14 active torsions:
REMARK  status: ('A' for Active; 'I' for Inactive)
REMARK    1  A    between atoms: O_1  and  C_11
REMARK    2  A    between atoms: O_4  and  C_24
REMARK    3  A    between atoms: O_4  and  C_28
REMARK    4  A    between atoms: N_5  and  C_15
REMARK    5  A    between atoms: N_6  and  C_25
REMARK    6  A    between atoms: N_6  and  C_26
REMARK    7  A    between atoms: C_8  and  C_18
REMARK    8  A    between atoms: C_10  and  C_20
REMARK    9  A    between atoms: C_13  and  C_19
REMARK   10  A    between atoms: C_19  and  C_21
REMARK   11  A    between atoms: C_19  and  C_22
REMARK   12  A    between atoms: C_23  and  C_24
REMARK   13  A    between atoms: C_25  and  C_27
REMARK   14  A    between atoms: C_27  and  C_29
REMARK                            x       y       z     vdW  Elec       q    Type
REMARK                         _______ _______ _______ _____ _____    ______ ____
ROOT
ATOM      8  C   UNL     1       9.497   6.097   6.050  0.00  0.00    -0.027 C 
ATOM      9  C   UNL     1      10.503   7.192   5.563  0.00  0.00    +0.028 C 
ATOM     10  C   UNL     1      10.033   8.622   6.012  0.00  0.00    +0.012 C 
ATOM     11  C   UNL     1      10.814   7.037   4.046  0.00  0.00    +0.122 C 
ATOM     12  C   UNL     1      10.045   4.696   5.690  0.00  0.00    +0.007 C 
ATOM     13  C   UNL     1      11.262   5.604   3.674  0.00  0.00    +0.029 C 
ATOM     14  C   UNL     1       9.375   6.173   7.590  0.00  0.00    +0.009 C 
ATOM     15  C   UNL     1       9.842   8.666   7.554  0.00  0.00    +0.076 C 
ATOM     16  C   UNL     1      10.313   4.527   4.200  0.00  0.00    +0.007 C 
ATOM     17  C   UNL     1       8.948   7.547   8.088  0.00  0.00    +0.023 C 
ATOM     18  C   UNL     1       8.091   6.258   5.419  0.00  0.00    +0.011 C 
ATOM     20  C   UNL     1      10.994   9.747   5.590  0.00  0.00    +0.010 C 
ENDROOT
BRANCH  15   5
ATOM      3  O   UNL     1      11.168  10.674   9.159  0.00  0.00    -0.273 OA
ATOM      5  N   UNL     1       9.298   9.934   7.991  0.00  0.00    -0.310 N 
ATOM     23  C   UNL     1      10.016  10.833   8.762  0.00  0.00    +0.239 C 
ATOM     30  H   UNL     1       8.327  10.138   7.772  0.00  0.00    +0.149 HD
BRANCH  23  24
ATOM     24  C   UNL     1       9.207  12.073   9.072  0.00  0.00    +0.255 C 
BRANCH  24   4
ATOM      4  O   UNL     1       8.275  11.818  10.101  0.00  0.00    -0.374 OA
ATOM     28  C   UNL     1       8.787  12.176  11.382  0.00  0.00    +0.194 C 
ENDBRANCH  24   4
ENDBRANCH  23  24
ENDBRANCH  15   5
BRANCH  11   1
ATOM      1  O   UNL     1      11.888   7.907   3.688  0.00  0.00    -0.391 OA
ATOM     31  H   UNL     1      12.724   7.430   3.832  0.00  0.00    +0.210 HD
ENDBRANCH  11   1
BRANCH  13  19
ATOM     19  C   UNL     1      11.437   5.438   2.160  0.00  0.00    +0.078 C 
ATOM     21  C   UNL     1      10.129   4.935   1.548  0.00  0.00    +0.017 C 
BRANCH  19  22
ATOM      2  O   UNL     1      12.395   3.250   1.986  0.00  0.00    -0.275 OA
ATOM      6  N   UNL     1      13.824   5.008   1.516  0.00  0.00    -0.303 N 
ATOM     22  C   UNL     1      12.586   4.467   1.875  0.00  0.00    +0.219 C 
ATOM     26  C   UNL     1      14.945   4.111   1.259  0.00  0.00    +0.132 C 
BRANCH   6  25
ATOM     25  C   UNL     1      14.123   6.427   1.329  0.00  0.00    +0.122 C 
BRANCH  25  27
ATOM     27  C   UNL     1      15.358   6.868   2.106  0.00  0.00    +0.137 C 
BRANCH  27  29
ATOM      7  N   UNL     1      14.828   7.258   4.652  0.00  0.00    -0.197 NA
ATOM     29  C   UNL     1      15.062   7.085   3.529  0.00  0.00    +0.064 C 
ENDBRANCH  27  29
ENDBRANCH  25  27
ENDBRANCH   6  25
ENDBRANCH  19  22
ENDBRANCH  13  19
TORSDOF 9
ENDMDL
MODEL 4
REMARK VINA RESULT:      -5.7     23.685     27.579
REMARK  Name = 45784407
REMARK  14 active torsions:
REMARK  status: ('A' for Active; 'I' for Inactive)
REMARK    1  A    between atoms: O_1  and  C_11
REMARK    2  A    between atoms: O_4  and  C_24
REMARK    3  A    between atoms: O_4  and  C_28
REMARK    4  A    between atoms: N_5  and  C_15
REMARK    5  A    between atoms: N_6  and  C_25
REMARK    6  A    between atoms: N_6  and  C_26
REMARK    7  A    between atoms: C_8  and  C_18
REMARK    8  A    between atoms: C_10  and  C_20
REMARK    9  A    between atoms: C_13  and  C_19
REMARK   10  A    between atoms: C_19  and  C_21
REMARK   11  A    between atoms: C_19  and  C_22
REMARK   12  A    between atoms: C_23  and  C_24
REMARK   13  A    between atoms: C_25  and  C_27
REMARK   14  A    between atoms: C_27  and  C_29
REMARK                            x       y       z     vdW  Elec       q    Type
REMARK                         _______ _______ _______ _____ _____    ______ ____
ROOT
ATOM      8  C   UNL     1      12.767   7.314   2.660  0.00  0.00    -0.027 C 
ATOM      9  C   UNL     1      11.871   6.040   2.809  0.00  0.00    +0.028 C 
ATOM     10  C   UNL     1      11.371   5.878   4.290  0.00  0.00    +0.012 C 
ATOM     11  C   UNL     1      12.565   4.788   2.198  0.00  0.00    +0.122 C 
ATOM     12  C   UNL     1      13.149   7.506   1.173  0.00  0.00    +0.007 C 
ATOM     13  C   UNL     1      13.037   5.021   0.744  0.00  0.00    +0.029 C 
ATOM     14  C   UNL     1      11.957   8.555   3.102  0.00  0.00    +0.009 C 
ATOM     15  C   UNL     1      10.622   7.161   4.748  0.00  0.00    +0.076 C 
ATOM     16  C   UNL     1      13.863   6.297   0.582  0.00  0.00    +0.007 C 
ATOM     17  C   UNL     1      11.422   8.444   4.522  0.00  0.00    +0.023 C 
ATOM     18  C   UNL     1      14.066   7.228   3.500  0.00  0.00    +0.011 C 
ATOM     20  C   UNL     1      10.459   4.658   4.502  0.00  0.00    +0.010 C 
ENDROOT
BRANCH  15   5
ATOM      3  O   UNL     1       7.956   7.347   5.853  0.00  0.00    -0.273 OA
ATOM      5  N   UNL     1      10.248   7.093   6.145  0.00  0.00    -0.310 N 
ATOM     23  C   UNL     1       8.937   7.194   6.576  0.00  0.00    +0.239 C 
ATOM     30  H   UNL     1      10.991   7.032   6.835  0.00  0.00    +0.149 HD
BRANCH  23  24
ATOM     24  C   UNL     1       8.835   7.089   8.082  0.00  0.00    +0.255 C 
BRANCH  24   4
ATOM      4  O   UNL     1       9.879   6.291   8.599  0.00  0.00    -0.374 OA
ATOM     28  C   UNL     1       9.389   5.092   9.193  0.00  0.00    +0.194 C 
ENDBRANCH  24   4
ENDBRANCH  23  24
ENDBRANCH  15   5
BRANCH  11   1
ATOM      1  O   UNL     1      11.639   3.702   2.157  0.00  0.00    -0.391 OA
ATOM     31  H   UNL     1      11.593   3.309   3.046  0.00  0.00    +0.210 HD
ENDBRANCH  11   1
BRANCH  13  19
ATOM     19  C   UNL     1      13.831   3.825   0.206  0.00  0.00    +0.078 C 
ATOM     21  C   UNL     1      15.094   3.631   1.048  0.00  0.00    +0.017 C 
BRANCH  19  22
ATOM      2  O   UNL     1      15.328   4.409  -1.570  0.00  0.00    -0.275 OA
ATOM      6  N   UNL     1      13.171   3.875  -2.215  0.00  0.00    -0.303 N 
ATOM     22  C   UNL     1      14.183   4.057  -1.266  0.00  0.00    +0.219 C 
ATOM     26  C   UNL     1      13.467   4.109  -3.624  0.00  0.00    +0.132 C 
BRANCH   6  25
ATOM     25  C   UNL     1      11.806   3.428  -1.944  0.00  0.00    +0.122 C 
BRANCH  25  27
ATOM     27  C   UNL     1      11.570   1.985  -2.377  0.00  0.00    +0.137 C 
BRANCH  27  29
ATOM      7  N   UNL     1       9.195   1.662  -3.459  0.00  0.00    -0.197 NA
ATOM     29  C   UNL     1      10.242   1.806  -2.982  0.00  0.00    +0.064 C 
ENDBRANCH  27  29
ENDBRANCH  25  27
ENDBRANCH   6  25
ENDBRANCH  19  22
ENDBRANCH  13  19
TORSDOF 9
ENDMDL
MODEL 5
REMARK VINA RESULT:      -5.6     19.325     21.571
REMARK  Name = 45784407
REMARK  14 active torsions:
REMARK  status: ('A' for Active; 'I' for Inactive)
REMARK    1  A    between atoms: O_1  and  C_11
REMARK    2  A    between atoms: O_4  and  C_24
REMARK    3  A    between atoms: O_4  and  C_28
REMARK    4  A    between atoms: N_5  and  C_15
REMARK    5  A    between atoms: N_6  and  C_25
REMARK    6  A    between atoms: N_6  and  C_26
REMARK    7  A    between atoms: C_8  and  C_18
REMARK    8  A    between atoms: C_10  and  C_20
REMARK    9  A    between atoms: C_13  and  C_19
REMARK   10  A    between atoms: C_19  and  C_21
REMARK   11  A    between atoms: C_19  and  C_22
REMARK   12  A    between atoms: C_23  and  C_24
REMARK   13  A    between atoms: C_25  and  C_27
REMARK   14  A    between atoms: C_27  and  C_29
REMARK                            x       y       z     vdW  Elec       q    Type
REMARK                         _______ _______ _______ _____ _____    ______ ____
ROOT
ATOM      8  C   UNL     1     -11.576   8.249  18.906  0.00  0.00    -0.027 C 
ATOM      9  C   UNL     1     -12.957   7.845  18.291  0.00  0.00    +0.028 C 
ATOM     10  C   UNL     1     -13.251   8.671  16.988  0.00  0.00    +0.012 C 
ATOM     11  C   UNL     1     -14.082   7.869  19.365  0.00  0.00    +0.122 C 
ATOM     12  C   UNL     1     -11.267   7.340  20.120  0.00  0.00    +0.007 C 
ATOM     13  C   UNL     1     -13.723   7.042  20.621  0.00  0.00    +0.029 C 
ATOM     14  C   UNL     1     -10.468   8.021  17.852  0.00  0.00    +0.009 C 
ATOM     15  C   UNL     1     -12.094   8.493  15.965  0.00  0.00    +0.076 C 
ATOM     16  C   UNL     1     -12.347   7.391  21.192  0.00  0.00    +0.007 C 
ATOM     17  C   UNL     1     -10.713   8.776  16.555  0.00  0.00    +0.023 C 
ATOM     18  C   UNL     1     -11.542   9.727  19.370  0.00  0.00    +0.011 C 
ATOM     20  C   UNL     1     -14.583   8.303  16.312  0.00  0.00    +0.010 C 
ENDROOT
BRANCH  15   5
ATOM      3  O   UNL     1     -11.377   7.867  13.234  0.00  0.00    -0.273 OA
ATOM      5  N   UNL     1     -12.275   9.332  14.799  0.00  0.00    -0.310 N 
ATOM     23  C   UNL     1     -11.896   8.941  13.526  0.00  0.00    +0.239 C 
ATOM     30  H   UNL     1     -12.639  10.271  14.938  0.00  0.00    +0.149 HD
BRANCH  23  24
ATOM     24  C   UNL     1     -12.203  10.008  12.499  0.00  0.00    +0.255 C 
BRANCH  24   4
ATOM      4  O   UNL     1     -13.594  10.234  12.413  0.00  0.00    -0.374 OA
ATOM     28  C   UNL     1     -14.248   9.235  11.636  0.00  0.00    +0.194 C 
ENDBRANCH  24   4
ENDBRANCH  23  24
ENDBRANCH  15   5
BRANCH  11   1
ATOM      1  O   UNL     1     -15.271   7.292  18.824  0.00  0.00    -0.391 OA
ATOM     31  H   UNL     1     -15.505   6.518  19.364  0.00  0.00    +0.210 HD
ENDBRANCH  11   1
BRANCH  13  19
ATOM     19  C   UNL     1     -14.783   7.184  21.719  0.00  0.00    +0.078 C 
ATOM     21  C   UNL     1     -14.419   8.356  22.631  0.00  0.00    +0.017 C 
BRANCH  19  22
ATOM      2  O   UNL     1     -13.850   5.293  22.855  0.00  0.00    -0.275 OA
ATOM      6  N   UNL     1     -16.161   5.392  22.809  0.00  0.00    -0.303 N 
ATOM     22  C   UNL     1     -14.884   5.880  22.514  0.00  0.00    +0.219 C 
ATOM     26  C   UNL     1     -16.292   4.140  23.546  0.00  0.00    +0.132 C 
BRANCH   6  25
ATOM     25  C   UNL     1     -17.428   6.038  22.475  0.00  0.00    +0.122 C 
BRANCH  25  27
ATOM     27  C   UNL     1     -18.260   5.218  21.495  0.00  0.00    +0.137 C 
BRANCH  27  29
ATOM      7  N   UNL     1     -16.942   4.715  19.276  0.00  0.00    -0.197 NA
ATOM     29  C   UNL     1     -17.524   4.936  20.255  0.00  0.00    +0.064 C 
ENDBRANCH  27  29
ENDBRANCH  25  27
ENDBRANCH   6  25
ENDBRANCH  19  22
ENDBRANCH  13  19
TORSDOF 9
ENDMDL
MODEL 6
REMARK VINA RESULT:      -5.5      3.571      6.724
REMARK  Name = 45784407
REMARK  14 active torsions:
REMARK  status: ('A' for Active; 'I' for Inactive)
REMARK    1  A    between atoms: O_1  and  C_11
REMARK    2  A    between atoms: O_4  and  C_24
REMARK    3  A    between atoms: O_4  and  C_28
REMARK    4  A    between atoms: N_5  and  C_15
REMARK    5  A    between atoms: N_6  and  C_25
REMARK    6  A    between atoms: N_6  and  C_26
REMARK    7  A    between atoms: C_8  and  C_18
REMARK    8  A    between atoms: C_10  and  C_20
REMARK    9  A    between atoms: C_13  and  C_19
REMARK   10  A    between atoms: C_19  and  C_21
REMARK   11  A    between atoms: C_19  and  C_22
REMARK   12  A    between atoms: C_23  and  C_24
REMARK   13  A    between atoms: C_25  and  C_27
REMARK   14  A    between atoms: C_27  and  C_29
REMARK                            x       y       z     vdW  Elec       q    Type
REMARK                         _______ _______ _______ _____ _____    ______ ____
ROOT
ATOM      8  C   UNL     1      -3.817 -10.225  10.969  0.00  0.00    -0.027 C 
ATOM      9  C   UNL     1      -5.152  -9.826  11.681  0.00  0.00    +0.028 C 
ATOM     10  C   UNL     1      -5.407 -10.731  12.940  0.00  0.00    +0.012 C 
ATOM     11  C   UNL     1      -6.330  -9.745  10.668  0.00  0.00    +0.122 C 
ATOM     12  C   UNL     1      -3.540  -9.245   9.804  0.00  0.00    +0.007 C 
ATOM     13  C   UNL     1      -6.008  -8.844   9.453  0.00  0.00    +0.029 C 
ATOM     14  C   UNL     1      -2.651 -10.101  11.976  0.00  0.00    +0.009 C 
ATOM     15  C   UNL     1      -4.194 -10.656  13.911  0.00  0.00    +0.076 C 
ATOM     16  C   UNL     1      -4.675  -9.192   8.789  0.00  0.00    +0.007 C 
ATOM     17  C   UNL     1      -2.854 -10.936  13.232  0.00  0.00    +0.023 C 
ATOM     18  C   UNL     1      -3.853 -11.668  10.406  0.00  0.00    +0.011 C 
ATOM     20  C   UNL     1      -6.691 -10.373  13.707  0.00  0.00    +0.010 C 
ENDROOT
BRANCH  15   5
ATOM      3  O   UNL     1      -4.414  -9.968  16.711  0.00  0.00    -0.273 OA
ATOM      5  N   UNL     1      -4.343 -11.567  15.025  0.00  0.00    -0.310 N 
ATOM     23  C   UNL     1      -4.440 -11.138  16.338  0.00  0.00    +0.239 C 
ATOM     30  H   UNL     1      -4.311 -12.565  14.834  0.00  0.00    +0.149 HD
BRANCH  23  24
ATOM     24  C   UNL     1      -4.589 -12.299  17.296  0.00  0.00    +0.255 C 
BRANCH  24   4
ATOM      4  O   UNL     1      -4.732 -11.838  18.622  0.00  0.00    -0.374 OA
ATOM     28  C   UNL     1      -3.596 -12.156  19.421  0.00  0.00    +0.194 C 
ENDBRANCH  24   4
ENDBRANCH  23  24
ENDBRANCH  15   5
BRANCH  11   1
ATOM      1  O   UNL     1      -7.471  -9.173  11.308  0.00  0.00    -0.391 OA
ATOM     31  H   UNL     1      -7.191  -8.825  12.172  0.00  0.00    +0.210 HD
ENDBRANCH  11   1
BRANCH  13  19
ATOM     19  C   UNL     1      -7.126  -8.881   8.405  0.00  0.00    +0.078 C 
ATOM     21  C   UNL     1      -6.554  -9.344   7.064  0.00  0.00    +0.017 C 
BRANCH  19  22
ATOM      2  O   UNL     1      -7.064  -6.487   8.424  0.00  0.00    -0.275 OA
ATOM      6  N   UNL     1      -9.138  -7.431   8.023  0.00  0.00    -0.303 N 
ATOM     22  C   UNL     1      -7.765  -7.495   8.280  0.00  0.00    +0.219 C 
ATOM     26  C   UNL     1      -9.782  -6.125   7.920  0.00  0.00    +0.132 C 
BRANCH   6  25
ATOM     25  C   UNL     1     -10.029  -8.568   7.805  0.00  0.00    +0.122 C 
BRANCH  25  27
ATOM     27  C   UNL     1     -11.201  -8.585   8.780  0.00  0.00    +0.137 C 
BRANCH  27  29
ATOM      7  N   UNL     1     -10.453  -9.291  11.200  0.00  0.00    -0.197 NA
ATOM     29  C   UNL     1     -10.783  -8.980  10.132  0.00  0.00    +0.064 C 
ENDBRANCH  27  29
ENDBRANCH  25  27
ENDBRANCH   6  25
ENDBRANCH  19  22
ENDBRANCH  13  19
TORSDOF 9
ENDMDL
MODEL 7
REMARK VINA RESULT:      -5.4      3.238      4.974
REMARK  Name = 45784407
REMARK  14 active torsions:
REMARK  status: ('A' for Active; 'I' for Inactive)
REMARK    1  A    between atoms: O_1  and  C_11
REMARK    2  A    between atoms: O_4  and  C_24
REMARK    3  A    between atoms: O_4  and  C_28
REMARK    4  A    between atoms: N_5  and  C_15
REMARK    5  A    between atoms: N_6  and  C_25
REMARK    6  A    between atoms: N_6  and  C_26
REMARK    7  A    between atoms: C_8  and  C_18
REMARK    8  A    between atoms: C_10  and  C_20
REMARK    9  A    between atoms: C_13  and  C_19
REMARK   10  A    between atoms: C_19  and  C_21
REMARK   11  A    between atoms: C_19  and  C_22
REMARK   12  A    between atoms: C_23  and  C_24
REMARK   13  A    between atoms: C_25  and  C_27
REMARK   14  A    between atoms: C_27  and  C_29
REMARK                            x       y       z     vdW  Elec       q    Type
REMARK                         _______ _______ _______ _____ _____    ______ ____
ROOT
ATOM      8  C   UNL     1      -9.490 -10.822  18.373  0.00  0.00    -0.027 C 
ATOM      9  C   UNL     1      -8.863  -9.917  17.261  0.00  0.00    +0.028 C 
ATOM     10  C   UNL     1      -9.980  -9.305  16.341  0.00  0.00    +0.012 C 
ATOM     11  C   UNL     1      -7.714 -10.656  16.515  0.00  0.00    +0.122 C 
ATOM     12  C   UNL     1      -8.376 -11.316  19.326  0.00  0.00    +0.007 C 
ATOM     13  C   UNL     1      -6.656 -11.238  17.481  0.00  0.00    +0.029 C 
ATOM     14  C   UNL     1     -10.484  -9.980  19.207  0.00  0.00    +0.009 C 
ATOM     15  C   UNL     1     -11.014  -8.524  17.199  0.00  0.00    +0.076 C 
ATOM     16  C   UNL     1      -7.270 -12.074  18.604  0.00  0.00    +0.007 C 
ATOM     17  C   UNL     1     -11.576  -9.338  18.364  0.00  0.00    +0.023 C 
ATOM     18  C   UNL     1     -10.229 -12.053  17.790  0.00  0.00    +0.011 C 
ATOM     20  C   UNL     1      -9.434  -8.380  15.241  0.00  0.00    +0.010 C 
ENDROOT
BRANCH  15   5
ATOM      3  O   UNL     1     -11.534  -5.795  16.394  0.00  0.00    -0.273 OA
ATOM      5  N   UNL     1     -12.121  -8.044  16.399  0.00  0.00    -0.310 N 
ATOM     23  C   UNL     1     -12.284  -6.710  16.065  0.00  0.00    +0.239 C 
ATOM     30  H   UNL     1     -12.838  -8.711  16.127  0.00  0.00    +0.149 HD
BRANCH  23  24
ATOM     24  C   UNL     1     -13.522  -6.493  15.223  0.00  0.00    +0.255 C 
BRANCH  24   4
ATOM      4  O   UNL     1     -14.615  -7.217  15.745  0.00  0.00    -0.374 OA
ATOM     28  C   UNL     1     -15.862  -6.621  15.399  0.00  0.00    +0.194 C 
ENDBRANCH  24   4
ENDBRANCH  23  24
ENDBRANCH  15   5
BRANCH  11   1
ATOM      1  O   UNL     1      -7.028  -9.736  15.665  0.00  0.00    -0.391 OA
ATOM     31  H   UNL     1      -7.489  -9.714  14.808  0.00  0.00    +0.210 HD
ENDBRANCH  11   1
BRANCH  13  19
ATOM     19  C   UNL     1      -5.605 -12.071  16.738  0.00  0.00    +0.078 C 
ATOM     21  C   UNL     1      -5.694 -13.528  17.195  0.00  0.00    +0.017 C 
BRANCH  19  22
ATOM      2  O   UNL     1      -3.895 -11.161  18.145  0.00  0.00    -0.275 OA
ATOM      6  N   UNL     1      -3.347 -11.361  15.907  0.00  0.00    -0.303 N 
ATOM     22  C   UNL     1      -4.210 -11.498  16.999  0.00  0.00    +0.219 C 
ATOM     26  C   UNL     1      -2.018 -10.797  16.117  0.00  0.00    +0.132 C 
BRANCH   6  25
ATOM     25  C   UNL     1      -3.626 -11.765  14.531  0.00  0.00    +0.122 C 
BRANCH  25  27
ATOM     27  C   UNL     1      -4.042 -10.590  13.652  0.00  0.00    +0.137 C 
BRANCH  27  29
ATOM      7  N   UNL     1      -2.470 -10.327  11.560  0.00  0.00    -0.197 NA
ATOM     29  C   UNL     1      -3.165 -10.444  12.483  0.00  0.00    +0.064 C 
ENDBRANCH  27  29
ENDBRANCH  25  27
ENDBRANCH   6  25
ENDBRANCH  19  22
ENDBRANCH  13  19
TORSDOF 9
ENDMDL
MODEL 8
REMARK VINA RESULT:      -5.3      3.165      8.209
REMARK  Name = 45784407
REMARK  14 active torsions:
REMARK  status: ('A' for Active; 'I' for Inactive)
REMARK    1  A    between atoms: O_1  and  C_11
REMARK    2  A    between atoms: O_4  and  C_24
REMARK    3  A    between atoms: O_4  and  C_28
REMARK    4  A    between atoms: N_5  and  C_15
REMARK    5  A    between atoms: N_6  and  C_25
REMARK    6  A    between atoms: N_6  and  C_26
REMARK    7  A    between atoms: C_8  and  C_18
REMARK    8  A    between atoms: C_10  and  C_20
REMARK    9  A    between atoms: C_13  and  C_19
REMARK   10  A    between atoms: C_19  and  C_21
REMARK   11  A    between atoms: C_19  and  C_22
REMARK   12  A    between atoms: C_23  and  C_24
REMARK   13  A    between atoms: C_25  and  C_27
REMARK   14  A    between atoms: C_27  and  C_29
REMARK                            x       y       z     vdW  Elec       q    Type
REMARK                         _______ _______ _______ _____ _____    ______ ____
ROOT
ATOM      8  C   UNL     1      -3.607 -11.972  12.077  0.00  0.00    -0.027 C 
ATOM      9  C   UNL     1      -4.854 -11.060  12.325  0.00  0.00    +0.028 C 
ATOM     10  C   UNL     1      -5.120 -10.128  11.089  0.00  0.00    +0.012 C 
ATOM     11  C   UNL     1      -4.758 -10.335  13.699  0.00  0.00    +0.122 C 
ATOM     12  C   UNL     1      -3.441 -12.953  13.262  0.00  0.00    +0.007 C 
ATOM     13  C   UNL     1      -4.488 -11.311  14.868  0.00  0.00    +0.029 C 
ATOM     14  C   UNL     1      -3.843 -12.813  10.800  0.00  0.00    +0.009 C 
ATOM     15  C   UNL     1      -5.281 -10.979   9.798  0.00  0.00    +0.076 C 
ATOM     16  C   UNL     1      -3.307 -12.246  14.604  0.00  0.00    +0.007 C 
ATOM     17  C   UNL     1      -4.134 -11.963   9.572  0.00  0.00    +0.023 C 
ATOM     18  C   UNL     1      -2.298 -11.159  11.917  0.00  0.00    +0.011 C 
ATOM     20  C   UNL     1      -6.351  -9.222  11.254  0.00  0.00    +0.010 C 
ENDROOT
BRANCH  15   5
ATOM      3  O   UNL     1      -7.389 -11.072   7.820  0.00  0.00    -0.273 OA
ATOM      5  N   UNL     1      -5.412 -10.148   8.620  0.00  0.00    -0.310 N 
ATOM     23  C   UNL     1      -6.463 -10.270   7.728  0.00  0.00    +0.239 C 
ATOM     30  H   UNL     1      -4.663  -9.493   8.413  0.00  0.00    +0.149 HD
BRANCH  23  24
ATOM     24  C   UNL     1      -6.350  -9.278   6.592  0.00  0.00    +0.255 C 
BRANCH  24   4
ATOM      4  O   UNL     1      -7.539  -9.252   5.831  0.00  0.00    -0.374 OA
ATOM     28  C   UNL     1      -8.229  -8.012   5.963  0.00  0.00    +0.194 C 
ENDBRANCH  24   4
ENDBRANCH  23  24
ENDBRANCH  15   5
BRANCH  11   1
ATOM      1  O   UNL     1      -5.998  -9.689  13.985  0.00  0.00    -0.391 OA
ATOM     31  H   UNL     1      -6.095  -8.936  13.377  0.00  0.00    +0.210 HD
ENDBRANCH  11   1
BRANCH  13  19
ATOM     19  C   UNL     1      -4.267 -10.568  16.190  0.00  0.00    +0.078 C 
ATOM     21  C   UNL     1      -2.770 -10.502  16.494  0.00  0.00    +0.017 C 
BRANCH  19  22
ATOM      2  O   UNL     1      -4.549 -12.296  17.823  0.00  0.00    -0.275 OA
ATOM      6  N   UNL     1      -6.255 -10.737  17.713  0.00  0.00    -0.303 N 
ATOM     22  C   UNL     1      -5.026 -11.275  17.316  0.00  0.00    +0.219 C 
ATOM     26  C   UNL     1      -7.014 -11.400  18.767  0.00  0.00    +0.132 C 
BRANCH   6  25
ATOM     25  C   UNL     1      -6.871  -9.519  17.191  0.00  0.00    +0.122 C 
BRANCH  25  27
ATOM     27  C   UNL     1      -8.287  -9.757  16.678  0.00  0.00    +0.137 C 
BRANCH  27  29
ATOM      7  N   UNL     1      -9.879  -7.734  17.215  0.00  0.00    -0.197 NA
ATOM     29  C   UNL     1      -9.176  -8.626  16.978  0.00  0.00    +0.064 C 
ENDBRANCH  27  29
ENDBRANCH  25  27
ENDBRANCH   6  25
ENDBRANCH  19  22
ENDBRANCH  13  19
TORSDOF 9
ENDMDL
MODEL 9
REMARK VINA RESULT:      -5.3     24.377     28.205
REMARK  Name = 45784407
REMARK  14 active torsions:
REMARK  status: ('A' for Active; 'I' for Inactive)
REMARK    1  A    between atoms: O_1  and  C_11
REMARK    2  A    between atoms: O_4  and  C_24
REMARK    3  A    between atoms: O_4  and  C_28
REMARK    4  A    between atoms: N_5  and  C_15
REMARK    5  A    between atoms: N_6  and  C_25
REMARK    6  A    between atoms: N_6  and  C_26
REMARK    7  A    between atoms: C_8  and  C_18
REMARK    8  A    between atoms: C_10  and  C_20
REMARK    9  A    between atoms: C_13  and  C_19
REMARK   10  A    between atoms: C_19  and  C_21
REMARK   11  A    between atoms: C_19  and  C_22
REMARK   12  A    between atoms: C_23  and  C_24
REMARK   13  A    between atoms: C_25  and  C_27
REMARK   14  A    between atoms: C_27  and  C_29
REMARK                            x       y       z     vdW  Elec       q    Type
REMARK                         _______ _______ _______ _____ _____    ______ ____
ROOT
ATOM      8  C   UNL     1      10.285   8.087   0.411  0.00  0.00    -0.027 C 
ATOM      9  C   UNL     1      10.361   6.842   1.355  0.00  0.00    +0.028 C 
ATOM     10  C   UNL     1      10.181   5.510   0.540  0.00  0.00    +0.012 C 
ATOM     11  C   UNL     1       9.419   7.005   2.582  0.00  0.00    +0.122 C 
ATOM     12  C   UNL     1      10.577   9.370   1.224  0.00  0.00    +0.007 C 
ATOM     13  C   UNL     1       9.645   8.339   3.331  0.00  0.00    +0.029 C 
ATOM     14  C   UNL     1      11.375   7.962  -0.679  0.00  0.00    +0.009 C 
ATOM     15  C   UNL     1      11.236   5.430  -0.599  0.00  0.00    +0.076 C 
ATOM     16  C   UNL     1       9.631   9.555   2.403  0.00  0.00    +0.007 C 
ATOM     17  C   UNL     1      11.269   6.675  -1.485  0.00  0.00    +0.023 C 
ATOM     18  C   UNL     1       8.900   8.233  -0.269  0.00  0.00    +0.011 C 
ATOM     20  C   UNL     1      10.275   4.241   1.405  0.00  0.00    +0.010 C 
ENDROOT
BRANCH  15   5
ATOM      3  O   UNL     1      13.159   3.368  -1.242  0.00  0.00    -0.273 OA
ATOM      5  N   UNL     1      11.027   4.273  -1.443  0.00  0.00    -0.310 N 
ATOM     23  C   UNL     1      12.016   3.337  -1.692  0.00  0.00    +0.239 C 
ATOM     30  H   UNL     1      10.133   4.184  -1.919  0.00  0.00    +0.149 HD
BRANCH  23  24
ATOM     24  C   UNL     1      11.525   2.234  -2.603  0.00  0.00    +0.255 C 
BRANCH  24   4
ATOM      4  O   UNL     1      10.117   2.133  -2.552  0.00  0.00    -0.374 OA
ATOM     28  C   UNL     1       9.533   2.182  -3.850  0.00  0.00    +0.194 C 
ENDBRANCH  24   4
ENDBRANCH  23  24
ENDBRANCH  15   5
BRANCH  11   1
ATOM      1  O   UNL     1       9.673   5.961   3.522  0.00  0.00    -0.391 OA
ATOM     31  H   UNL     1       9.611   5.111   3.055  0.00  0.00    +0.210 HD
ENDBRANCH  11   1
BRANCH  13  19
ATOM     19  C   UNL     1       8.622   8.541   4.456  0.00  0.00    +0.078 C 
ATOM     21  C   UNL     1       7.454   9.381   3.937  0.00  0.00    +0.017 C 
BRANCH  19  22
ATOM      2  O   UNL     1       9.866  10.302   5.498  0.00  0.00    -0.275 OA
ATOM      6  N   UNL     1       9.250   8.555   6.885  0.00  0.00    -0.303 N 
ATOM     22  C   UNL     1       9.295   9.216   5.653  0.00  0.00    +0.219 C 
ATOM     26  C   UNL     1       9.901   9.160   8.042  0.00  0.00    +0.132 C 
BRANCH   6  25
ATOM     25  C   UNL     1       8.570   7.291   7.160  0.00  0.00    +0.122 C 
BRANCH  25  27
ATOM     27  C   UNL     1       9.495   6.088   7.016  0.00  0.00    +0.137 C 
BRANCH  27  29
ATOM      7  N   UNL     1      10.186   5.100   9.353  0.00  0.00    -0.197 NA
ATOM     29  C   UNL     1       9.882   5.536   8.321  0.00  0.00    +0.064 C 
ENDBRANCH  27  29
ENDBRANCH  25  27
ENDBRANCH   6  25
ENDBRANCH  19  22
ENDBRANCH  13  19
TORSDOF 9
ENDMDL
MODEL 10
REMARK VINA RESULT:      -5.3      3.269      5.562
REMARK  Name = 45784407
REMARK  14 active torsions:
REMARK  status: ('A' for Active; 'I' for Inactive)
REMARK    1  A    between atoms: O_1  and  C_11
REMARK    2  A    between atoms: O_4  and  C_24
REMARK    3  A    between atoms: O_4  and  C_28
REMARK    4  A    between atoms: N_5  and  C_15
REMARK    5  A    between atoms: N_6  and  C_25
REMARK    6  A    between atoms: N_6  and  C_26
REMARK    7  A    between atoms: C_8  and  C_18
REMARK    8  A    between atoms: C_10  and  C_20
REMARK    9  A    between atoms: C_13  and  C_19
REMARK   10  A    between atoms: C_19  and  C_21
REMARK   11  A    between atoms: C_19  and  C_22
REMARK   12  A    between atoms: C_23  and  C_24
REMARK   13  A    between atoms: C_25  and  C_27
REMARK   14  A    between atoms: C_27  and  C_29
REMARK                            x       y       z     vdW  Elec       q    Type
REMARK                         _______ _______ _______ _____ _____    ______ ____
ROOT
ATOM      8  C   UNL     1      -2.807 -10.777  12.631  0.00  0.00    -0.027 C 
ATOM      9  C   UNL     1      -4.266 -10.410  13.058  0.00  0.00    +0.028 C 
ATOM     10  C   UNL     1      -4.711 -11.248  14.310  0.00  0.00    +0.012 C 
ATOM     11  C   UNL     1      -5.238 -10.458  11.844  0.00  0.00    +0.122 C 
ATOM     12  C   UNL     1      -2.361  -9.857  11.470  0.00  0.00    +0.007 C 
ATOM     13  C   UNL     1      -4.736  -9.618  10.646  0.00  0.00    +0.029 C 
ATOM     14  C   UNL     1      -1.854 -10.525  13.823  0.00  0.00    +0.009 C 
ATOM     15  C   UNL     1      -3.704 -11.045  15.478  0.00  0.00    +0.076 C 
ATOM     16  C   UNL     1      -3.289  -9.931  10.264  0.00  0.00    +0.007 C 
ATOM     17  C   UNL     1      -2.250 -11.292  15.077  0.00  0.00    +0.023 C 
ATOM     18  C   UNL     1      -2.674 -12.252  12.176  0.00  0.00    +0.011 C 
ATOM     20  C   UNL     1      -6.129 -10.916  14.803  0.00  0.00    +0.010 C 
ENDROOT
BRANCH  15   5
ATOM      3  O   UNL     1      -4.886 -10.237  17.991  0.00  0.00    -0.273 OA
ATOM      5  N   UNL     1      -4.018 -11.892  16.609  0.00  0.00    -0.310 N 
ATOM     23  C   UNL     1      -4.585 -11.408  17.775  0.00  0.00    +0.239 C 
ATOM     30  H   UNL     1      -3.749 -12.871  16.561  0.00  0.00    +0.149 HD
BRANCH  23  24
ATOM     24  C   UNL     1      -4.806 -12.510  18.788  0.00  0.00    +0.255 C 
BRANCH  24   4
ATOM      4  O   UNL     1      -6.031 -12.329  19.465  0.00  0.00    -0.374 OA
ATOM     28  C   UNL     1      -7.140 -12.772  18.687  0.00  0.00    +0.194 C 
ENDBRANCH  24   4
ENDBRANCH  23  24
ENDBRANCH  15   5
BRANCH  11   1
ATOM      1  O   UNL     1      -6.503  -9.913  12.222  0.00  0.00    -0.391 OA
ATOM     31  H   UNL     1      -6.341  -9.116  12.756  0.00  0.00    +0.210 HD
ENDBRANCH  11   1
BRANCH  13  19
ATOM     19  C   UNL     1      -5.637  -9.782   9.418  0.00  0.00    +0.078 C 
ATOM     21  C   UNL     1      -4.788 -10.195   8.214  0.00  0.00    +0.017 C 
BRANCH  19  22
ATOM      2  O   UNL     1      -5.819  -7.395   9.365  0.00  0.00    -0.275 OA
ATOM      6  N   UNL     1      -7.692  -8.556   8.661  0.00  0.00    -0.303 N 
ATOM     22  C   UNL     1      -6.381  -8.473   9.142  0.00  0.00    +0.219 C 
ATOM     26  C   UNL     1      -8.437  -7.327   8.409  0.00  0.00    +0.132 C 
BRANCH   6  25
ATOM     25  C   UNL     1      -8.415  -9.785   8.338  0.00  0.00    +0.122 C 
BRANCH  25  27
ATOM     27  C   UNL     1      -9.552  -9.548   7.351  0.00  0.00    +0.137 C 
BRANCH  27  29
ATOM      7  N   UNL     1      -9.339 -11.079   5.223  0.00  0.00    -0.197 NA
ATOM     29  C   UNL     1      -9.433 -10.404   6.163  0.00  0.00    +0.064 C 
ENDBRANCH  27  29
ENDBRANCH  25  27
ENDBRANCH   6  25
ENDBRANCH  19  22
ENDBRANCH  13  19
TORSDOF 9
ENDMDL
