REMARK  Name = 45784174
REMARK  3 active torsions:
REMARK  status: ('A' for Active; 'I' for Inactive)
REMARK    1  A    between atoms: N_4  and  C_10
REMARK    2  A    between atoms: C_6  and  C_11
REMARK    3  A    between atoms: C_10  and  C_12
REMARK                            x       y       z     vdW  Elec       q    Type
REMARK                         _______ _______ _______ _____ _____    ______ ____
ROOT
ATOM      4  N   UNL     1      -1.837  -0.147  -0.021  0.00  0.00    -0.297 NA
ATOM      6  C   UNL     1       0.342  -0.736   0.615  0.00  0.00    +0.090 C 
ATOM      7  C   UNL     1      -0.320   0.079   1.740  0.00  0.00    +0.029 C 
ATOM      8  C   UNL     1      -0.543  -0.491  -0.614  0.00  0.00    +0.097 C 
ATOM      9  C   UNL     1      -1.516   0.756   1.085  0.00  0.00    +0.085 C 
ENDROOT
BRANCH   6  11
ATOM      1 CL   UNL     1       7.421   1.623  -0.789  0.00  0.00    -0.083 Cl
ATOM      3  O   UNL     1       2.672  -1.444   0.521  0.00  0.00    -0.439 OA
ATOM      5  N   UNL     1       2.330   0.740   0.021  0.00  0.00    -0.213 NA
ATOM     11  C   UNL     1       1.797  -0.411   0.367  0.00  0.00    +0.201 A 
ATOM     13  C   UNL     1       3.672   0.454  -0.064  0.00  0.00    +0.111 A 
ATOM     14  C   UNL     1       3.884  -0.882   0.241  0.00  0.00    +0.155 A 
ATOM     17  C   UNL     1       4.773   1.258  -0.390  0.00  0.00    +0.051 A 
ATOM     18  C   UNL     1       5.127  -1.504   0.251  0.00  0.00    +0.050 A 
ATOM     21  C   UNL     1       6.044   0.666  -0.392  0.00  0.00    +0.043 A 
ATOM     22  C   UNL     1       6.215  -0.688  -0.077  0.00  0.00    +0.024 A 
ENDBRANCH   6  11
BRANCH   4  10
ATOM     10  C   UNL     1      -2.747   0.457  -0.983  0.00  0.00    +0.122 C 
BRANCH  10  12
ATOM      2  F   UNL     1      -4.317  -1.899  -1.060  0.00  0.00    -0.205 F 
ATOM     12  C   UNL     1      -4.176   0.406  -0.512  0.00  0.00    +0.002 A 
ATOM     15  C   UNL     1      -4.892  -0.789  -0.579  0.00  0.00    +0.128 A 
ATOM     16  C   UNL     1      -4.783   1.557  -0.009  0.00  0.00    +0.008 A 
ATOM     19  C   UNL     1      -6.216  -0.833  -0.141  0.00  0.00    +0.038 A 
ATOM     20  C   UNL     1      -6.107   1.512   0.428  0.00  0.00    +0.000 A 
ATOM     23  C   UNL     1      -6.824   0.318   0.362  0.00  0.00    +0.003 A 
ENDBRANCH  10  12
ENDBRANCH   4  10
TORSDOF 3
