REMARK  Name = 51137763
REMARK  3 active torsions:
REMARK  status: ('A' for Active; 'I' for Inactive)
REMARK    1  A    between atoms: C_7  and  C_11
REMARK    2  A    between atoms: C_12  and  C_13
REMARK    3  A    between atoms: C_14  and  C_17
REMARK                            x       y       z     vdW  Elec       q    Type
REMARK                         _______ _______ _______ _____ _____    ______ ____
ROOT
ATOM      3  O   UNL     1       2.823  -0.041   2.462  0.00  0.00    -0.270 OA
ATOM      4  N   UNL     1       1.983   1.328   0.784  0.00  0.00    -0.297 N 
ATOM      7  C   UNL     1       0.576   2.688  -0.569  0.00  0.00    +0.095 C 
ATOM      8  C   UNL     1       0.847   3.395   0.767  0.00  0.00    +0.033 C 
ATOM      9  C   UNL     1       1.708   1.653  -0.616  0.00  0.00    +0.121 C 
ATOM     10  C   UNL     1       1.342   2.280   1.678  0.00  0.00    +0.109 C 
ATOM     12  C   UNL     1       2.679   0.233   1.272  0.00  0.00    +0.247 C 
ENDROOT
BRANCH  12  13
ATOM     13  C   UNL     1       3.280  -0.683   0.290  0.00  0.00    +0.037 A 
ATOM     15  C   UNL     1       4.232  -0.211  -0.614  0.00  0.00    +0.013 A 
ATOM     16  C   UNL     1       2.898  -2.025   0.263  0.00  0.00    +0.013 A 
ATOM     18  C   UNL     1       4.802  -1.080  -1.544  0.00  0.00    +0.001 A 
ATOM     19  C   UNL     1       3.468  -2.894  -0.667  0.00  0.00    +0.001 A 
ATOM     22  C   UNL     1       4.420  -2.422  -1.570  0.00  0.00    +0.000 A 
ENDBRANCH  12  13
BRANCH   7  11
ATOM      2  O   UNL     1      -1.037   0.874  -0.197  0.00  0.00    -0.420 OA
ATOM      5  N   UNL     1      -1.938   2.726  -1.070  0.00  0.00    -0.112 NA
ATOM      6  N   UNL     1      -2.946   1.794  -0.913  0.00  0.00    -0.107 NA
ATOM     11  C   UNL     1      -0.842   2.146  -0.639  0.00  0.00    +0.222 A 
ATOM     14  C   UNL     1      -2.375   0.729  -0.401  0.00  0.00    +0.251 A 
BRANCH  14  17
ATOM      1  F   UNL     1      -5.101   0.157  -0.712  0.00  0.00    -0.205 F 
ATOM     17  C   UNL     1      -2.932  -0.540  -0.030  0.00  0.00    +0.074 A 
ATOM     20  C   UNL     1      -4.295  -0.784  -0.200  0.00  0.00    +0.136 A 
ATOM     21  C   UNL     1      -2.107  -1.530   0.503  0.00  0.00    +0.016 A 
ATOM     23  C   UNL     1      -4.832  -2.019   0.163  0.00  0.00    +0.039 A 
ATOM     24  C   UNL     1      -2.645  -2.765   0.866  0.00  0.00    +0.001 A 
ATOM     25  C   UNL     1      -4.007  -3.009   0.696  0.00  0.00    +0.003 A 
ENDBRANCH  14  17
ENDBRANCH   7  11
TORSDOF 3
