MODEL 1
REMARK VINA RESULT:      -7.1      0.000      0.000
REMARK  Name = 11865832
REMARK  10 active torsions:
REMARK  status: ('A' for Active; 'I' for Inactive)
REMARK    1  A    between atoms: N_9  and  C_13
REMARK    2  A    between atoms: N_10  and  C_19
REMARK    3  A    between atoms: N_11  and  C_26
REMARK    4  A    between atoms: C_14  and  C_17
REMARK    5  A    between atoms: C_18  and  C_21
REMARK    6  A    between atoms: C_19  and  C_22
REMARK    7  A    between atoms: C_19  and  C_23
REMARK    8  A    between atoms: C_22  and  C_25
REMARK    9  A    between atoms: C_24  and  C_27
REMARK   10  A    between atoms: C_24  and  C_28
REMARK                            x       y       z     vdW  Elec       q    Type
REMARK                         _______ _______ _______ _____ _____    ______ ____
ROOT
ATOM      5  O   UNL     1      17.072  11.148  19.987  0.00  0.00    -0.271 OA
ATOM      8  N   UNL     1      15.320  10.916  21.480  0.00  0.00    -0.285 N 
ATOM     13  C   UNL     1      13.977  11.092  23.432  0.00  0.00    +0.105 C 
ATOM     14  C   UNL     1      14.385  10.142  22.303  0.00  0.00    +0.182 C 
ATOM     15  C   UNL     1      14.126  12.478  22.802  0.00  0.00    +0.043 C 
ATOM     16  C   UNL     1      15.319  12.321  21.870  0.00  0.00    +0.111 C 
ATOM     18  C   UNL     1      16.226  10.448  20.544  0.00  0.00    +0.240 C 
ENDROOT
BRANCH  13   9
ATOM      6  O   UNL     1      13.498  12.071  26.081  0.00  0.00    -0.252 OA
ATOM      9  N   UNL     1      14.846  10.947  24.576  0.00  0.00    -0.294 N 
ATOM     11  N   UNL     1      15.559  11.166  26.746  0.00  0.00    -0.267 N 
ATOM     20  C   UNL     1      14.536  11.458  25.842  0.00  0.00    +0.304 C 
ATOM     37  H   UNL     1      15.693  10.396  24.476  0.00  0.00    +0.151 HD
ATOM     39  H   UNL     1      16.357  10.649  26.387  0.00  0.00    +0.156 HD
BRANCH  11  26
ATOM      2  F   UNL     1      15.882  13.806  27.582  0.00  0.00    -0.203 F 
ATOM      3  F   UNL     1      15.821  12.487  32.125  0.00  0.00    -0.205 F 
ATOM     26  C   UNL     1      15.628  11.506  28.118  0.00  0.00    +0.070 A 
ATOM     30  C   UNL     1      15.789  12.837  28.504  0.00  0.00    +0.147 A 
ATOM     31  C   UNL     1      15.533  10.506  29.087  0.00  0.00    +0.029 A 
ATOM     34  C   UNL     1      15.855  13.168  29.857  0.00  0.00    +0.078 A 
ATOM     35  C   UNL     1      15.599  10.837  30.440  0.00  0.00    +0.040 A 
ATOM     36  C   UNL     1      15.759  12.168  30.825  0.00  0.00    +0.126 A 
ENDBRANCH  11  26
ENDBRANCH  13   9
BRANCH  14  17
ATOM      4  O   UNL     1      12.480  10.686  20.968  0.00  0.00    -0.274 OA
ATOM     10  N   UNL     1      13.030   8.447  21.289  0.00  0.00    -0.302 N 
ATOM     17  C   UNL     1      13.200   9.812  21.443  0.00  0.00    +0.236 C 
ATOM     38  H   UNL     1      13.700   7.816  21.720  0.00  0.00    +0.150 HD
BRANCH  10  19
ATOM     19  C   UNL     1      11.948   7.867  20.526  0.00  0.00    +0.163 C 
BRANCH  19  23
ATOM      7  O   UNL     1      10.490   7.467  22.428  0.00  0.00    -0.274 OA
ATOM     12  N   UNL     1      11.148   5.674  21.152  0.00  0.00    -0.328 N 
ATOM     23  C   UNL     1      11.133   7.012  21.484  0.00  0.00    +0.231 C 
ATOM     40  H   UNL     1      10.633   4.996  21.703  0.00  0.00    +0.145 HD
ATOM     41  H   UNL     1      11.675   5.312  20.364  0.00  0.00    +0.145 HD
ENDBRANCH  19  23
BRANCH  19  22
ATOM     22  C   UNL     1      12.453   7.020  19.352  0.00  0.00    +0.074 C 
BRANCH  22  25
ATOM      1  S   UNL     1      14.134   7.781  17.265  0.00  0.00    -0.102 S 
ATOM     25  C   UNL     1      12.636   7.835  18.093  0.00  0.00    -0.008 A 
ATOM     29  C   UNL     1      11.730   8.665  17.470  0.00  0.00    +0.011 A 
ATOM     32  C   UNL     1      12.273   9.265  16.297  0.00  0.00    +0.008 A 
ATOM     33  C   UNL     1      13.573   8.870  16.068  0.00  0.00    +0.045 A 
ENDBRANCH  22  25
ENDBRANCH  19  22
ENDBRANCH  10  19
ENDBRANCH  14  17
BRANCH  18  21
ATOM     21  C   UNL     1      16.162   9.014  20.201  0.00  0.00    +0.066 C 
ATOM     24  C   UNL     1      16.978   8.069  20.697  0.00  0.00    -0.071 C 
ATOM     27  C   UNL     1      16.944   6.601  20.372  0.00  0.00    +0.039 C 
ATOM     28  C   UNL     1      18.055   8.452  21.680  0.00  0.00    +0.039 C 
ENDBRANCH  18  21
TORSDOF 8
ENDMDL
MODEL 2
REMARK VINA RESULT:      -6.9     28.384     31.147
REMARK  Name = 11865832
REMARK  10 active torsions:
REMARK  status: ('A' for Active; 'I' for Inactive)
REMARK    1  A    between atoms: N_9  and  C_13
REMARK    2  A    between atoms: N_10  and  C_19
REMARK    3  A    between atoms: N_11  and  C_26
REMARK    4  A    between atoms: C_14  and  C_17
REMARK    5  A    between atoms: C_18  and  C_21
REMARK    6  A    between atoms: C_19  and  C_22
REMARK    7  A    between atoms: C_19  and  C_23
REMARK    8  A    between atoms: C_22  and  C_25
REMARK    9  A    between atoms: C_24  and  C_27
REMARK   10  A    between atoms: C_24  and  C_28
REMARK                            x       y       z     vdW  Elec       q    Type
REMARK                         _______ _______ _______ _____ _____    ______ ____
ROOT
ATOM      5  O   UNL     1      16.658  -8.790  -5.799  0.00  0.00    -0.271 OA
ATOM      8  N   UNL     1      17.726  -8.752  -3.746  0.00  0.00    -0.285 N 
ATOM     13  C   UNL     1      18.602  -9.427  -1.644  0.00  0.00    +0.105 C 
ATOM     14  C   UNL     1      17.938  -8.261  -2.381  0.00  0.00    +0.182 C 
ATOM     15  C   UNL     1      19.337 -10.178  -2.755  0.00  0.00    +0.043 C 
ATOM     16  C   UNL     1      18.425 -10.013  -3.962  0.00  0.00    +0.111 C 
ATOM     18  C   UNL     1      16.881  -8.244  -4.718  0.00  0.00    +0.240 C 
ENDROOT
BRANCH  13   9
ATOM      6  O   UNL     1      18.731 -10.516   1.003  0.00  0.00    -0.252 OA
ATOM      9  N   UNL     1      17.618 -10.272  -1.010  0.00  0.00    -0.294 N 
ATOM     11  N   UNL     1      16.656 -11.551   0.635  0.00  0.00    -0.267 N 
ATOM     20  C   UNL     1      17.759 -10.765   0.293  0.00  0.00    +0.304 C 
ATOM     37  H   UNL     1      16.755 -10.469  -1.507  0.00  0.00    +0.151 HD
ATOM     39  H   UNL     1      15.933 -11.661  -0.071  0.00  0.00    +0.156 HD
BRANCH  11  26
ATOM      2  F   UNL     1      15.950 -10.170   2.951  0.00  0.00    -0.203 F 
ATOM      3  F   UNL     1      15.715 -14.202   5.412  0.00  0.00    -0.205 F 
ATOM     26  C   UNL     1      16.416 -12.226   1.856  0.00  0.00    +0.070 A 
ATOM     30  C   UNL     1      16.064 -11.505   2.997  0.00  0.00    +0.147 A 
ATOM     31  C   UNL     1      16.533 -13.614   1.917  0.00  0.00    +0.029 A 
ATOM     34  C   UNL     1      15.827 -12.172   4.199  0.00  0.00    +0.078 A 
ATOM     35  C   UNL     1      16.297 -14.282   3.118  0.00  0.00    +0.040 A 
ATOM     36  C   UNL     1      15.944 -13.561   4.259  0.00  0.00    +0.126 A 
ENDBRANCH  11  26
ENDBRANCH  13   9
BRANCH  14  17
ATOM      4  O   UNL     1      19.754  -7.028  -3.323  0.00  0.00    -0.274 OA
ATOM     10  N   UNL     1      18.635  -6.155  -1.477  0.00  0.00    -0.302 N 
ATOM     17  C   UNL     1      18.875  -7.093  -2.467  0.00  0.00    +0.236 C 
ATOM     38  H   UNL     1      17.868  -6.309  -0.829  0.00  0.00    +0.150 HD
BRANCH  10  19
ATOM     19  C   UNL     1      19.415  -4.948  -1.327  0.00  0.00    +0.163 C 
BRANCH  19  23
ATOM      7  O   UNL     1      21.187  -4.875   0.336  0.00  0.00    -0.274 OA
ATOM     12  N   UNL     1      19.010  -5.019   1.055  0.00  0.00    -0.328 N 
ATOM     23  C   UNL     1      19.987  -4.958   0.083  0.00  0.00    +0.231 C 
ATOM     40  H   UNL     1      19.255  -5.018   2.039  0.00  0.00    +0.145 HD
ATOM     41  H   UNL     1      18.021  -5.077   0.835  0.00  0.00    +0.145 HD
ENDBRANCH  19  23
BRANCH  19  22
ATOM     22  C   UNL     1      18.580  -3.683  -1.555  0.00  0.00    +0.074 C 
BRANCH  22  25
ATOM      1  S   UNL     1      19.493  -3.535  -4.183  0.00  0.00    -0.102 S 
ATOM     25  C   UNL     1      18.244  -3.473  -3.014  0.00  0.00    -0.008 A 
ATOM     29  C   UNL     1      17.015  -3.222  -3.583  0.00  0.00    +0.011 A 
ATOM     32  C   UNL     1      17.101  -3.080  -4.998  0.00  0.00    +0.008 A 
ATOM     33  C   UNL     1      18.391  -3.228  -5.456  0.00  0.00    +0.045 A 
ENDBRANCH  22  25
ENDBRANCH  19  22
ENDBRANCH  10  19
ENDBRANCH  14  17
BRANCH  18  21
ATOM     21  C   UNL     1      16.211  -6.961  -4.426  0.00  0.00    +0.066 C 
ATOM     24  C   UNL     1      15.016  -6.840  -3.824  0.00  0.00    -0.071 C 
ATOM     27  C   UNL     1      14.303  -5.553  -3.509  0.00  0.00    +0.039 C 
ATOM     28  C   UNL     1      14.264  -8.075  -3.397  0.00  0.00    +0.039 C 
ENDBRANCH  18  21
TORSDOF 8
ENDMDL
MODEL 3
REMARK VINA RESULT:      -6.9     17.009     20.109
REMARK  Name = 11865832
REMARK  10 active torsions:
REMARK  status: ('A' for Active; 'I' for Inactive)
REMARK    1  A    between atoms: N_9  and  C_13
REMARK    2  A    between atoms: N_10  and  C_19
REMARK    3  A    between atoms: N_11  and  C_26
REMARK    4  A    between atoms: C_14  and  C_17
REMARK    5  A    between atoms: C_18  and  C_21
REMARK    6  A    between atoms: C_19  and  C_22
REMARK    7  A    between atoms: C_19  and  C_23
REMARK    8  A    between atoms: C_22  and  C_25
REMARK    9  A    between atoms: C_24  and  C_27
REMARK   10  A    between atoms: C_24  and  C_28
REMARK                            x       y       z     vdW  Elec       q    Type
REMARK                         _______ _______ _______ _____ _____    ______ ____
ROOT
ATOM      5  O   UNL     1      13.482   6.040  -0.024  0.00  0.00    -0.271 OA
ATOM      8  N   UNL     1      14.167   7.031   1.952  0.00  0.00    -0.285 N 
ATOM     13  C   UNL     1      15.496   8.137   3.581  0.00  0.00    +0.105 C 
ATOM     14  C   UNL     1      14.440   7.044   3.392  0.00  0.00    +0.182 C 
ATOM     15  C   UNL     1      15.225   9.098   2.423  0.00  0.00    +0.043 C 
ATOM     16  C   UNL     1      14.778   8.180   1.294  0.00  0.00    +0.111 C 
ATOM     18  C   UNL     1      13.557   6.038   1.205  0.00  0.00    +0.240 C 
ENDROOT
BRANCH  13   9
ATOM      6  O   UNL     1      17.909   9.379   4.498  0.00  0.00    -0.252 OA
ATOM      9  N   UNL     1      16.831   7.593   3.501  0.00  0.00    -0.294 N 
ATOM     11  N   UNL     1      19.109   7.500   3.763  0.00  0.00    -0.267 N 
ATOM     20  C   UNL     1      17.962   8.269   3.975  0.00  0.00    +0.304 C 
ATOM     37  H   UNL     1      16.950   6.650   3.142  0.00  0.00    +0.151 HD
ATOM     39  H   UNL     1      18.981   6.598   3.313  0.00  0.00    +0.156 HD
BRANCH  11  26
ATOM      2  F   UNL     1      19.920   7.785   6.414  0.00  0.00    -0.203 F 
ATOM      3  F   UNL     1      24.346   8.769   5.066  0.00  0.00    -0.205 F 
ATOM     26  C   UNL     1      20.445   7.825   4.098  0.00  0.00    +0.070 A 
ATOM     30  C   UNL     1      20.819   7.960   5.435  0.00  0.00    +0.147 A 
ATOM     31  C   UNL     1      21.389   8.011   3.088  0.00  0.00    +0.029 A 
ATOM     34  C   UNL     1      22.137   8.279   5.763  0.00  0.00    +0.078 A 
ATOM     35  C   UNL     1      22.706   8.331   3.415  0.00  0.00    +0.040 A 
ATOM     36  C   UNL     1      23.080   8.464   4.752  0.00  0.00    +0.126 A 
ENDBRANCH  11  26
ENDBRANCH  13   9
BRANCH  14  17
ATOM      4  O   UNL     1      12.442   8.324   3.666  0.00  0.00    -0.274 OA
ATOM     10  N   UNL     1      12.941   6.665   5.222  0.00  0.00    -0.302 N 
ATOM     17  C   UNL     1      13.164   7.423   4.085  0.00  0.00    +0.236 C 
ATOM     38  H   UNL     1      13.604   5.935   5.464  0.00  0.00    +0.150 HD
BRANCH  10  19
ATOM     19  C   UNL     1      11.793   6.849   6.080  0.00  0.00    +0.163 C 
BRANCH  19  23
ATOM      7  O   UNL     1      11.273   5.784   8.202  0.00  0.00    -0.274 OA
ATOM     12  N   UNL     1      13.478   6.052   7.619  0.00  0.00    -0.328 N 
ATOM     23  C   UNL     1      12.122   6.191   7.412  0.00  0.00    +0.231 C 
ATOM     40  H   UNL     1      13.833   5.615   8.463  0.00  0.00    +0.145 HD
ATOM     41  H   UNL     1      14.170   6.383   6.954  0.00  0.00    +0.145 HD
ENDBRANCH  19  23
BRANCH  19  22
ATOM     22  C   UNL     1      10.518   6.240   5.484  0.00  0.00    +0.074 C 
BRANCH  22  25
ATOM      1  S   UNL     1       9.378   8.707   6.098  0.00  0.00    -0.102 S 
ATOM     25  C   UNL     1       9.486   7.291   5.142  0.00  0.00    -0.008 A 
ATOM     29  C   UNL     1       8.564   7.285   4.120  0.00  0.00    +0.011 A 
ATOM     32  C   UNL     1       7.757   8.459   4.121  0.00  0.00    +0.008 A 
ATOM     33  C   UNL     1       8.094   9.318   5.145  0.00  0.00    +0.045 A 
ENDBRANCH  22  25
ENDBRANCH  19  22
ENDBRANCH  10  19
ENDBRANCH  14  17
BRANCH  18  21
ATOM     21  C   UNL     1      12.960   4.908   1.944  0.00  0.00    +0.066 C 
ATOM     24  C   UNL     1      11.645   4.751   2.173  0.00  0.00    -0.071 C 
ATOM     27  C   UNL     1      11.000   3.616   2.920  0.00  0.00    +0.039 C 
ATOM     28  C   UNL     1      10.668   5.777   1.657  0.00  0.00    +0.039 C 
ENDBRANCH  18  21
TORSDOF 8
ENDMDL
MODEL 4
REMARK VINA RESULT:      -6.8      5.152      7.537
REMARK  Name = 11865832
REMARK  10 active torsions:
REMARK  status: ('A' for Active; 'I' for Inactive)
REMARK    1  A    between atoms: N_9  and  C_13
REMARK    2  A    between atoms: N_10  and  C_19
REMARK    3  A    between atoms: N_11  and  C_26
REMARK    4  A    between atoms: C_14  and  C_17
REMARK    5  A    between atoms: C_18  and  C_21
REMARK    6  A    between atoms: C_19  and  C_22
REMARK    7  A    between atoms: C_19  and  C_23
REMARK    8  A    between atoms: C_22  and  C_25
REMARK    9  A    between atoms: C_24  and  C_27
REMARK   10  A    between atoms: C_24  and  C_28
REMARK                            x       y       z     vdW  Elec       q    Type
REMARK                         _______ _______ _______ _____ _____    ______ ____
ROOT
ATOM      5  O   UNL     1      14.513  11.242  21.496  0.00  0.00    -0.271 OA
ATOM      8  N   UNL     1      15.081   9.097  20.837  0.00  0.00    -0.285 N 
ATOM     13  C   UNL     1      15.984   6.900  20.835  0.00  0.00    +0.105 C 
ATOM     14  C   UNL     1      15.709   8.116  19.946  0.00  0.00    +0.182 C 
ATOM     15  C   UNL     1      14.901   6.993  21.911  0.00  0.00    +0.043 C 
ATOM     16  C   UNL     1      14.728   8.491  22.115  0.00  0.00    +0.111 C 
ATOM     18  C   UNL     1      14.934  10.460  20.643  0.00  0.00    +0.240 C 
ENDROOT
BRANCH  13   9
ATOM      6  O   UNL     1      18.402   5.824  19.738  0.00  0.00    -0.252 OA
ATOM      9  N   UNL     1      17.302   6.967  21.420  0.00  0.00    -0.294 N 
ATOM     11  N   UNL     1      19.565   6.632  21.610  0.00  0.00    -0.267 N 
ATOM     20  C   UNL     1      18.437   6.412  20.816  0.00  0.00    +0.304 C 
ATOM     37  H   UNL     1      17.426   7.495  22.279  0.00  0.00    +0.151 HD
ATOM     39  H   UNL     1      19.423   7.138  22.480  0.00  0.00    +0.156 HD
BRANCH  11  26
ATOM      2  F   UNL     1      21.415   8.372  20.462  0.00  0.00    -0.203 F 
ATOM      3  F   UNL     1      24.785   5.056  20.613  0.00  0.00    -0.205 F 
ATOM     26  C   UNL     1      20.897   6.232  21.353  0.00  0.00    +0.070 A 
ATOM     30  C   UNL     1      21.799   7.127  20.778  0.00  0.00    +0.147 A 
ATOM     31  C   UNL     1      21.309   4.939  21.677  0.00  0.00    +0.029 A 
ATOM     34  C   UNL     1      23.113   6.730  20.528  0.00  0.00    +0.078 A 
ATOM     35  C   UNL     1      22.622   4.541  21.426  0.00  0.00    +0.040 A 
ATOM     36  C   UNL     1      23.524   5.437  20.852  0.00  0.00    +0.126 A 
ENDBRANCH  11  26
ENDBRANCH  13   9
BRANCH  14  17
ATOM      4  O   UNL     1      14.992   7.039  17.939  0.00  0.00    -0.274 OA
ATOM     10  N   UNL     1      13.487   8.388  19.095  0.00  0.00    -0.302 N 
ATOM     17  C   UNL     1      14.708   7.772  18.883  0.00  0.00    +0.236 C 
ATOM     38  H   UNL     1      13.364   8.965  19.922  0.00  0.00    +0.150 HD
BRANCH  10  19
ATOM     19  C   UNL     1      12.361   8.237  18.201  0.00  0.00    +0.163 C 
BRANCH  19  23
ATOM      7  O   UNL     1      12.834   8.453  15.827  0.00  0.00    -0.274 OA
ATOM     12  N   UNL     1      12.793  10.354  17.116  0.00  0.00    -0.328 N 
ATOM     23  C   UNL     1      12.701   8.991  16.924  0.00  0.00    +0.231 C 
ATOM     40  H   UNL     1      13.001  10.975  16.342  0.00  0.00    +0.145 HD
ATOM     41  H   UNL     1      12.671  10.788  18.025  0.00  0.00    +0.145 HD
ENDBRANCH  19  23
BRANCH  19  22
ATOM     22  C   UNL     1      11.060   8.775  18.808  0.00  0.00    +0.074 C 
BRANCH  22  25
ATOM      1  S   UNL     1      10.917   7.389  21.221  0.00  0.00    -0.102 S 
ATOM     25  C   UNL     1      11.112   8.831  20.318  0.00  0.00    -0.008 A 
ATOM     29  C   UNL     1      11.302   9.928  21.129  0.00  0.00    +0.011 A 
ATOM     32  C   UNL     1      11.287   9.580  22.510  0.00  0.00    +0.008 A 
ATOM     33  C   UNL     1      11.087   8.231  22.702  0.00  0.00    +0.045 A 
ENDBRANCH  22  25
ENDBRANCH  19  22
ENDBRANCH  10  19
ENDBRANCH  14  17
BRANCH  18  21
ATOM     21  C   UNL     1      15.311  10.997  19.320  0.00  0.00    +0.066 C 
ATOM     24  C   UNL     1      16.345  11.825  19.095  0.00  0.00    -0.071 C 
ATOM     27  C   UNL     1      16.760  12.392  17.765  0.00  0.00    +0.039 C 
ATOM     28  C   UNL     1      17.214  12.266  20.245  0.00  0.00    +0.039 C 
ENDBRANCH  18  21
TORSDOF 8
ENDMDL
MODEL 5
REMARK VINA RESULT:      -6.6     28.674     31.415
REMARK  Name = 11865832
REMARK  10 active torsions:
REMARK  status: ('A' for Active; 'I' for Inactive)
REMARK    1  A    between atoms: N_9  and  C_13
REMARK    2  A    between atoms: N_10  and  C_19
REMARK    3  A    between atoms: N_11  and  C_26
REMARK    4  A    between atoms: C_14  and  C_17
REMARK    5  A    between atoms: C_18  and  C_21
REMARK    6  A    between atoms: C_19  and  C_22
REMARK    7  A    between atoms: C_19  and  C_23
REMARK    8  A    between atoms: C_22  and  C_25
REMARK    9  A    between atoms: C_24  and  C_27
REMARK   10  A    between atoms: C_24  and  C_28
REMARK                            x       y       z     vdW  Elec       q    Type
REMARK                         _______ _______ _______ _____ _____    ______ ____
ROOT
ATOM      5  O   UNL     1      15.858  -7.350  -5.460  0.00  0.00    -0.271 OA
ATOM      8  N   UNL     1      17.262  -8.089  -3.775  0.00  0.00    -0.285 N 
ATOM     13  C   UNL     1      18.358  -9.492  -2.202  0.00  0.00    +0.105 C 
ATOM     14  C   UNL     1      17.799  -8.082  -2.411  0.00  0.00    +0.182 C 
ATOM     15  C   UNL     1      18.735  -9.938  -3.616  0.00  0.00    +0.043 C 
ATOM     16  C   UNL     1      17.669  -9.293  -4.490  0.00  0.00    +0.111 C 
ATOM     18  C   UNL     1      16.366  -7.203  -4.348  0.00  0.00    +0.240 C 
ENDROOT
BRANCH  13   9
ATOM      6  O   UNL     1      18.577 -10.957   0.249  0.00  0.00    -0.252 OA
ATOM      9  N   UNL     1      17.365 -10.369  -1.630  0.00  0.00    -0.294 N 
ATOM     11  N   UNL     1      16.426 -11.822  -0.122  0.00  0.00    -0.267 N 
ATOM     20  C   UNL     1      17.552 -11.051  -0.422  0.00  0.00    +0.304 C 
ATOM     37  H   UNL     1      16.464 -10.448  -2.091  0.00  0.00    +0.151 HD
ATOM     39  H   UNL     1      15.657 -11.791  -0.786  0.00  0.00    +0.156 HD
BRANCH  11  26
ATOM      2  F   UNL     1      17.585 -14.351   0.060  0.00  0.00    -0.203 F 
ATOM      3  F   UNL     1      15.612 -15.067   4.299  0.00  0.00    -0.205 F 
ATOM     26  C   UNL     1      16.219 -12.653   1.005  0.00  0.00    +0.070 A 
ATOM     30  C   UNL     1      16.814 -13.913   1.065  0.00  0.00    +0.147 A 
ATOM     31  C   UNL     1      15.418 -12.209   2.057  0.00  0.00    +0.029 A 
ATOM     34  C   UNL     1      16.609 -14.729   2.178  0.00  0.00    +0.078 A 
ATOM     35  C   UNL     1      15.212 -13.025   3.169  0.00  0.00    +0.040 A 
ATOM     36  C   UNL     1      15.808 -14.284   3.230  0.00  0.00    +0.126 A 
ENDBRANCH  11  26
ENDBRANCH  13   9
BRANCH  14  17
ATOM      4  O   UNL     1      19.697  -6.937  -3.299  0.00  0.00    -0.274 OA
ATOM     10  N   UNL     1      18.916  -6.354  -1.185  0.00  0.00    -0.302 N 
ATOM     17  C   UNL     1      18.904  -7.068  -2.370  0.00  0.00    +0.236 C 
ATOM     38  H   UNL     1      18.198  -6.540  -0.491  0.00  0.00    +0.150 HD
BRANCH  10  19
ATOM     19  C   UNL     1      19.895  -5.333  -0.888  0.00  0.00    +0.163 C 
BRANCH  19  23
ATOM      7  O   UNL     1      20.135  -4.837   1.479  0.00  0.00    -0.274 OA
ATOM     12  N   UNL     1      21.086  -6.760   0.658  0.00  0.00    -0.328 N 
ATOM     23  C   UNL     1      20.381  -5.581   0.533  0.00  0.00    +0.231 C 
ATOM     40  H   UNL     1      21.455  -7.051   1.557  0.00  0.00    +0.145 HD
ATOM     41  H   UNL     1      21.275  -7.372  -0.129  0.00  0.00    +0.145 HD
ENDBRANCH  19  23
BRANCH  19  22
ATOM     22  C   UNL     1      19.318  -3.918  -1.016  0.00  0.00    +0.074 C 
BRANCH  22  25
ATOM      1  S   UNL     1      21.527  -3.640  -2.689  0.00  0.00    -0.102 S 
ATOM     25  C   UNL     1      20.018  -3.107  -2.082  0.00  0.00    -0.008 A 
ATOM     29  C   UNL     1      19.606  -1.935  -2.675  0.00  0.00    +0.011 A 
ATOM     32  C   UNL     1      20.542  -1.468  -3.643  0.00  0.00    +0.008 A 
ATOM     33  C   UNL     1      21.633  -2.301  -3.751  0.00  0.00    +0.045 A 
ENDBRANCH  22  25
ENDBRANCH  19  22
ENDBRANCH  10  19
ENDBRANCH  14  17
BRANCH  18  21
ATOM     21  C   UNL     1      16.005  -6.006  -3.561  0.00  0.00    +0.066 C 
ATOM     24  C   UNL     1      16.545  -4.788  -3.729  0.00  0.00    -0.071 C 
ATOM     27  C   UNL     1      16.204  -3.547  -2.951  0.00  0.00    +0.039 C 
ATOM     28  C   UNL     1      17.601  -4.576  -4.785  0.00  0.00    +0.039 C 
ENDBRANCH  18  21
TORSDOF 8
ENDMDL
MODEL 6
REMARK VINA RESULT:      -6.4     18.993     22.793
REMARK  Name = 11865832
REMARK  10 active torsions:
REMARK  status: ('A' for Active; 'I' for Inactive)
REMARK    1  A    between atoms: N_9  and  C_13
REMARK    2  A    between atoms: N_10  and  C_19
REMARK    3  A    between atoms: N_11  and  C_26
REMARK    4  A    between atoms: C_14  and  C_17
REMARK    5  A    between atoms: C_18  and  C_21
REMARK    6  A    between atoms: C_19  and  C_22
REMARK    7  A    between atoms: C_19  and  C_23
REMARK    8  A    between atoms: C_22  and  C_25
REMARK    9  A    between atoms: C_24  and  C_27
REMARK   10  A    between atoms: C_24  and  C_28
REMARK                            x       y       z     vdW  Elec       q    Type
REMARK                         _______ _______ _______ _____ _____    ______ ____
ROOT
ATOM      5  O   UNL     1       8.444   8.006   7.535  0.00  0.00    -0.271 OA
ATOM      8  N   UNL     1       8.346   8.518   5.281  0.00  0.00    -0.285 N 
ATOM     13  C   UNL     1       7.693   9.482   3.210  0.00  0.00    +0.105 C 
ATOM     14  C   UNL     1       8.186   8.187   3.861  0.00  0.00    +0.182 C 
ATOM     15  C   UNL     1       8.273  10.575   4.109  0.00  0.00    +0.043 C 
ATOM     16  C   UNL     1       8.233   9.955   5.498  0.00  0.00    +0.111 C 
ATOM     18  C   UNL     1       8.445   7.651   6.356  0.00  0.00    +0.240 C 
ENDROOT
BRANCH  13   9
ATOM      6  O   UNL     1       6.062  10.855   1.296  0.00  0.00    -0.252 OA
ATOM      9  N   UNL     1       6.251   9.540   3.189  0.00  0.00    -0.294 N 
ATOM     11  N   UNL     1       4.156  10.116   2.449  0.00  0.00    -0.267 N 
ATOM     20  C   UNL     1       5.527  10.237   2.214  0.00  0.00    +0.304 C 
ATOM     37  H   UNL     1       5.733   9.000   3.876  0.00  0.00    +0.151 HD
ATOM     39  H   UNL     1       3.875   9.567   3.258  0.00  0.00    +0.156 HD
BRANCH  11  26
ATOM      2  F   UNL     1       3.529   9.172  -0.098  0.00  0.00    -0.203 F 
ATOM      3  F   UNL     1      -0.009  12.286  -0.496  0.00  0.00    -0.205 F 
ATOM     26  C   UNL     1       3.094  10.669   1.695  0.00  0.00    +0.070 A 
ATOM     30  C   UNL     1       2.806  10.173   0.423  0.00  0.00    +0.147 A 
ATOM     31  C   UNL     1       2.334  11.711   2.226  0.00  0.00    +0.029 A 
ATOM     34  C   UNL     1       1.758  10.720  -0.318  0.00  0.00    +0.078 A 
ATOM     35  C   UNL     1       1.287  12.258   1.485  0.00  0.00    +0.040 A 
ATOM     36  C   UNL     1       0.998  11.762   0.214  0.00  0.00    +0.126 A 
ENDBRANCH  11  26
ENDBRANCH  13   9
BRANCH  14  17
ATOM      4  O   UNL     1      10.557   8.413   3.682  0.00  0.00    -0.274 OA
ATOM     10  N   UNL     1       9.482   6.777   2.423  0.00  0.00    -0.302 N 
ATOM     17  C   UNL     1       9.541   7.818   3.333  0.00  0.00    +0.236 C 
ATOM     38  H   UNL     1       8.582   6.350   2.221  0.00  0.00    +0.150 HD
BRANCH  10  19
ATOM     19  C   UNL     1      10.647   6.248   1.751  0.00  0.00    +0.163 C 
BRANCH  19  23
ATOM      7  O   UNL     1      10.304   6.529  -0.638  0.00  0.00    -0.274 OA
ATOM     12  N   UNL     1       9.727   4.525   0.326  0.00  0.00    -0.328 N 
ATOM     23  C   UNL     1      10.205   5.819   0.360  0.00  0.00    +0.231 C 
ATOM     40  H   UNL     1       9.412   4.111  -0.544  0.00  0.00    +0.145 HD
ATOM     41  H   UNL     1       9.660   3.945   1.156  0.00  0.00    +0.145 HD
ENDBRANCH  19  23
BRANCH  19  22
ATOM     22  C   UNL     1      11.265   5.063   2.504  0.00  0.00    +0.074 C 
BRANCH  22  25
ATOM      1  S   UNL     1      13.814   5.978   1.853  0.00  0.00    -0.102 S 
ATOM     25  C   UNL     1      12.653   4.729   2.009  0.00  0.00    -0.008 A 
ATOM     29  C   UNL     1      13.160   3.503   1.640  0.00  0.00    +0.011 A 
ATOM     32  C   UNL     1      14.520   3.590   1.224  0.00  0.00    +0.008 A 
ATOM     33  C   UNL     1      15.000   4.879   1.291  0.00  0.00    +0.045 A 
ENDBRANCH  22  25
ENDBRANCH  19  22
ENDBRANCH  10  19
ENDBRANCH  14  17
BRANCH  18  21
ATOM     21  C   UNL     1       8.559   6.211   6.053  0.00  0.00    +0.066 C 
ATOM     24  C   UNL     1       9.709   5.517   6.050  0.00  0.00    -0.071 C 
ATOM     27  C   UNL     1       9.866   4.052   5.749  0.00  0.00    +0.039 C 
ATOM     28  C   UNL     1      11.006   6.216   6.373  0.00  0.00    +0.039 C 
ENDBRANCH  18  21
TORSDOF 8
ENDMDL
MODEL 7
REMARK VINA RESULT:      -6.4      6.480     10.013
REMARK  Name = 11865832
REMARK  10 active torsions:
REMARK  status: ('A' for Active; 'I' for Inactive)
REMARK    1  A    between atoms: N_9  and  C_13
REMARK    2  A    between atoms: N_10  and  C_19
REMARK    3  A    between atoms: N_11  and  C_26
REMARK    4  A    between atoms: C_14  and  C_17
REMARK    5  A    between atoms: C_18  and  C_21
REMARK    6  A    between atoms: C_19  and  C_22
REMARK    7  A    between atoms: C_19  and  C_23
REMARK    8  A    between atoms: C_22  and  C_25
REMARK    9  A    between atoms: C_24  and  C_27
REMARK   10  A    between atoms: C_24  and  C_28
REMARK                            x       y       z     vdW  Elec       q    Type
REMARK                         _______ _______ _______ _____ _____    ______ ____
ROOT
ATOM      5  O   UNL     1      20.975   9.501  25.939  0.00  0.00    -0.271 OA
ATOM      8  N   UNL     1      20.328   8.566  23.924  0.00  0.00    -0.285 N 
ATOM     13  C   UNL     1      19.120   8.113  21.928  0.00  0.00    +0.105 C 
ATOM     14  C   UNL     1      19.916   7.455  23.059  0.00  0.00    +0.182 C 
ATOM     15  C   UNL     1      19.722   9.516  21.840  0.00  0.00    +0.043 C 
ATOM     16  C   UNL     1      20.066   9.850  23.284  0.00  0.00    +0.111 C 
ATOM     18  C   UNL     1      20.773   8.512  25.233  0.00  0.00    +0.240 C 
ENDROOT
BRANCH  13   9
ATOM      6  O   UNL     1      16.950   8.242  20.063  0.00  0.00    -0.252 OA
ATOM      9  N   UNL     1      17.713   8.172  22.245  0.00  0.00    -0.294 N 
ATOM     11  N   UNL     1      15.451   8.282  21.870  0.00  0.00    -0.267 N 
ATOM     20  C   UNL     1      16.711   8.234  21.268  0.00  0.00    +0.304 C 
ATOM     37  H   UNL     1      17.431   8.103  23.218  0.00  0.00    +0.151 HD
ATOM     39  H   UNL     1      15.426   8.269  22.886  0.00  0.00    +0.156 HD
BRANCH  11  26
ATOM      2  F   UNL     1      14.442   6.139  20.400  0.00  0.00    -0.203 F 
ATOM      3  F   UNL     1      10.502   8.553  19.387  0.00  0.00    -0.205 F 
ATOM     26  C   UNL     1      14.189   8.349  21.234  0.00  0.00    +0.070 A 
ATOM     30  C   UNL     1      13.712   7.259  20.507  0.00  0.00    +0.147 A 
ATOM     31  C   UNL     1      13.420   9.509  21.336  0.00  0.00    +0.029 A 
ATOM     34  C   UNL     1      12.466   7.327  19.882  0.00  0.00    +0.078 A 
ATOM     35  C   UNL     1      12.176   9.578  20.712  0.00  0.00    +0.040 A 
ATOM     36  C   UNL     1      11.699   8.487  19.985  0.00  0.00    +0.126 A 
ENDBRANCH  11  26
ENDBRANCH  13   9
BRANCH  14  17
ATOM      4  O   UNL     1      22.004   7.466  21.902  0.00  0.00    -0.274 OA
ATOM     10  N   UNL     1      21.218   5.463  22.790  0.00  0.00    -0.302 N 
ATOM     17  C   UNL     1      21.163   6.820  22.521  0.00  0.00    +0.236 C 
ATOM     38  H   UNL     1      20.467   5.037  23.326  0.00  0.00    +0.150 HD
BRANCH  10  19
ATOM     19  C   UNL     1      22.307   4.616  22.359  0.00  0.00    +0.163 C 
BRANCH  19  23
ATOM      7  O   UNL     1      21.145   3.142  20.815  0.00  0.00    -0.274 OA
ATOM     12  N   UNL     1      22.530   4.762  19.957  0.00  0.00    -0.328 N 
ATOM     23  C   UNL     1      21.932   4.070  20.989  0.00  0.00    +0.231 C 
ATOM     40  H   UNL     1      22.353   4.508  18.991  0.00  0.00    +0.145 HD
ATOM     41  H   UNL     1      23.170   5.533  20.113  0.00  0.00    +0.145 HD
ENDBRANCH  19  23
BRANCH  19  22
ATOM     22  C   UNL     1      22.571   3.466  23.339  0.00  0.00    +0.074 C 
BRANCH  22  25
ATOM      1  S   UNL     1      25.273   3.528  22.662  0.00  0.00    -0.102 S 
ATOM     25  C   UNL     1      23.817   2.687  22.985  0.00  0.00    -0.008 A 
ATOM     29  C   UNL     1      23.972   1.322  22.874  0.00  0.00    +0.011 A 
ATOM     32  C   UNL     1      25.304   0.963  22.519  0.00  0.00    +0.008 A 
ATOM     33  C   UNL     1      26.116   2.066  22.373  0.00  0.00    +0.045 A 
ENDBRANCH  22  25
ENDBRANCH  19  22
ENDBRANCH  10  19
ENDBRANCH  14  17
BRANCH  18  21
ATOM     21  C   UNL     1      21.017   7.174  25.808  0.00  0.00    +0.066 C 
ATOM     24  C   UNL     1      22.228   6.607  25.941  0.00  0.00    -0.071 C 
ATOM     27  C   UNL     1      22.518   5.250  26.521  0.00  0.00    +0.039 C 
ATOM     28  C   UNL     1      23.457   7.351  25.485  0.00  0.00    +0.039 C 
ENDBRANCH  18  21
TORSDOF 8
ENDMDL
MODEL 8
REMARK VINA RESULT:      -6.3     28.512     31.656
REMARK  Name = 11865832
REMARK  10 active torsions:
REMARK  status: ('A' for Active; 'I' for Inactive)
REMARK    1  A    between atoms: N_9  and  C_13
REMARK    2  A    between atoms: N_10  and  C_19
REMARK    3  A    between atoms: N_11  and  C_26
REMARK    4  A    between atoms: C_14  and  C_17
REMARK    5  A    between atoms: C_18  and  C_21
REMARK    6  A    between atoms: C_19  and  C_22
REMARK    7  A    between atoms: C_19  and  C_23
REMARK    8  A    between atoms: C_22  and  C_25
REMARK    9  A    between atoms: C_24  and  C_27
REMARK   10  A    between atoms: C_24  and  C_28
REMARK                            x       y       z     vdW  Elec       q    Type
REMARK                         _______ _______ _______ _____ _____    ______ ____
ROOT
ATOM      5  O   UNL     1      -8.484 -14.436  18.406  0.00  0.00    -0.271 OA
ATOM      8  N   UNL     1      -7.256 -12.531  17.943  0.00  0.00    -0.285 N 
ATOM     13  C   UNL     1      -6.428 -10.305  18.013  0.00  0.00    +0.105 C 
ATOM     14  C   UNL     1      -6.763 -11.463  17.068  0.00  0.00    +0.182 C 
ATOM     15  C   UNL     1      -6.083 -11.007  19.328  0.00  0.00    +0.043 C 
ATOM     16  C   UNL     1      -7.015 -12.210  19.345  0.00  0.00    +0.111 C 
ATOM     18  C   UNL     1      -7.992 -13.650  17.596  0.00  0.00    +0.240 C 
ENDROOT
BRANCH  13   9
ATOM      6  O   UNL     1      -8.297  -9.517  15.990  0.00  0.00    -0.252 OA
ATOM      9  N   UNL     1      -7.558  -9.422  18.179  0.00  0.00    -0.294 N 
ATOM     11  N   UNL     1      -9.420  -8.217  17.590  0.00  0.00    -0.267 N 
ATOM     20  C   UNL     1      -8.426  -9.086  17.133  0.00  0.00    +0.304 C 
ATOM     37  H   UNL     1      -7.772  -9.076  19.110  0.00  0.00    +0.151 HD
ATOM     39  H   UNL     1      -9.386  -7.953  18.571  0.00  0.00    +0.156 HD
BRANCH  11  26
ATOM      2  F   UNL     1     -12.011  -9.234  17.741  0.00  0.00    -0.203 F 
ATOM      3  F   UNL     1     -13.580  -5.984  14.684  0.00  0.00    -0.205 F 
ATOM     26  C   UNL     1     -10.483  -7.650  16.848  0.00  0.00    +0.070 A 
ATOM     30  C   UNL     1     -11.769  -8.182  16.947  0.00  0.00    +0.147 A 
ATOM     31  C   UNL     1     -10.244  -6.555  16.017  0.00  0.00    +0.029 A 
ATOM     34  C   UNL     1     -12.816  -7.620  16.215  0.00  0.00    +0.078 A 
ATOM     35  C   UNL     1     -11.290  -5.993  15.286  0.00  0.00    +0.040 A 
ATOM     36  C   UNL     1     -12.575  -6.525  15.385  0.00  0.00    +0.126 A 
ENDBRANCH  11  26
ENDBRANCH  13   9
BRANCH  14  17
ATOM      4  O   UNL     1      -5.053 -13.078  16.654  0.00  0.00    -0.274 OA
ATOM     10  N   UNL     1      -4.985 -11.047  15.519  0.00  0.00    -0.302 N 
ATOM     17  C   UNL     1      -5.519 -11.970  16.401  0.00  0.00    +0.236 C 
ATOM     38  H   UNL     1      -5.467 -10.163  15.379  0.00  0.00    +0.150 HD
BRANCH  10  19
ATOM     19  C   UNL     1      -3.774 -11.283  14.765  0.00  0.00    +0.163 C 
BRANCH  19  23
ATOM      7  O   UNL     1      -2.418 -10.949  16.754  0.00  0.00    -0.274 OA
ATOM     12  N   UNL     1      -1.806  -9.881  14.815  0.00  0.00    -0.328 N 
ATOM     23  C   UNL     1      -2.625 -10.694  15.569  0.00  0.00    +0.231 C 
ATOM     40  H   UNL     1      -0.994  -9.435  15.227  0.00  0.00    +0.145 HD
ATOM     41  H   UNL     1      -1.982  -9.686  13.834  0.00  0.00    +0.145 HD
ENDBRANCH  19  23
BRANCH  19  22
ATOM     22  C   UNL     1      -3.826 -10.653  13.368  0.00  0.00    +0.074 C 
BRANCH  22  25
ATOM      1  S   UNL     1      -6.143  -9.513  12.322  0.00  0.00    -0.102 S 
ATOM     25  C   UNL     1      -5.161 -10.866  12.692  0.00  0.00    -0.008 A 
ATOM     29  C   UNL     1      -5.746 -12.052  12.305  0.00  0.00    +0.011 A 
ATOM     32  C   UNL     1      -7.018 -11.846  11.695  0.00  0.00    +0.008 A 
ATOM     33  C   UNL     1      -7.355 -10.512  11.640  0.00  0.00    +0.045 A 
ENDBRANCH  22  25
ENDBRANCH  19  22
ENDBRANCH  10  19
ENDBRANCH  14  17
BRANCH  18  21
ATOM     21  C   UNL     1      -8.190 -13.908  16.156  0.00  0.00    +0.066 C 
ATOM     24  C   UNL     1      -9.220 -13.442  15.429  0.00  0.00    -0.071 C 
ATOM     27  C   UNL     1      -9.456 -13.681  13.963  0.00  0.00    +0.039 C 
ATOM     28  C   UNL     1     -10.275 -12.589  16.086  0.00  0.00    +0.039 C 
ENDBRANCH  18  21
TORSDOF 8
ENDMDL
MODEL 9
REMARK VINA RESULT:      -6.2      6.090     10.421
REMARK  Name = 11865832
REMARK  10 active torsions:
REMARK  status: ('A' for Active; 'I' for Inactive)
REMARK    1  A    between atoms: N_9  and  C_13
REMARK    2  A    between atoms: N_10  and  C_19
REMARK    3  A    between atoms: N_11  and  C_26
REMARK    4  A    between atoms: C_14  and  C_17
REMARK    5  A    between atoms: C_18  and  C_21
REMARK    6  A    between atoms: C_19  and  C_22
REMARK    7  A    between atoms: C_19  and  C_23
REMARK    8  A    between atoms: C_22  and  C_25
REMARK    9  A    between atoms: C_24  and  C_27
REMARK   10  A    between atoms: C_24  and  C_28
REMARK                            x       y       z     vdW  Elec       q    Type
REMARK                         _______ _______ _______ _____ _____    ______ ____
ROOT
ATOM      5  O   UNL     1      12.274   8.819  15.216  0.00  0.00    -0.271 OA
ATOM      8  N   UNL     1      13.855  10.322  15.989  0.00  0.00    -0.285 N 
ATOM     13  C   UNL     1      15.605  11.927  16.049  0.00  0.00    +0.105 C 
ATOM     14  C   UNL     1      15.029  10.709  16.776  0.00  0.00    +0.182 C 
ATOM     15  C   UNL     1      14.382  12.548  15.372  0.00  0.00    +0.043 C 
ATOM     16  C   UNL     1      13.529  11.344  15.000  0.00  0.00    +0.111 C 
ATOM     18  C   UNL     1      13.173   9.117  16.003  0.00  0.00    +0.240 C 
ENDROOT
BRANCH  13   9
ATOM      6  O   UNL     1      18.006  13.339  15.380  0.00  0.00    -0.252 OA
ATOM      9  N   UNL     1      16.594  11.535  15.072  0.00  0.00    -0.294 N 
ATOM     11  N   UNL     1      18.511  11.661  13.817  0.00  0.00    -0.267 N 
ATOM     20  C   UNL     1      17.744  12.285  14.805  0.00  0.00    +0.304 C 
ATOM     37  H   UNL     1      16.483  10.641  14.602  0.00  0.00    +0.151 HD
ATOM     39  H   UNL     1      18.151  10.789  13.439  0.00  0.00    +0.156 HD
BRANCH  11  26
ATOM      2  F   UNL     1      20.890  11.502  15.261  0.00  0.00    -0.203 F 
ATOM      3  F   UNL     1      23.324  13.367  11.659  0.00  0.00    -0.205 F 
ATOM     26  C   UNL     1      19.740  12.097  13.269  0.00  0.00    +0.070 A 
ATOM     30  C   UNL     1      20.914  12.003  14.018  0.00  0.00    +0.147 A 
ATOM     31  C   UNL     1      19.778  12.621  11.977  0.00  0.00    +0.029 A 
ATOM     34  C   UNL     1      22.125  12.433  13.475  0.00  0.00    +0.078 A 
ATOM     35  C   UNL     1      20.988  13.051  11.434  0.00  0.00    +0.040 A 
ATOM     36  C   UNL     1      22.162  12.956  12.182  0.00  0.00    +0.126 A 
ENDBRANCH  11  26
ENDBRANCH  13   9
BRANCH  14  17
ATOM      4  O   UNL     1      13.525  11.759  18.304  0.00  0.00    -0.274 OA
ATOM     10  N   UNL     1      15.384  10.636  19.144  0.00  0.00    -0.302 N 
ATOM     17  C   UNL     1      14.545  11.094  18.142  0.00  0.00    +0.236 C 
ATOM     38  H   UNL     1      16.196  10.080  18.889  0.00  0.00    +0.150 HD
BRANCH  10  19
ATOM     19  C   UNL     1      15.152  10.893  20.547  0.00  0.00    +0.163 C 
BRANCH  19  23
ATOM      7  O   UNL     1      17.309  11.995  20.756  0.00  0.00    -0.274 OA
ATOM     12  N   UNL     1      16.727  10.412  22.317  0.00  0.00    -0.328 N 
ATOM     23  C   UNL     1      16.509  11.163  21.181  0.00  0.00    +0.231 C 
ATOM     40  H   UNL     1      17.588  10.506  22.844  0.00  0.00    +0.145 HD
ATOM     41  H   UNL     1      16.055   9.736  22.663  0.00  0.00    +0.145 HD
ENDBRANCH  19  23
BRANCH  19  22
ATOM     22  C   UNL     1      14.460   9.718  21.247  0.00  0.00    +0.074 C 
BRANCH  22  25
ATOM      1  S   UNL     1      12.019   8.822  22.246  0.00  0.00    -0.102 S 
ATOM     25  C   UNL     1      13.065  10.067  21.711  0.00  0.00    -0.008 A 
ATOM     29  C   UNL     1      12.467  11.307  21.773  0.00  0.00    +0.011 A 
ATOM     32  C   UNL     1      11.133  11.233  22.266  0.00  0.00    +0.008 A 
ATOM     33  C   UNL     1      10.762   9.940  22.563  0.00  0.00    +0.045 A 
ENDBRANCH  22  25
ENDBRANCH  19  22
ENDBRANCH  10  19
ENDBRANCH  14  17
BRANCH  18  21
ATOM     21  C   UNL     1      13.559   8.136  17.036  0.00  0.00    +0.066 C 
ATOM     24  C   UNL     1      12.878   7.912  18.172  0.00  0.00    -0.071 C 
ATOM     27  C   UNL     1      13.238   6.922  19.247  0.00  0.00    +0.039 C 
ATOM     28  C   UNL     1      11.623   8.696  18.460  0.00  0.00    +0.039 C 
ENDBRANCH  18  21
TORSDOF 8
ENDMDL
MODEL 10
REMARK VINA RESULT:      -6.2     28.888     32.241
REMARK  Name = 11865832
REMARK  10 active torsions:
REMARK  status: ('A' for Active; 'I' for Inactive)
REMARK    1  A    between atoms: N_9  and  C_13
REMARK    2  A    between atoms: N_10  and  C_19
REMARK    3  A    between atoms: N_11  and  C_26
REMARK    4  A    between atoms: C_14  and  C_17
REMARK    5  A    between atoms: C_18  and  C_21
REMARK    6  A    between atoms: C_19  and  C_22
REMARK    7  A    between atoms: C_19  and  C_23
REMARK    8  A    between atoms: C_22  and  C_25
REMARK    9  A    between atoms: C_24  and  C_27
REMARK   10  A    between atoms: C_24  and  C_28
REMARK                            x       y       z     vdW  Elec       q    Type
REMARK                         _______ _______ _______ _____ _____    ______ ____
ROOT
ATOM      5  O   UNL     1      -2.899 -13.879  12.566  0.00  0.00    -0.271 OA
ATOM      8  N   UNL     1      -4.844 -12.629  12.478  0.00  0.00    -0.285 N 
ATOM     13  C   UNL     1      -6.740 -11.456  11.656  0.00  0.00    +0.105 C 
ATOM     14  C   UNL     1      -5.655 -11.435  12.736  0.00  0.00    +0.182 C 
ATOM     15  C   UNL     1      -6.899 -12.945  11.341  0.00  0.00    +0.043 C 
ATOM     16  C   UNL     1      -5.489 -13.496  11.499  0.00  0.00    +0.111 C 
ATOM     18  C   UNL     1      -3.569 -12.913  12.933  0.00  0.00    +0.240 C 
ENDROOT
BRANCH  13   9
ATOM      6  O   UNL     1      -8.430 -10.495   9.552  0.00  0.00    -0.252 OA
ATOM      9  N   UNL     1      -6.326 -10.721  10.484  0.00  0.00    -0.294 N 
ATOM     11  N   UNL     1      -6.535  -9.604   8.490  0.00  0.00    -0.267 N 
ATOM     20  C   UNL     1      -7.220 -10.286   9.499  0.00  0.00    +0.304 C 
ATOM     37  H   UNL     1      -5.351 -10.450  10.400  0.00  0.00    +0.151 HD
ATOM     39  H   UNL     1      -5.528  -9.518   8.596  0.00  0.00    +0.156 HD
BRANCH  11  26
ATOM      2  F   UNL     1      -8.120  -7.314   8.616  0.00  0.00    -0.203 F 
ATOM      3  F   UNL     1      -8.638  -7.286   3.914  0.00  0.00    -0.205 F 
ATOM     26  C   UNL     1      -7.074  -9.011   7.324  0.00  0.00    +0.070 A 
ATOM     30  C   UNL     1      -7.863  -7.865   7.421  0.00  0.00    +0.147 A 
ATOM     31  C   UNL     1      -6.815  -9.575   6.075  0.00  0.00    +0.029 A 
ATOM     34  C   UNL     1      -8.392  -7.282   6.269  0.00  0.00    +0.078 A 
ATOM     35  C   UNL     1      -7.343  -8.993   4.923  0.00  0.00    +0.040 A 
ATOM     36  C   UNL     1      -8.131  -7.846   5.020  0.00  0.00    +0.126 A 
ENDBRANCH  11  26
ENDBRANCH  13   9
BRANCH  14  17
ATOM      4  O   UNL     1      -6.207 -12.655  14.713  0.00  0.00    -0.274 OA
ATOM     10  N   UNL     1      -6.897 -10.439  14.526  0.00  0.00    -0.302 N 
ATOM     17  C   UNL     1      -6.267 -11.595  14.096  0.00  0.00    +0.236 C 
ATOM     38  H   UNL     1      -6.869  -9.614  13.934  0.00  0.00    +0.150 HD
BRANCH  10  19
ATOM     19  C   UNL     1      -7.583 -10.339  15.794  0.00  0.00    +0.163 C 
BRANCH  19  23
ATOM      7  O   UNL     1      -9.886 -10.227  15.025  0.00  0.00    -0.274 OA
ATOM     12  N   UNL     1      -8.945  -8.348  15.953  0.00  0.00    -0.328 N 
ATOM     23  C   UNL     1      -8.918  -9.659  15.526  0.00  0.00    +0.231 C 
ATOM     40  H   UNL     1      -9.781  -7.784  15.846  0.00  0.00    +0.145 HD
ATOM     41  H   UNL     1      -8.142  -7.893  16.374  0.00  0.00    +0.145 HD
ENDBRANCH  19  23
BRANCH  19  22
ATOM     22  C   UNL     1      -6.779  -9.546  16.830  0.00  0.00    +0.074 C 
BRANCH  22  25
ATOM      1  S   UNL     1      -6.247 -11.181  19.022  0.00  0.00    -0.102 S 
ATOM     25  C   UNL     1      -5.781 -10.410  17.566  0.00  0.00    -0.008 A 
ATOM     29  C   UNL     1      -4.476 -10.691  17.227  0.00  0.00    +0.011 A 
ATOM     32  C   UNL     1      -3.850 -11.550  18.176  0.00  0.00    +0.008 A 
ATOM     33  C   UNL     1      -4.701 -11.894  19.203  0.00  0.00    +0.045 A 
ENDBRANCH  22  25
ENDBRANCH  19  22
ENDBRANCH  10  19
ENDBRANCH  14  17
BRANCH  18  21
ATOM     21  C   UNL     1      -2.985 -11.989  13.926  0.00  0.00    +0.066 C 
ATOM     24  C   UNL     1      -2.204 -10.937  13.628  0.00  0.00    -0.071 C 
ATOM     27  C   UNL     1      -1.593  -9.974  14.609  0.00  0.00    +0.039 C 
ATOM     28  C   UNL     1      -1.870 -10.637  12.188  0.00  0.00    +0.039 C 
ENDBRANCH  18  21
TORSDOF 8
ENDMDL
