MODEL 1
REMARK VINA RESULT:      -8.6      0.000      0.000
REMARK  Name = 11885154
REMARK  2 active torsions:
REMARK  status: ('A' for Active; 'I' for Inactive)
REMARK    1  A    between atoms: N_6  and  C_21
REMARK    2  A    between atoms: C_17  and  C_19
REMARK                            x       y       z     vdW  Elec       q    Type
REMARK                         _______ _______ _______ _____ _____    ______ ____
ROOT
ATOM      2  O   UNL     1      10.724   7.224   2.198  0.00  0.00    -0.267 OA
ATOM      3  O   UNL     1      13.348   6.485   7.309  0.00  0.00    -0.252 OA
ATOM      4  N   UNL     1      10.061   6.851   4.402  0.00  0.00    -0.311 N 
ATOM      5  N   UNL     1      11.429   7.768   7.138  0.00  0.00    -0.284 N 
ATOM      6  N   UNL     1      13.522   8.652   6.502  0.00  0.00    -0.269 N 
ATOM      7  C   UNL     1       9.431   8.754   5.992  0.00  0.00    +0.027 C 
ATOM      8  C   UNL     1       9.360   6.429   6.784  0.00  0.00    +0.054 C 
ATOM      9  C   UNL     1       8.546   7.716   6.670  0.00  0.00    +0.018 C 
ATOM     10  C   UNL     1       9.747   8.276   4.569  0.00  0.00    +0.130 C 
ATOM     11  C   UNL     1      10.712   9.010   6.811  0.00  0.00    +0.114 C 
ATOM     12  C   UNL     1      10.589   6.689   7.672  0.00  0.00    +0.119 C 
ATOM     13  C   UNL     1       9.804   5.932   5.422  0.00  0.00    +0.027 A 
ATOM     14  C   UNL     1       9.984   4.619   5.207  0.00  0.00    +0.022 A 
ATOM     15  C   UNL     1      10.523   6.449   3.134  0.00  0.00    +0.259 A 
ATOM     16  C   UNL     1      12.819   7.554   6.996  0.00  0.00    +0.306 C 
ATOM     17  C   UNL     1      10.754   4.975   2.935  0.00  0.00    +0.047 A 
ATOM     18  C   UNL     1      10.472   4.138   3.945  0.00  0.00    +0.015 A 
ATOM     35  H   UNL     1      13.151   9.579   6.679  0.00  0.00    +0.156 HD
ENDROOT
BRANCH  17  19
ATOM     19  C   UNL     1      11.289   4.450   1.667  0.00  0.00    -0.012 A 
ATOM     20  C   UNL     1      10.576   4.628   0.480  0.00  0.00    +0.017 A 
ATOM     22  C   UNL     1      12.508   3.778   1.650  0.00  0.00    +0.009 A 
ATOM     23  C   UNL     1      11.073   4.134  -0.737  0.00  0.00    -0.017 A 
ATOM     24  C   UNL     1      13.017   3.280   0.451  0.00  0.00    +0.009 A 
ATOM     25  C   UNL     1      12.311   3.450  -0.752  0.00  0.00    -0.018 A 
ATOM     28  C   UNL     1      10.367   4.304  -1.939  0.00  0.00    +0.008 A 
ATOM     29  C   UNL     1      12.808   2.956  -1.969  0.00  0.00    +0.008 A 
ATOM     32  C   UNL     1      10.876   3.806  -3.139  0.00  0.00    +0.001 A 
ATOM     33  C   UNL     1      12.094   3.134  -3.155  0.00  0.00    +0.001 A 
ENDBRANCH  17  19
BRANCH   6  21
ATOM      1  F   UNL     1      16.136   7.354   2.693  0.00  0.00    -0.205 F 
ATOM     21  C   UNL     1      14.752   8.635   5.799  0.00  0.00    +0.037 A 
ATOM     26  C   UNL     1      14.838   7.991   4.569  0.00  0.00    +0.061 A 
ATOM     27  C   UNL     1      15.868   9.263   6.345  0.00  0.00    +0.023 A 
ATOM     30  C   UNL     1      16.049   7.974   3.878  0.00  0.00    +0.125 A 
ATOM     31  C   UNL     1      17.080   9.246   5.655  0.00  0.00    +0.005 A 
ATOM     34  C   UNL     1      17.171   8.601   4.421  0.00  0.00    +0.038 A 
ENDBRANCH   6  21
TORSDOF 2
ENDMDL
MODEL 2
REMARK VINA RESULT:      -8.1     14.519     16.518
REMARK  Name = 11885154
REMARK  2 active torsions:
REMARK  status: ('A' for Active; 'I' for Inactive)
REMARK    1  A    between atoms: N_6  and  C_21
REMARK    2  A    between atoms: C_17  and  C_19
REMARK                            x       y       z     vdW  Elec       q    Type
REMARK                         _______ _______ _______ _____ _____    ______ ____
ROOT
ATOM      2  O   UNL     1      14.255  12.021  19.178  0.00  0.00    -0.267 OA
ATOM      3  O   UNL     1      15.306   6.329  19.424  0.00  0.00    -0.252 OA
ATOM      4  N   UNL     1      12.987  10.063  19.160  0.00  0.00    -0.311 N 
ATOM      5  N   UNL     1      13.530   7.256  20.583  0.00  0.00    -0.284 N 
ATOM      6  N   UNL     1      15.728   7.420  21.426  0.00  0.00    -0.269 N 
ATOM      7  C   UNL     1      11.952   9.073  21.280  0.00  0.00    +0.027 C 
ATOM      8  C   UNL     1      11.632   7.941  19.124  0.00  0.00    +0.054 C 
ATOM      9  C   UNL     1      10.899   8.503  20.339  0.00  0.00    +0.018 C 
ATOM     10  C   UNL     1      12.655  10.243  20.579  0.00  0.00    +0.130 C 
ATOM     11  C   UNL     1      12.950   7.984  21.722  0.00  0.00    +0.114 C 
ATOM     12  C   UNL     1      12.560   6.801  19.578  0.00  0.00    +0.119 C 
ATOM     13  C   UNL     1      12.441   9.013  18.419  0.00  0.00    +0.027 A 
ATOM     14  C   UNL     1      12.659   8.937  17.097  0.00  0.00    +0.022 A 
ATOM     15  C   UNL     1      13.787  11.059  18.566  0.00  0.00    +0.259 A 
ATOM     16  C   UNL     1      14.900   6.960  20.402  0.00  0.00    +0.306 C 
ATOM     17  C   UNL     1      14.049  10.924  17.090  0.00  0.00    +0.047 A 
ATOM     18  C   UNL     1      13.481   9.905  16.427  0.00  0.00    +0.015 A 
ATOM     35  H   UNL     1      15.332   7.519  22.355  0.00  0.00    +0.156 HD
ENDROOT
BRANCH  17  19
ATOM     19  C   UNL     1      14.917  11.878  16.378  0.00  0.00    -0.012 A 
ATOM     20  C   UNL     1      16.153  11.462  15.880  0.00  0.00    +0.017 A 
ATOM     22  C   UNL     1      14.503  13.195  16.199  0.00  0.00    +0.009 A 
ATOM     23  C   UNL     1      16.991  12.360  15.199  0.00  0.00    -0.017 A 
ATOM     24  C   UNL     1      15.322  14.101  15.525  0.00  0.00    +0.009 A 
ATOM     25  C   UNL     1      16.570  13.699  15.018  0.00  0.00    -0.018 A 
ATOM     28  C   UNL     1      18.237  11.958  14.693  0.00  0.00    +0.008 A 
ATOM     29  C   UNL     1      17.408  14.596  14.337  0.00  0.00    +0.008 A 
ATOM     32  C   UNL     1      19.058  12.863  14.019  0.00  0.00    +0.001 A 
ATOM     33  C   UNL     1      18.644  14.179  13.841  0.00  0.00    +0.001 A 
ENDBRANCH  17  19
BRANCH   6  21
ATOM      1  F   UNL     1      20.301   6.034  20.992  0.00  0.00    -0.205 F 
ATOM     21  C   UNL     1      17.106   7.732  21.338  0.00  0.00    +0.037 A 
ATOM     26  C   UNL     1      18.040   6.708  21.205  0.00  0.00    +0.061 A 
ATOM     27  C   UNL     1      17.519   9.060  21.385  0.00  0.00    +0.023 A 
ATOM     30  C   UNL     1      19.398   7.016  21.119  0.00  0.00    +0.125 A 
ATOM     31  C   UNL     1      18.877   9.369  21.299  0.00  0.00    +0.005 A 
ATOM     34  C   UNL     1      19.816   8.346  21.166  0.00  0.00    +0.038 A 
ENDBRANCH   6  21
TORSDOF 2
ENDMDL
MODEL 3
REMARK VINA RESULT:      -8.0      3.871      9.021
REMARK  Name = 11885154
REMARK  2 active torsions:
REMARK  status: ('A' for Active; 'I' for Inactive)
REMARK    1  A    between atoms: N_6  and  C_21
REMARK    2  A    between atoms: C_17  and  C_19
REMARK                            x       y       z     vdW  Elec       q    Type
REMARK                         _______ _______ _______ _____ _____    ______ ____
ROOT
ATOM      2  O   UNL     1      11.949   7.447   1.410  0.00  0.00    -0.267 OA
ATOM      3  O   UNL     1       9.901   3.592  -2.398  0.00  0.00    -0.252 OA
ATOM      4  N   UNL     1      12.772   5.576   0.287  0.00  0.00    -0.311 N 
ATOM      5  N   UNL     1      12.046   4.437  -2.607  0.00  0.00    -0.284 N 
ATOM      6  N   UNL     1      10.184   5.707  -3.307  0.00  0.00    -0.269 N 
ATOM      7  C   UNL     1      14.066   5.748  -1.913  0.00  0.00    +0.027 C 
ATOM      8  C   UNL     1      13.642   3.542  -0.918  0.00  0.00    +0.054 C 
ATOM      9  C   UNL     1      14.736   4.455  -1.466  0.00  0.00    +0.018 C 
ATOM     10  C   UNL     1      13.458   6.436  -0.685  0.00  0.00    +0.130 C 
ATOM     11  C   UNL     1      13.008   5.477  -3.002  0.00  0.00    +0.114 C 
ATOM     12  C   UNL     1      12.644   3.220  -2.043  0.00  0.00    +0.119 C 
ATOM     13  C   UNL     1      12.914   4.187   0.247  0.00  0.00    +0.027 A 
ATOM     14  C   UNL     1      12.379   3.426   1.215  0.00  0.00    +0.022 A 
ATOM     15  C   UNL     1      12.064   6.224   1.318  0.00  0.00    +0.259 A 
ATOM     16  C   UNL     1      10.642   4.517  -2.740  0.00  0.00    +0.306 C 
ATOM     17  C   UNL     1      11.440   5.343   2.367  0.00  0.00    +0.047 A 
ATOM     18  C   UNL     1      11.627   4.016   2.286  0.00  0.00    +0.015 A 
ATOM     35  H   UNL     1      10.800   6.202  -3.943  0.00  0.00    +0.156 HD
ENDROOT
BRANCH  17  19
ATOM     19  C   UNL     1      10.631   5.911   3.459  0.00  0.00    -0.012 A 
ATOM     20  C   UNL     1      10.999   5.693   4.788  0.00  0.00    +0.017 A 
ATOM     22  C   UNL     1       9.500   6.667   3.166  0.00  0.00    +0.009 A 
ATOM     23  C   UNL     1      10.238   6.229   5.840  0.00  0.00    -0.017 A 
ATOM     24  C   UNL     1       8.732   7.207   4.198  0.00  0.00    +0.009 A 
ATOM     25  C   UNL     1       9.088   6.997   5.541  0.00  0.00    -0.018 A 
ATOM     28  C   UNL     1      10.594   6.019   7.182  0.00  0.00    +0.008 A 
ATOM     29  C   UNL     1       8.327   7.532   6.593  0.00  0.00    +0.008 A 
ATOM     32  C   UNL     1       9.826   6.559   8.215  0.00  0.00    +0.001 A 
ATOM     33  C   UNL     1       8.695   7.314   7.921  0.00  0.00    +0.001 A 
ENDBRANCH  17  19
BRANCH   6  21
ATOM      1  F   UNL     1       7.352   8.967  -1.216  0.00  0.00    -0.205 F 
ATOM     21  C   UNL     1       8.911   6.303  -3.135  0.00  0.00    +0.037 A 
ATOM     26  C   UNL     1       8.758   7.361  -2.244  0.00  0.00    +0.061 A 
ATOM     27  C   UNL     1       7.821   5.827  -3.857  0.00  0.00    +0.023 A 
ATOM     30  C   UNL     1       7.504   7.948  -2.074  0.00  0.00    +0.125 A 
ATOM     31  C   UNL     1       6.567   6.413  -3.688  0.00  0.00    +0.005 A 
ATOM     34  C   UNL     1       6.408   7.474  -2.796  0.00  0.00    +0.038 A 
ENDBRANCH   6  21
TORSDOF 2
ENDMDL
MODEL 4
REMARK VINA RESULT:      -7.8     16.804     19.987
REMARK  Name = 11885154
REMARK  2 active torsions:
REMARK  status: ('A' for Active; 'I' for Inactive)
REMARK    1  A    between atoms: N_6  and  C_21
REMARK    2  A    between atoms: C_17  and  C_19
REMARK                            x       y       z     vdW  Elec       q    Type
REMARK                         _______ _______ _______ _____ _____    ______ ____
ROOT
ATOM      2  O   UNL     1      14.408  11.473  20.336  0.00  0.00    -0.267 OA
ATOM      3  O   UNL     1      13.527  11.886  26.047  0.00  0.00    -0.252 OA
ATOM      4  N   UNL     1      12.593  11.879  21.744  0.00  0.00    -0.311 N 
ATOM      5  N   UNL     1      12.486  13.342  24.580  0.00  0.00    -0.284 N 
ATOM      6  N   UNL     1      14.744  13.661  25.183  0.00  0.00    -0.269 N 
ATOM      7  C   UNL     1      11.813  14.242  22.340  0.00  0.00    +0.027 C 
ATOM      8  C   UNL     1      10.639  12.298  23.277  0.00  0.00    +0.054 C 
ATOM      9  C   UNL     1      10.441  13.602  22.509  0.00  0.00    +0.018 C 
ATOM     10  C   UNL     1      12.681  13.319  21.474  0.00  0.00    +0.130 C 
ATOM     11  C   UNL     1      12.465  14.527  23.708  0.00  0.00    +0.114 C 
ATOM     12  C   UNL     1      11.213  12.614  24.668  0.00  0.00    +0.119 C 
ATOM     13  C   UNL     1      11.571  11.355  22.538  0.00  0.00    +0.027 A 
ATOM     14  C   UNL     1      11.435  10.027  22.673  0.00  0.00    +0.022 A 
ATOM     15  C   UNL     1      13.517  11.051  21.075  0.00  0.00    +0.259 A 
ATOM     16  C   UNL     1      13.596  12.883  25.323  0.00  0.00    +0.306 C 
ATOM     17  C   UNL     1      13.365   9.568  21.278  0.00  0.00    +0.047 A 
ATOM     18  C   UNL     1      12.352   9.123  22.037  0.00  0.00    +0.015 A 
ATOM     35  H   UNL     1      14.633  14.645  24.963  0.00  0.00    +0.156 HD
ENDROOT
BRANCH  17  19
ATOM     19  C   UNL     1      14.310   8.614  20.671  0.00  0.00    -0.012 A 
ATOM     20  C   UNL     1      15.551   8.384  21.266  0.00  0.00    +0.017 A 
ATOM     22  C   UNL     1      13.963   7.939  19.504  0.00  0.00    +0.009 A 
ATOM     23  C   UNL     1      16.461   7.477  20.700  0.00  0.00    -0.017 A 
ATOM     24  C   UNL     1      14.855   7.035  18.927  0.00  0.00    +0.009 A 
ATOM     25  C   UNL     1      16.109   6.793  19.513  0.00  0.00    -0.018 A 
ATOM     28  C   UNL     1      17.714   7.235  21.286  0.00  0.00    +0.008 A 
ATOM     29  C   UNL     1      17.019   5.886  18.946  0.00  0.00    +0.008 A 
ATOM     32  C   UNL     1      18.607   6.330  20.709  0.00  0.00    +0.001 A 
ATOM     33  C   UNL     1      18.260   5.657  19.542  0.00  0.00    +0.001 A 
ENDBRANCH  17  19
BRANCH   6  21
ATOM      1  F   UNL     1      18.845  11.929  23.393  0.00  0.00    -0.205 F 
ATOM     21  C   UNL     1      16.087  13.246  25.359  0.00  0.00    +0.037 A 
ATOM     26  C   UNL     1      16.817  12.784  24.268  0.00  0.00    +0.061 A 
ATOM     27  C   UNL     1      16.668  13.302  26.622  0.00  0.00    +0.023 A 
ATOM     30  C   UNL     1      18.139  12.375  24.441  0.00  0.00    +0.125 A 
ATOM     31  C   UNL     1      17.990  12.892  26.797  0.00  0.00    +0.005 A 
ATOM     34  C   UNL     1      18.725  12.429  25.706  0.00  0.00    +0.038 A 
ENDBRANCH   6  21
TORSDOF 2
ENDMDL
MODEL 5
REMARK VINA RESULT:      -7.7     26.628     30.447
REMARK  Name = 11885154
REMARK  2 active torsions:
REMARK  status: ('A' for Active; 'I' for Inactive)
REMARK    1  A    between atoms: N_6  and  C_21
REMARK    2  A    between atoms: C_17  and  C_19
REMARK                            x       y       z     vdW  Elec       q    Type
REMARK                         _______ _______ _______ _____ _____    ______ ____
ROOT
ATOM      2  O   UNL     1     -14.172   9.786  19.852  0.00  0.00    -0.267 OA
ATOM      3  O   UNL     1     -11.091   8.469  15.126  0.00  0.00    -0.252 OA
ATOM      4  N   UNL     1     -12.201  10.533  18.854  0.00  0.00    -0.311 N 
ATOM      5  N   UNL     1     -11.390  10.672  15.769  0.00  0.00    -0.284 N 
ATOM      6  N   UNL     1     -13.105   9.511  14.639  0.00  0.00    -0.269 N 
ATOM      7  C   UNL     1     -12.134  12.538  17.266  0.00  0.00    +0.027 C 
ATOM      8  C   UNL     1     -10.064  11.317  17.776  0.00  0.00    +0.054 C 
ATOM      9  C   UNL     1     -10.700  12.705  17.751  0.00  0.00    +0.018 C 
ATOM     10  C   UNL     1     -12.903  11.692  18.290  0.00  0.00    +0.130 C 
ATOM     11  C   UNL     1     -12.175  11.913  15.858  0.00  0.00    +0.114 C 
ATOM     12  C   UNL     1     -10.042  10.748  16.346  0.00  0.00    +0.119 C 
ATOM     13  C   UNL     1     -10.823  10.376  18.692  0.00  0.00    +0.027 A 
ATOM     14  C   UNL     1     -10.180   9.377  19.318  0.00  0.00    +0.022 A 
ATOM     15  C   UNL     1     -12.963   9.658  19.654  0.00  0.00    +0.259 A 
ATOM     16  C   UNL     1     -11.818   9.464  15.175  0.00  0.00    +0.306 C 
ATOM     17  C   UNL     1     -12.222   8.524  20.309  0.00  0.00    +0.047 A 
ATOM     18  C   UNL     1     -10.895   8.436  20.133  0.00  0.00    +0.015 A 
ATOM     35  H   UNL     1     -13.458  10.406  14.318  0.00  0.00    +0.156 HD
ENDROOT
BRANCH  17  19
ATOM     19  C   UNL     1     -12.929   7.519  21.121  0.00  0.00    -0.012 A 
ATOM     20  C   UNL     1     -14.130   7.848  21.753  0.00  0.00    +0.017 A 
ATOM     22  C   UNL     1     -12.401   6.238  21.258  0.00  0.00    +0.009 A 
ATOM     23  C   UNL     1     -14.815   6.901  22.530  0.00  0.00    -0.017 A 
ATOM     24  C   UNL     1     -13.069   5.284  22.026  0.00  0.00    +0.009 A 
ATOM     25  C   UNL     1     -14.278   5.600  22.669  0.00  0.00    -0.018 A 
ATOM     28  C   UNL     1     -16.024   7.217  23.172  0.00  0.00    +0.008 A 
ATOM     29  C   UNL     1     -14.964   4.652  23.446  0.00  0.00    +0.008 A 
ATOM     32  C   UNL     1     -16.692   6.263  23.941  0.00  0.00    +0.001 A 
ATOM     33  C   UNL     1     -16.163   4.983  24.077  0.00  0.00    +0.001 A 
ENDBRANCH  17  19
BRANCH   6  21
ATOM      1  F   UNL     1     -16.662   6.687  16.185  0.00  0.00    -0.205 F 
ATOM     21  C   UNL     1     -13.989   8.423  14.439  0.00  0.00    +0.037 A 
ATOM     26  C   UNL     1     -14.907   8.086  15.430  0.00  0.00    +0.061 A 
ATOM     27  C   UNL     1     -13.935   7.697  13.253  0.00  0.00    +0.023 A 
ATOM     30  C   UNL     1     -15.777   7.015  15.234  0.00  0.00    +0.125 A 
ATOM     31  C   UNL     1     -14.805   6.624  13.056  0.00  0.00    +0.005 A 
ATOM     34  C   UNL     1     -15.726   6.283  14.046  0.00  0.00    +0.038 A 
ENDBRANCH   6  21
TORSDOF 2
ENDMDL
MODEL 6
REMARK VINA RESULT:      -7.7      3.018      6.571
REMARK  Name = 11885154
REMARK  2 active torsions:
REMARK  status: ('A' for Active; 'I' for Inactive)
REMARK    1  A    between atoms: N_6  and  C_21
REMARK    2  A    between atoms: C_17  and  C_19
REMARK                            x       y       z     vdW  Elec       q    Type
REMARK                         _______ _______ _______ _____ _____    ______ ____
ROOT
ATOM      2  O   UNL     1      10.142   5.498   3.458  0.00  0.00    -0.267 OA
ATOM      3  O   UNL     1      15.126   7.488   1.275  0.00  0.00    -0.252 OA
ATOM      4  N   UNL     1      11.441   5.094   1.563  0.00  0.00    -0.311 N 
ATOM      5  N   UNL     1      14.608   5.234   1.182  0.00  0.00    -0.284 N 
ATOM      6  N   UNL     1      15.417   6.196   3.178  0.00  0.00    -0.269 N 
ATOM      7  C   UNL     1      13.163   3.205   1.451  0.00  0.00    +0.027 C 
ATOM      8  C   UNL     1      12.845   4.681  -0.487  0.00  0.00    +0.054 C 
ATOM      9  C   UNL     1      12.884   3.220  -0.046  0.00  0.00    +0.018 C 
ATOM     10  C   UNL     1      11.990   3.878   2.176  0.00  0.00    +0.130 C 
ATOM     11  C   UNL     1      14.506   3.891   1.772  0.00  0.00    +0.114 C 
ATOM     12  C   UNL     1      14.220   5.321  -0.232  0.00  0.00    +0.119 C 
ATOM     13  C   UNL     1      11.771   5.455   0.255  0.00  0.00    +0.027 A 
ATOM     14  C   UNL     1      11.166   6.501  -0.329  0.00  0.00    +0.022 A 
ATOM     15  C   UNL     1      10.488   5.808   2.316  0.00  0.00    +0.259 A 
ATOM     16  C   UNL     1      15.053   6.398   1.847  0.00  0.00    +0.306 C 
ATOM     17  C   UNL     1       9.856   7.001   1.650  0.00  0.00    +0.047 A 
ATOM     18  C   UNL     1      10.199   7.287   0.385  0.00  0.00    +0.015 A 
ATOM     35  H   UNL     1      15.752   5.278   3.450  0.00  0.00    +0.156 HD
ENDROOT
BRANCH  17  19
ATOM     19  C   UNL     1       8.889   7.851   2.365  0.00  0.00    -0.012 A 
ATOM     20  C   UNL     1       8.046   8.704   1.651  0.00  0.00    +0.017 A 
ATOM     22  C   UNL     1       8.812   7.802   3.755  0.00  0.00    +0.009 A 
ATOM     23  C   UNL     1       7.118   9.520   2.319  0.00  0.00    -0.017 A 
ATOM     24  C   UNL     1       7.897   8.605   4.434  0.00  0.00    +0.009 A 
ATOM     25  C   UNL     1       7.042   9.470   3.731  0.00  0.00    -0.018 A 
ATOM     28  C   UNL     1       6.264  10.385   1.615  0.00  0.00    +0.008 A 
ATOM     29  C   UNL     1       6.114  10.286   4.398  0.00  0.00    +0.008 A 
ATOM     32  C   UNL     1       5.348  11.189   2.295  0.00  0.00    +0.001 A 
ATOM     33  C   UNL     1       5.273  11.139   3.683  0.00  0.00    +0.001 A 
ENDBRANCH  17  19
BRANCH   6  21
ATOM      1  F   UNL     1      13.201   8.433   6.799  0.00  0.00    -0.205 F 
ATOM     21  C   UNL     1      15.420   7.156   4.220  0.00  0.00    +0.037 A 
ATOM     26  C   UNL     1      14.287   7.323   5.011  0.00  0.00    +0.061 A 
ATOM     27  C   UNL     1      16.557   7.926   4.447  0.00  0.00    +0.023 A 
ATOM     30  C   UNL     1      14.290   8.268   6.036  0.00  0.00    +0.125 A 
ATOM     31  C   UNL     1      16.561   8.872   5.473  0.00  0.00    +0.005 A 
ATOM     34  C   UNL     1      15.427   9.043   6.267  0.00  0.00    +0.038 A 
ENDBRANCH   6  21
TORSDOF 2
ENDMDL
MODEL 7
REMARK VINA RESULT:      -7.7     25.827     28.762
REMARK  Name = 11885154
REMARK  2 active torsions:
REMARK  status: ('A' for Active; 'I' for Inactive)
REMARK    1  A    between atoms: N_6  and  C_21
REMARK    2  A    between atoms: C_17  and  C_19
REMARK                            x       y       z     vdW  Elec       q    Type
REMARK                         _______ _______ _______ _____ _____    ______ ____
ROOT
ATOM      2  O   UNL     1      -7.546  -8.850  17.093  0.00  0.00    -0.267 OA
ATOM      3  O   UNL     1      -5.466 -12.899  13.509  0.00  0.00    -0.252 OA
ATOM      4  N   UNL     1      -6.649 -10.992  17.299  0.00  0.00    -0.311 N 
ATOM      5  N   UNL     1      -4.431 -12.465  15.533  0.00  0.00    -0.284 N 
ATOM      6  N   UNL     1      -4.087 -11.042  13.683  0.00  0.00    -0.269 N 
ATOM      7  C   UNL     1      -4.172 -11.407  17.790  0.00  0.00    +0.027 C 
ATOM      8  C   UNL     1      -5.694 -13.314  17.504  0.00  0.00    +0.054 C 
ATOM      9  C   UNL     1      -4.654 -12.699  18.437  0.00  0.00    +0.018 C 
ATOM     10  C   UNL     1      -5.353 -10.432  17.702  0.00  0.00    +0.130 C 
ATOM     11  C   UNL     1      -3.547 -11.679  16.408  0.00  0.00    +0.114 C 
ATOM     12  C   UNL     1      -5.027 -13.652  16.160  0.00  0.00    +0.119 C 
ATOM     13  C   UNL     1      -6.862 -12.372  17.278  0.00  0.00    +0.027 A 
ATOM     14  C   UNL     1      -8.086 -12.861  17.025  0.00  0.00    +0.022 A 
ATOM     15  C   UNL     1      -7.686 -10.073  17.046  0.00  0.00    +0.259 A 
ATOM     16  C   UNL     1      -4.724 -12.179  14.181  0.00  0.00    +0.306 C 
ATOM     17  C   UNL     1      -9.037 -10.651  16.724  0.00  0.00    +0.047 A 
ATOM     18  C   UNL     1      -9.186 -11.985  16.738  0.00  0.00    +0.015 A 
ATOM     35  H   UNL     1      -3.203 -10.768  14.096  0.00  0.00    +0.156 HD
ENDROOT
BRANCH  17  19
ATOM     19  C   UNL     1     -10.179  -9.782  16.390  0.00  0.00    -0.012 A 
ATOM     20  C   UNL     1     -10.407  -9.406  15.065  0.00  0.00    +0.017 A 
ATOM     22  C   UNL     1     -11.033  -9.338  17.395  0.00  0.00    +0.009 A 
ATOM     23  C   UNL     1     -11.491  -8.579  14.731  0.00  0.00    -0.017 A 
ATOM     24  C   UNL     1     -12.115  -8.516  17.081  0.00  0.00    +0.009 A 
ATOM     25  C   UNL     1     -12.358  -8.126  15.753  0.00  0.00    -0.018 A 
ATOM     28  C   UNL     1     -11.733  -8.190  13.403  0.00  0.00    +0.008 A 
ATOM     29  C   UNL     1     -13.443  -7.299  15.418  0.00  0.00    +0.008 A 
ATOM     32  C   UNL     1     -12.816  -7.367  13.089  0.00  0.00    +0.001 A 
ATOM     33  C   UNL     1     -13.669  -6.923  14.094  0.00  0.00    +0.001 A 
ENDBRANCH  17  19
BRANCH   6  21
ATOM      1  F   UNL     1      -3.276  -8.995   9.420  0.00  0.00    -0.205 F 
ATOM     21  C   UNL     1      -4.514 -10.224  12.608  0.00  0.00    +0.037 A 
ATOM     26  C   UNL     1      -3.668 -10.010  11.524  0.00  0.00    +0.061 A 
ATOM     27  C   UNL     1      -5.775  -9.638  12.644  0.00  0.00    +0.023 A 
ATOM     30  C   UNL     1      -4.087  -9.204  10.466  0.00  0.00    +0.125 A 
ATOM     31  C   UNL     1      -6.196  -8.832  11.586  0.00  0.00    +0.005 A 
ATOM     34  C   UNL     1      -5.352  -8.614  10.497  0.00  0.00    +0.038 A 
ENDBRANCH   6  21
TORSDOF 2
ENDMDL
MODEL 8
REMARK VINA RESULT:      -7.6     34.665     37.307
REMARK  Name = 11885154
REMARK  2 active torsions:
REMARK  status: ('A' for Active; 'I' for Inactive)
REMARK    1  A    between atoms: N_6  and  C_21
REMARK    2  A    between atoms: C_17  and  C_19
REMARK                            x       y       z     vdW  Elec       q    Type
REMARK                         _______ _______ _______ _____ _____    ______ ____
ROOT
ATOM      2  O   UNL     1      -2.619  11.554  38.437  0.00  0.00    -0.267 OA
ATOM      3  O   UNL     1      -4.291  12.039  32.911  0.00  0.00    -0.252 OA
ATOM      4  N   UNL     1      -1.943  12.769  36.564  0.00  0.00    -0.311 N 
ATOM      5  N   UNL     1      -3.665  13.906  34.127  0.00  0.00    -0.284 N 
ATOM      6  N   UNL     1      -5.808  12.959  34.406  0.00  0.00    -0.269 N 
ATOM      7  C   UNL     1      -2.754  15.151  36.101  0.00  0.00    +0.027 C 
ATOM      8  C   UNL     1      -1.213  14.061  34.529  0.00  0.00    +0.054 C 
ATOM      9  C   UNL     1      -1.429  15.318  35.369  0.00  0.00    +0.018 C 
ATOM     10  C   UNL     1      -2.637  13.963  37.064  0.00  0.00    +0.130 C 
ATOM     11  C   UNL     1      -3.918  14.974  35.107  0.00  0.00    +0.114 C 
ATOM     12  C   UNL     1      -2.342  13.950  33.491  0.00  0.00    +0.119 C 
ATOM     13  C   UNL     1      -1.183  12.815  35.394  0.00  0.00    +0.027 A 
ATOM     14  C   UNL     1      -0.458  11.749  35.019  0.00  0.00    +0.022 A 
ATOM     15  C   UNL     1      -1.992  11.620  37.378  0.00  0.00    +0.259 A 
ATOM     16  C   UNL     1      -4.575  12.891  33.756  0.00  0.00    +0.306 C 
ATOM     17  C   UNL     1      -1.202  10.428  36.911  0.00  0.00    +0.047 A 
ATOM     18  C   UNL     1      -0.475  10.537  35.789  0.00  0.00    +0.015 A 
ATOM     35  H   UNL     1      -6.135  13.866  34.720  0.00  0.00    +0.156 HD
ENDROOT
BRANCH  17  19
ATOM     19  C   UNL     1      -1.225   9.157  37.656  0.00  0.00    -0.012 A 
ATOM     20  C   UNL     1      -0.357   8.960  38.731  0.00  0.00    +0.017 A 
ATOM     22  C   UNL     1      -2.116   8.152  37.290  0.00  0.00    +0.009 A 
ATOM     23  C   UNL     1      -0.368   7.755  39.451  0.00  0.00    -0.017 A 
ATOM     24  C   UNL     1      -2.141   6.948  37.993  0.00  0.00    +0.009 A 
ATOM     25  C   UNL     1      -1.273   6.733  39.077  0.00  0.00    -0.018 A 
ATOM     28  C   UNL     1       0.499   7.541  40.535  0.00  0.00    +0.008 A 
ATOM     29  C   UNL     1      -1.285   5.528  39.798  0.00  0.00    +0.008 A 
ATOM     32  C   UNL     1       0.474   6.336  41.239  0.00  0.00    +0.001 A 
ATOM     33  C   UNL     1      -0.416   5.332  40.872  0.00  0.00    +0.001 A 
ENDBRANCH  17  19
BRANCH   6  21
ATOM      1  F   UNL     1      -6.945   8.895  36.689  0.00  0.00    -0.205 F 
ATOM     21  C   UNL     1      -6.708  11.892  34.648  0.00  0.00    +0.037 A 
ATOM     26  C   UNL     1      -6.375  10.902  35.567  0.00  0.00    +0.061 A 
ATOM     27  C   UNL     1      -7.918  11.841  33.964  0.00  0.00    +0.023 A 
ATOM     30  C   UNL     1      -7.261   9.852  35.805  0.00  0.00    +0.125 A 
ATOM     31  C   UNL     1      -8.805  10.790  34.200  0.00  0.00    +0.005 A 
ATOM     34  C   UNL     1      -8.476   9.795  35.121  0.00  0.00    +0.038 A 
ENDBRANCH   6  21
TORSDOF 2
ENDMDL
MODEL 9
REMARK VINA RESULT:      -7.6     26.089     28.827
REMARK  Name = 11885154
REMARK  2 active torsions:
REMARK  status: ('A' for Active; 'I' for Inactive)
REMARK    1  A    between atoms: N_6  and  C_21
REMARK    2  A    between atoms: C_17  and  C_19
REMARK                            x       y       z     vdW  Elec       q    Type
REMARK                         _______ _______ _______ _____ _____    ______ ____
ROOT
ATOM      2  O   UNL     1      -6.986 -12.537  14.440  0.00  0.00    -0.267 OA
ATOM      3  O   UNL     1      -9.606  -8.645  17.839  0.00  0.00    -0.252 OA
ATOM      4  N   UNL     1      -7.127 -12.112  16.728  0.00  0.00    -0.311 N 
ATOM      5  N   UNL     1      -9.525 -10.879  18.440  0.00  0.00    -0.284 N 
ATOM      6  N   UNL     1     -11.086 -10.125  16.840  0.00  0.00    -0.269 N 
ATOM      7  C   UNL     1      -8.828 -13.278  18.244  0.00  0.00    +0.027 C 
ATOM      8  C   UNL     1      -7.275 -11.630  19.196  0.00  0.00    +0.054 C 
ATOM      9  C   UNL     1      -7.800 -13.056  19.345  0.00  0.00    +0.018 C 
ATOM     10  C   UNL     1      -8.122 -13.181  16.885  0.00  0.00    +0.130 C 
ATOM     11  C   UNL     1      -9.991 -12.272  18.360  0.00  0.00    +0.114 C 
ATOM     12  C   UNL     1      -8.437 -10.643  19.398  0.00  0.00    +0.119 C 
ATOM     13  C   UNL     1      -6.643 -11.411  17.835  0.00  0.00    +0.027 A 
ATOM     14  C   UNL     1      -5.647 -10.523  17.687  0.00  0.00    +0.022 A 
ATOM     15  C   UNL     1      -6.612 -11.911  15.433  0.00  0.00    +0.259 A 
ATOM     16  C   UNL     1     -10.042  -9.791  17.702  0.00  0.00    +0.306 C 
ATOM     17  C   UNL     1      -5.524 -10.880  15.291  0.00  0.00    +0.047 A 
ATOM     18  C   UNL     1      -5.086 -10.252  16.393  0.00  0.00    +0.015 A 
ATOM     35  H   UNL     1     -11.670 -10.919  17.079  0.00  0.00    +0.156 HD
ENDROOT
BRANCH  17  19
ATOM     19  C   UNL     1      -4.952 -10.551  13.974  0.00  0.00    -0.012 A 
ATOM     20  C   UNL     1      -5.707  -9.836  13.043  0.00  0.00    +0.017 A 
ATOM     22  C   UNL     1      -3.657 -10.951  13.658  0.00  0.00    +0.009 A 
ATOM     23  C   UNL     1      -5.175  -9.514  11.783  0.00  0.00    -0.017 A 
ATOM     24  C   UNL     1      -3.112 -10.640  12.413  0.00  0.00    +0.009 A 
ATOM     25  C   UNL     1      -3.858  -9.922  11.463  0.00  0.00    -0.018 A 
ATOM     28  C   UNL     1      -5.921  -8.796  10.835  0.00  0.00    +0.008 A 
ATOM     29  C   UNL     1      -3.326  -9.600  10.204  0.00  0.00    +0.008 A 
ATOM     32  C   UNL     1      -5.377  -8.485   9.588  0.00  0.00    +0.001 A 
ATOM     33  C   UNL     1      -4.082  -8.886   9.274  0.00  0.00    +0.001 A 
ENDBRANCH  17  19
BRANCH   6  21
ATOM      1  F   UNL     1     -10.467  -9.172  12.178  0.00  0.00    -0.205 F 
ATOM     21  C   UNL     1     -11.473  -9.444  15.659  0.00  0.00    +0.037 A 
ATOM     26  C   UNL     1     -10.765  -9.649  14.479  0.00  0.00    +0.061 A 
ATOM     27  C   UNL     1     -12.559  -8.574  15.688  0.00  0.00    +0.023 A 
ATOM     30  C   UNL     1     -11.146  -8.979  13.317  0.00  0.00    +0.125 A 
ATOM     31  C   UNL     1     -12.941  -7.902  14.526  0.00  0.00    +0.005 A 
ATOM     34  C   UNL     1     -12.234  -8.105  13.341  0.00  0.00    +0.038 A 
ENDBRANCH   6  21
TORSDOF 2
ENDMDL
MODEL 10
REMARK VINA RESULT:      -7.5     24.550     26.514
REMARK  Name = 11885154
REMARK  2 active torsions:
REMARK  status: ('A' for Active; 'I' for Inactive)
REMARK    1  A    between atoms: N_6  and  C_21
REMARK    2  A    between atoms: C_17  and  C_19
REMARK                            x       y       z     vdW  Elec       q    Type
REMARK                         _______ _______ _______ _____ _____    ______ ____
ROOT
ATOM      2  O   UNL     1      -6.175 -12.286  10.858  0.00  0.00    -0.267 OA
ATOM      3  O   UNL     1      -3.641 -10.165  15.617  0.00  0.00    -0.252 OA
ATOM      4  N   UNL     1      -4.107 -12.503  11.914  0.00  0.00    -0.311 N 
ATOM      5  N   UNL     1      -3.369 -12.384  15.019  0.00  0.00    -0.284 N 
ATOM      6  N   UNL     1      -5.347 -11.665  16.085  0.00  0.00    -0.269 N 
ATOM      7  C   UNL     1      -3.589 -14.402  13.550  0.00  0.00    +0.027 C 
ATOM      8  C   UNL     1      -1.872 -12.715  13.057  0.00  0.00    +0.054 C 
ATOM      9  C   UNL     1      -2.146 -14.217  13.100  0.00  0.00    +0.018 C 
ATOM     10  C   UNL     1      -4.516 -13.791  12.491  0.00  0.00    +0.130 C 
ATOM     11  C   UNL     1      -3.820 -13.782  14.942  0.00  0.00    +0.114 C 
ATOM     12  C   UNL     1      -2.029 -12.134  14.473  0.00  0.00    +0.119 C 
ATOM     13  C   UNL     1      -2.815 -12.007  12.102  0.00  0.00    +0.027 A 
ATOM     14  C   UNL     1      -2.423 -10.891  11.468  0.00  0.00    +0.022 A 
ATOM     15  C   UNL     1      -5.040 -11.859  11.079  0.00  0.00    +0.259 A 
ATOM     16  C   UNL     1      -4.098 -11.310  15.575  0.00  0.00    +0.306 C 
ATOM     17  C   UNL     1      -4.586 -10.587  10.413  0.00  0.00    +0.047 A 
ATOM     18  C   UNL     1      -3.327 -10.170  10.616  0.00  0.00    +0.015 A 
ATOM     35  H   UNL     1      -5.477 -12.614  16.419  0.00  0.00    +0.156 HD
ENDROOT
BRANCH  17  19
ATOM     19  C   UNL     1      -5.497  -9.803   9.563  0.00  0.00    -0.012 A 
ATOM     20  C   UNL     1      -5.531 -10.022   8.185  0.00  0.00    +0.017 A 
ATOM     22  C   UNL     1      -6.328  -8.843  10.134  0.00  0.00    +0.009 A 
ATOM     23  C   UNL     1      -6.395  -9.283   7.361  0.00  0.00    -0.017 A 
ATOM     24  C   UNL     1      -7.193  -8.098   9.332  0.00  0.00    +0.009 A 
ATOM     25  C   UNL     1      -7.239  -8.306   7.942  0.00  0.00    -0.018 A 
ATOM     28  C   UNL     1      -6.441  -9.491   5.973  0.00  0.00    +0.008 A 
ATOM     29  C   UNL     1      -8.103  -7.567   7.119  0.00  0.00    +0.008 A 
ATOM     32  C   UNL     1      -7.306  -8.746   5.170  0.00  0.00    +0.001 A 
ATOM     33  C   UNL     1      -8.135  -7.787   5.741  0.00  0.00    +0.001 A 
ENDBRANCH  17  19
BRANCH   6  21
ATOM      1  F   UNL     1      -9.241  -9.530  14.266  0.00  0.00    -0.205 F 
ATOM     21  C   UNL     1      -6.478 -10.826  16.240  0.00  0.00    +0.037 A 
ATOM     26  C   UNL     1      -7.317 -10.589  15.155  0.00  0.00    +0.061 A 
ATOM     27  C   UNL     1      -6.743 -10.245  17.476  0.00  0.00    +0.023 A 
ATOM     30  C   UNL     1      -8.431  -9.763  15.308  0.00  0.00    +0.125 A 
ATOM     31  C   UNL     1      -7.857  -9.418  17.630  0.00  0.00    +0.005 A 
ATOM     34  C   UNL     1      -8.700  -9.177  16.545  0.00  0.00    +0.038 A 
ENDBRANCH   6  21
TORSDOF 2
ENDMDL
