MODEL 1
REMARK VINA RESULT:      -7.5      0.000      0.000
REMARK  Name = 51137543
REMARK  8 active torsions:
REMARK  status: ('A' for Active; 'I' for Inactive)
REMARK    1  A    between atoms: N_5  and  C_13
REMARK    2  A    between atoms: N_8  and  C_26
REMARK    3  A    between atoms: N_8  and  C_29
REMARK    4  A    between atoms: N_8  and  C_30
REMARK    5  A    between atoms: C_9  and  C_14
REMARK    6  A    between atoms: C_13  and  C_15
REMARK    7  A    between atoms: C_18  and  C_21
REMARK    8  A    between atoms: C_22  and  C_25
REMARK                            x       y       z     vdW  Elec       q    Type
REMARK                         _______ _______ _______ _____ _____    ______ ____
ROOT
ATOM      5  N   UNL     1      12.589   8.426  19.437  0.00  0.00    -0.297 NA
ATOM      9  C   UNL     1      14.817   8.014  18.831  0.00  0.00    +0.092 C 
ATOM     10  C   UNL     1      13.906   7.813  17.608  0.00  0.00    +0.029 C 
ATOM     11  C   UNL     1      13.862   8.012  20.032  0.00  0.00    +0.097 C 
ATOM     12  C   UNL     1      12.501   7.681  18.180  0.00  0.00    +0.085 C 
ENDROOT
BRANCH   9  14
ATOM      4  O   UNL     1      16.876   7.250  19.915  0.00  0.00    -0.420 OA
ATOM      6  N   UNL     1      16.144   5.897  18.290  0.00  0.00    -0.112 NA
ATOM      7  N   UNL     1      17.301   5.351  18.811  0.00  0.00    -0.107 NA
ATOM     14  C   UNL     1      15.933   7.003  18.964  0.00  0.00    +0.222 A 
ATOM     18  C   UNL     1      17.694   6.174  19.756  0.00  0.00    +0.248 A 
BRANCH  18  21
ATOM     21  C   UNL     1      18.829   6.113  20.630  0.00  0.00    +0.039 A 
ATOM     23  C   UNL     1      18.870   6.905  21.777  0.00  0.00    +0.015 A 
ATOM     24  C   UNL     1      19.894   5.262  20.331  0.00  0.00    +0.015 A 
ATOM     26  C   UNL     1      21.038   5.995  22.329  0.00  0.00    +0.029 A 
ATOM     27  C   UNL     1      19.975   6.846  22.626  0.00  0.00    +0.024 A 
ATOM     28  C   UNL     1      20.999   5.202  21.182  0.00  0.00    +0.024 A 
BRANCH  26   8
ATOM      8  N   UNL     1      22.155   5.937  23.188  0.00  0.00    -0.336 N 
ATOM     29  C   UNL     1      22.055   6.406  24.556  0.00  0.00    +0.129 C 
ATOM     30  C   UNL     1      23.416   5.398  22.717  0.00  0.00    +0.129 C 
ENDBRANCH  26   8
ENDBRANCH  18  21
ENDBRANCH   9  14
BRANCH   5  13
ATOM     13  C   UNL     1      11.456   8.171  20.314  0.00  0.00    +0.119 C 
BRANCH  13  15
ATOM     15  C   UNL     1      11.312   9.235  21.368  0.00  0.00    -0.033 A 
ATOM     16  C   UNL     1      11.576  10.569  21.053  0.00  0.00    +0.005 A 
ATOM     17  C   UNL     1      10.915   8.889  22.660  0.00  0.00    +0.005 A 
ATOM     19  C   UNL     1      11.442  11.555  22.031  0.00  0.00    +0.012 A 
ATOM     20  C   UNL     1      10.780   9.876  23.637  0.00  0.00    +0.012 A 
ATOM     22  C   UNL     1      11.045  11.208  23.322  0.00  0.00    +0.055 A 
BRANCH  22  25
ATOM      1  F   UNL     1      11.978  13.095  24.459  0.00  0.00    -0.166 F 
ATOM      2  F   UNL     1      10.722  11.747  25.615  0.00  0.00    -0.166 F 
ATOM      3  F   UNL     1       9.830  13.092  24.158  0.00  0.00    -0.166 F 
ATOM     25  C   UNL     1      10.898  12.265  24.365  0.00  0.00    +0.417 C 
ENDBRANCH  22  25
ENDBRANCH  13  15
ENDBRANCH   5  13
TORSDOF 6
ENDMDL
MODEL 2
REMARK VINA RESULT:      -7.4     28.134     31.352
REMARK  Name = 51137543
REMARK  8 active torsions:
REMARK  status: ('A' for Active; 'I' for Inactive)
REMARK    1  A    between atoms: N_5  and  C_13
REMARK    2  A    between atoms: N_8  and  C_26
REMARK    3  A    between atoms: N_8  and  C_29
REMARK    4  A    between atoms: N_8  and  C_30
REMARK    5  A    between atoms: C_9  and  C_14
REMARK    6  A    between atoms: C_13  and  C_15
REMARK    7  A    between atoms: C_18  and  C_21
REMARK    8  A    between atoms: C_22  and  C_25
REMARK                            x       y       z     vdW  Elec       q    Type
REMARK                         _______ _______ _______ _____ _____    ______ ____
ROOT
ATOM      5  N   UNL     1     -15.553   5.253  22.580  0.00  0.00    -0.297 NA
ATOM      9  C   UNL     1     -16.301   3.245  23.533  0.00  0.00    +0.092 C 
ATOM     10  C   UNL     1     -17.447   3.895  22.740  0.00  0.00    +0.029 C 
ATOM     11  C   UNL     1     -15.266   4.364  23.708  0.00  0.00    +0.097 C 
ATOM     12  C   UNL     1     -17.014   5.341  22.534  0.00  0.00    +0.085 C 
ENDROOT
BRANCH   9  14
ATOM      4  O   UNL     1     -15.933   2.879  25.926  0.00  0.00    -0.420 OA
ATOM      6  N   UNL     1     -17.734   1.833  25.111  0.00  0.00    -0.112 NA
ATOM      7  N   UNL     1     -17.647   1.543  26.459  0.00  0.00    -0.107 NA
ATOM     14  C   UNL     1     -16.715   2.615  24.844  0.00  0.00    +0.222 A 
ATOM     18  C   UNL     1     -16.581   2.174  26.894  0.00  0.00    +0.248 A 
BRANCH  18  21
ATOM     21  C   UNL     1     -16.006   2.234  28.206  0.00  0.00    +0.039 A 
ATOM     23  C   UNL     1     -15.900   1.076  28.976  0.00  0.00    +0.015 A 
ATOM     24  C   UNL     1     -15.552   3.452  28.713  0.00  0.00    +0.015 A 
ATOM     26  C   UNL     1     -14.886   2.352  30.759  0.00  0.00    +0.029 A 
ATOM     27  C   UNL     1     -15.340   1.136  30.252  0.00  0.00    +0.024 A 
ATOM     28  C   UNL     1     -14.991   3.511  29.990  0.00  0.00    +0.024 A 
BRANCH  26   8
ATOM      8  N   UNL     1     -14.322   2.412  32.049  0.00  0.00    -0.336 N 
ATOM     29  C   UNL     1     -13.125   3.194  32.292  0.00  0.00    +0.129 C 
ATOM     30  C   UNL     1     -14.936   1.701  33.154  0.00  0.00    +0.129 C 
ENDBRANCH  26   8
ENDBRANCH  18  21
ENDBRANCH   9  14
BRANCH   5  13
ATOM     13  C   UNL     1     -14.924   6.557  22.727  0.00  0.00    +0.119 C 
BRANCH  13  15
ATOM     15  C   UNL     1     -13.993   6.862  21.584  0.00  0.00    -0.033 A 
ATOM     16  C   UNL     1     -14.406   7.708  20.555  0.00  0.00    +0.005 A 
ATOM     17  C   UNL     1     -12.716   6.299  21.555  0.00  0.00    +0.005 A 
ATOM     19  C   UNL     1     -13.543   7.991  19.496  0.00  0.00    +0.012 A 
ATOM     20  C   UNL     1     -11.853   6.583  20.496  0.00  0.00    +0.012 A 
ATOM     22  C   UNL     1     -12.267   7.428  19.467  0.00  0.00    +0.055 A 
BRANCH  22  25
ATOM      1  F   UNL     1     -10.533   6.691  17.993  0.00  0.00    -0.166 F 
ATOM      2  F   UNL     1     -10.504   8.775  18.611  0.00  0.00    -0.166 F 
ATOM      3  F   UNL     1     -11.988   8.080  17.183  0.00  0.00    -0.166 F 
ATOM     25  C   UNL     1     -11.344   7.735  18.337  0.00  0.00    +0.417 C 
ENDBRANCH  22  25
ENDBRANCH  13  15
ENDBRANCH   5  13
TORSDOF 6
ENDMDL
MODEL 3
REMARK VINA RESULT:      -7.1     28.015     29.722
REMARK  Name = 51137543
REMARK  8 active torsions:
REMARK  status: ('A' for Active; 'I' for Inactive)
REMARK    1  A    between atoms: N_5  and  C_13
REMARK    2  A    between atoms: N_8  and  C_26
REMARK    3  A    between atoms: N_8  and  C_29
REMARK    4  A    between atoms: N_8  and  C_30
REMARK    5  A    between atoms: C_9  and  C_14
REMARK    6  A    between atoms: C_13  and  C_15
REMARK    7  A    between atoms: C_18  and  C_21
REMARK    8  A    between atoms: C_22  and  C_25
REMARK                            x       y       z     vdW  Elec       q    Type
REMARK                         _______ _______ _______ _____ _____    ______ ____
ROOT
ATOM      5  N   UNL     1      -6.726  -8.641   8.736  0.00  0.00    -0.297 NA
ATOM      9  C   UNL     1      -4.783  -8.899  10.023  0.00  0.00    +0.092 C 
ATOM     10  C   UNL     1      -4.491  -9.298   8.566  0.00  0.00    +0.029 C 
ATOM     11  C   UNL     1      -6.314  -8.878  10.121  0.00  0.00    +0.097 C 
ATOM     12  C   UNL     1      -5.861  -9.506   7.932  0.00  0.00    +0.085 C 
ENDROOT
BRANCH   9  14
ATOM      4  O   UNL     1      -4.616  -9.688  12.335  0.00  0.00    -0.420 OA
ATOM      6  N   UNL     1      -3.164 -10.655  10.935  0.00  0.00    -0.112 NA
ATOM      7  N   UNL     1      -2.962 -11.188  12.193  0.00  0.00    -0.107 NA
ATOM     14  C   UNL     1      -4.138  -9.785  11.064  0.00  0.00    +0.222 A 
ATOM     18  C   UNL     1      -3.831 -10.595  12.979  0.00  0.00    +0.248 A 
BRANCH  18  21
ATOM     21  C   UNL     1      -4.075 -10.753  14.383  0.00  0.00    +0.039 A 
ATOM     23  C   UNL     1      -5.384 -10.777  14.865  0.00  0.00    +0.015 A 
ATOM     24  C   UNL     1      -3.004 -10.882  15.267  0.00  0.00    +0.015 A 
ATOM     26  C   UNL     1      -4.551 -11.061  17.115  0.00  0.00    +0.029 A 
ATOM     27  C   UNL     1      -5.621 -10.930  16.231  0.00  0.00    +0.024 A 
ATOM     28  C   UNL     1      -3.241 -11.037  16.633  0.00  0.00    +0.024 A 
BRANCH  26   8
ATOM      8  N   UNL     1      -4.791 -11.214  18.495  0.00  0.00    -0.336 N 
ATOM     29  C   UNL     1      -3.895 -12.009  19.312  0.00  0.00    +0.129 C 
ATOM     30  C   UNL     1      -5.931 -10.572  19.119  0.00  0.00    +0.129 C 
ENDBRANCH  26   8
ENDBRANCH  18  21
ENDBRANCH   9  14
BRANCH   5  13
ATOM     13  C   UNL     1      -8.139  -8.917   8.521  0.00  0.00    +0.119 C 
BRANCH  13  15
ATOM     15  C   UNL     1      -8.989  -7.695   8.742  0.00  0.00    -0.033 A 
ATOM     16  C   UNL     1     -10.210  -7.807   9.409  0.00  0.00    +0.005 A 
ATOM     17  C   UNL     1      -8.557  -6.451   8.282  0.00  0.00    +0.005 A 
ATOM     19  C   UNL     1     -10.998  -6.674   9.615  0.00  0.00    +0.012 A 
ATOM     20  C   UNL     1      -9.346  -5.319   8.488  0.00  0.00    +0.012 A 
ATOM     22  C   UNL     1     -10.566  -5.431   9.153  0.00  0.00    +0.055 A 
BRANCH  22  25
ATOM      1  F   UNL     1     -11.914  -4.132  10.643  0.00  0.00    -0.166 F 
ATOM      2  F   UNL     1     -12.488  -4.170   8.546  0.00  0.00    -0.166 F 
ATOM      3  F   UNL     1     -10.738  -3.046   9.179  0.00  0.00    -0.166 F 
ATOM     25  C   UNL     1     -11.407  -4.220   9.377  0.00  0.00    +0.417 C 
ENDBRANCH  22  25
ENDBRANCH  13  15
ENDBRANCH   5  13
TORSDOF 6
ENDMDL
MODEL 4
REMARK VINA RESULT:      -7.0     27.044     30.320
REMARK  Name = 51137543
REMARK  8 active torsions:
REMARK  status: ('A' for Active; 'I' for Inactive)
REMARK    1  A    between atoms: N_5  and  C_13
REMARK    2  A    between atoms: N_8  and  C_26
REMARK    3  A    between atoms: N_8  and  C_29
REMARK    4  A    between atoms: N_8  and  C_30
REMARK    5  A    between atoms: C_9  and  C_14
REMARK    6  A    between atoms: C_13  and  C_15
REMARK    7  A    between atoms: C_18  and  C_21
REMARK    8  A    between atoms: C_22  and  C_25
REMARK                            x       y       z     vdW  Elec       q    Type
REMARK                         _______ _______ _______ _____ _____    ______ ____
ROOT
ATOM      5  N   UNL     1      -2.139 -10.925  14.009  0.00  0.00    -0.297 NA
ATOM      9  C   UNL     1      -3.191 -10.292  16.007  0.00  0.00    +0.092 C 
ATOM     10  C   UNL     1      -1.728 -10.671  16.294  0.00  0.00    +0.029 C 
ATOM     11  C   UNL     1      -3.473 -10.861  14.610  0.00  0.00    +0.097 C 
ATOM     12  C   UNL     1      -1.274 -11.451  15.066  0.00  0.00    +0.085 C 
ENDROOT
BRANCH   9  14
ATOM      4  O   UNL     1      -5.451 -10.274  16.951  0.00  0.00    -0.420 OA
ATOM      6  N   UNL     1      -4.014 -11.589  18.051  0.00  0.00    -0.112 NA
ATOM      7  N   UNL     1      -5.239 -11.672  18.684  0.00  0.00    -0.107 NA
ATOM     14  C   UNL     1      -4.184 -10.763  17.046  0.00  0.00    +0.222 A 
ATOM     18  C   UNL     1      -6.047 -10.889  18.009  0.00  0.00    +0.248 A 
BRANCH  18  21
ATOM     21  C   UNL     1      -7.435 -10.588  18.210  0.00  0.00    +0.039 A 
ATOM     23  C   UNL     1      -8.063  -9.630  17.415  0.00  0.00    +0.015 A 
ATOM     24  C   UNL     1      -8.156 -11.255  19.201  0.00  0.00    +0.015 A 
ATOM     26  C   UNL     1     -10.135 -10.004  18.601  0.00  0.00    +0.029 A 
ATOM     27  C   UNL     1      -9.413  -9.338  17.611  0.00  0.00    +0.024 A 
ATOM     28  C   UNL     1      -9.507 -10.963  19.396  0.00  0.00    +0.024 A 
BRANCH  26   8
ATOM      8  N   UNL     1     -11.498  -9.708  18.799  0.00  0.00    -0.336 N 
ATOM     29  C   UNL     1     -12.117  -9.925  20.093  0.00  0.00    +0.129 C 
ATOM     30  C   UNL     1     -12.299  -9.172  17.716  0.00  0.00    +0.129 C 
ENDBRANCH  26   8
ENDBRANCH  18  21
ENDBRANCH   9  14
BRANCH   5  13
ATOM     13  C   UNL     1      -2.108 -11.747  12.809  0.00  0.00    +0.119 C 
BRANCH  13  15
ATOM     15  C   UNL     1      -2.973 -11.177  11.716  0.00  0.00    -0.033 A 
ATOM     16  C   UNL     1      -4.063 -11.906  11.238  0.00  0.00    +0.005 A 
ATOM     17  C   UNL     1      -2.687  -9.920  11.183  0.00  0.00    +0.005 A 
ATOM     19  C   UNL     1      -4.865 -11.377  10.226  0.00  0.00    +0.012 A 
ATOM     20  C   UNL     1      -3.489  -9.392  10.172  0.00  0.00    +0.012 A 
ATOM     22  C   UNL     1      -4.577 -10.121   9.693  0.00  0.00    +0.055 A 
BRANCH  22  25
ATOM      1  F   UNL     1      -6.620 -10.220   8.452  0.00  0.00    -0.166 F 
ATOM      2  F   UNL     1      -4.833  -9.582   7.391  0.00  0.00    -0.166 F 
ATOM      3  F   UNL     1      -5.787  -8.251   8.821  0.00  0.00    -0.166 F 
ATOM     25  C   UNL     1      -5.438  -9.556   8.614  0.00  0.00    +0.417 C 
ENDBRANCH  22  25
ENDBRANCH  13  15
ENDBRANCH   5  13
TORSDOF 6
ENDMDL
MODEL 5
REMARK VINA RESULT:      -6.9     27.753     30.402
REMARK  Name = 51137543
REMARK  8 active torsions:
REMARK  status: ('A' for Active; 'I' for Inactive)
REMARK    1  A    between atoms: N_5  and  C_13
REMARK    2  A    between atoms: N_8  and  C_26
REMARK    3  A    between atoms: N_8  and  C_29
REMARK    4  A    between atoms: N_8  and  C_30
REMARK    5  A    between atoms: C_9  and  C_14
REMARK    6  A    between atoms: C_13  and  C_15
REMARK    7  A    between atoms: C_18  and  C_21
REMARK    8  A    between atoms: C_22  and  C_25
REMARK                            x       y       z     vdW  Elec       q    Type
REMARK                         _______ _______ _______ _____ _____    ______ ____
ROOT
ATOM      5  N   UNL     1     -12.313  -7.273  14.727  0.00  0.00    -0.297 NA
ATOM      9  C   UNL     1     -10.688  -8.861  15.307  0.00  0.00    +0.092 C 
ATOM     10  C   UNL     1     -12.003  -9.180  16.039  0.00  0.00    +0.029 C 
ATOM     11  C   UNL     1     -10.858  -7.418  14.814  0.00  0.00    +0.097 C 
ATOM     12  C   UNL     1     -12.827  -7.903  15.944  0.00  0.00    +0.085 C 
ENDROOT
BRANCH   9  14
ATOM      4  O   UNL     1      -8.327  -9.489  15.478  0.00  0.00    -0.420 OA
ATOM      6  N   UNL     1      -9.249  -8.873  17.421  0.00  0.00    -0.112 NA
ATOM      7  N   UNL     1      -7.928  -9.197  17.660  0.00  0.00    -0.107 NA
ATOM     14  C   UNL     1      -9.438  -9.057  16.135  0.00  0.00    +0.222 A 
ATOM     18  C   UNL     1      -7.428  -9.552  16.499  0.00  0.00    +0.248 A 
BRANCH  18  21
ATOM     21  C   UNL     1      -6.107  -9.985  16.147  0.00  0.00    +0.039 A 
ATOM     23  C   UNL     1      -5.167 -10.240  17.145  0.00  0.00    +0.015 A 
ATOM     24  C   UNL     1      -5.763 -10.151  14.805  0.00  0.00    +0.015 A 
ATOM     26  C   UNL     1      -3.538 -10.828  15.461  0.00  0.00    +0.029 A 
ATOM     27  C   UNL     1      -3.882 -10.661  16.802  0.00  0.00    +0.024 A 
ATOM     28  C   UNL     1      -4.478 -10.573  14.462  0.00  0.00    +0.024 A 
BRANCH  26   8
ATOM      8  N   UNL     1      -2.239 -11.253  15.114  0.00  0.00    -0.336 N 
ATOM     29  C   UNL     1      -2.048 -12.334  14.168  0.00  0.00    +0.129 C 
ATOM     30  C   UNL     1      -1.076 -10.607  15.692  0.00  0.00    +0.129 C 
ENDBRANCH  26   8
ENDBRANCH  18  21
ENDBRANCH   9  14
BRANCH   5  13
ATOM     13  C   UNL     1     -12.726  -5.883  14.605  0.00  0.00    +0.119 C 
BRANCH  13  15
ATOM     15  C   UNL     1     -12.523  -5.358  13.209  0.00  0.00    -0.033 A 
ATOM     16  C   UNL     1     -12.306  -3.995  13.001  0.00  0.00    +0.005 A 
ATOM     17  C   UNL     1     -12.552  -6.233  12.122  0.00  0.00    +0.005 A 
ATOM     19  C   UNL     1     -12.117  -3.509  11.707  0.00  0.00    +0.012 A 
ATOM     20  C   UNL     1     -12.363  -5.746  10.829  0.00  0.00    +0.012 A 
ATOM     22  C   UNL     1     -12.147  -4.384  10.622  0.00  0.00    +0.055 A 
BRANCH  22  25
ATOM      1  F   UNL     1     -11.024  -2.853   9.166  0.00  0.00    -0.166 F 
ATOM      2  F   UNL     1     -13.086  -3.359   8.693  0.00  0.00    -0.166 F 
ATOM      3  F   UNL     1     -11.501  -4.810   8.359  0.00  0.00    -0.166 F 
ATOM     25  C   UNL     1     -11.941  -3.863   9.240  0.00  0.00    +0.417 C 
ENDBRANCH  22  25
ENDBRANCH  13  15
ENDBRANCH   5  13
TORSDOF 6
ENDMDL
MODEL 6
REMARK VINA RESULT:      -6.9     27.421     31.249
REMARK  Name = 51137543
REMARK  8 active torsions:
REMARK  status: ('A' for Active; 'I' for Inactive)
REMARK    1  A    between atoms: N_5  and  C_13
REMARK    2  A    between atoms: N_8  and  C_26
REMARK    3  A    between atoms: N_8  and  C_29
REMARK    4  A    between atoms: N_8  and  C_30
REMARK    5  A    between atoms: C_9  and  C_14
REMARK    6  A    between atoms: C_13  and  C_15
REMARK    7  A    between atoms: C_18  and  C_21
REMARK    8  A    between atoms: C_22  and  C_25
REMARK                            x       y       z     vdW  Elec       q    Type
REMARK                         _______ _______ _______ _____ _____    ______ ____
ROOT
ATOM      5  N   UNL     1      -5.003  -9.609   9.210  0.00  0.00    -0.297 NA
ATOM      9  C   UNL     1      -7.232  -9.032   8.767  0.00  0.00    +0.092 C 
ATOM     10  C   UNL     1      -6.713  -9.965   7.660  0.00  0.00    +0.029 C 
ATOM     11  C   UNL     1      -5.968  -8.543   9.487  0.00  0.00    +0.097 C 
ATOM     12  C   UNL     1      -5.196  -9.933   7.796  0.00  0.00    +0.085 C 
ENDROOT
BRANCH   9  14
ATOM      4  O   UNL     1      -9.017  -7.403   9.167  0.00  0.00    -0.420 OA
ATOM      6  N   UNL     1      -8.135  -7.304   7.113  0.00  0.00    -0.112 NA
ATOM      7  N   UNL     1      -9.120  -6.339   7.201  0.00  0.00    -0.107 NA
ATOM     14  C   UNL     1      -8.109  -7.899   8.282  0.00  0.00    +0.222 A 
ATOM     18  C   UNL     1      -9.608  -6.433   8.416  0.00  0.00    +0.248 A 
BRANCH  18  21
ATOM     21  C   UNL     1     -10.648  -5.686   9.062  0.00  0.00    +0.039 A 
ATOM     23  C   UNL     1     -11.713  -6.352   9.669  0.00  0.00    +0.015 A 
ATOM     24  C   UNL     1     -10.593  -4.292   9.084  0.00  0.00    +0.015 A 
ATOM     26  C   UNL     1     -12.668  -4.231  10.320  0.00  0.00    +0.029 A 
ATOM     27  C   UNL     1     -12.723  -5.624  10.297  0.00  0.00    +0.024 A 
ATOM     28  C   UNL     1     -11.603  -3.564   9.714  0.00  0.00    +0.024 A 
BRANCH  26   8
ATOM      8  N   UNL     1     -13.691  -3.495  10.954  0.00  0.00    -0.336 N 
ATOM     29  C   UNL     1     -14.663  -2.761  10.168  0.00  0.00    +0.129 C 
ATOM     30  C   UNL     1     -13.790  -3.472  12.400  0.00  0.00    +0.129 C 
ENDBRANCH  26   8
ENDBRANCH  18  21
ENDBRANCH   9  14
BRANCH   5  13
ATOM     13  C   UNL     1      -3.635  -9.209   9.504  0.00  0.00    +0.119 C 
BRANCH  13  15
ATOM     15  C   UNL     1      -3.197  -9.671  10.869  0.00  0.00    -0.033 A 
ATOM     16  C   UNL     1      -4.141 -10.144  11.780  0.00  0.00    +0.005 A 
ATOM     17  C   UNL     1      -1.848  -9.627  11.221  0.00  0.00    +0.005 A 
ATOM     19  C   UNL     1      -3.735 -10.573  13.044  0.00  0.00    +0.012 A 
ATOM     20  C   UNL     1      -1.443 -10.056  12.485  0.00  0.00    +0.012 A 
ATOM     22  C   UNL     1      -2.387 -10.528  13.396  0.00  0.00    +0.055 A 
BRANCH  22  25
ATOM      1  F   UNL     1      -2.932 -10.902  15.696  0.00  0.00    -0.166 F 
ATOM      2  F   UNL     1      -0.903 -10.270  15.237  0.00  0.00    -0.166 F 
ATOM      3  F   UNL     1      -1.547 -12.294  14.774  0.00  0.00    -0.166 F 
ATOM     25  C   UNL     1      -1.953 -10.990  14.747  0.00  0.00    +0.417 C 
ENDBRANCH  22  25
ENDBRANCH  13  15
ENDBRANCH   5  13
TORSDOF 6
ENDMDL
MODEL 7
REMARK VINA RESULT:      -6.8     27.834     30.947
REMARK  Name = 51137543
REMARK  8 active torsions:
REMARK  status: ('A' for Active; 'I' for Inactive)
REMARK    1  A    between atoms: N_5  and  C_13
REMARK    2  A    between atoms: N_8  and  C_26
REMARK    3  A    between atoms: N_8  and  C_29
REMARK    4  A    between atoms: N_8  and  C_30
REMARK    5  A    between atoms: C_9  and  C_14
REMARK    6  A    between atoms: C_13  and  C_15
REMARK    7  A    between atoms: C_18  and  C_21
REMARK    8  A    between atoms: C_22  and  C_25
REMARK                            x       y       z     vdW  Elec       q    Type
REMARK                         _______ _______ _______ _____ _____    ______ ____
ROOT
ATOM      5  N   UNL     1      -4.270 -11.755  16.656  0.00  0.00    -0.297 NA
ATOM      9  C   UNL     1      -5.823 -10.480  17.866  0.00  0.00    +0.092 C 
ATOM     10  C   UNL     1      -5.121 -11.469  18.812  0.00  0.00    +0.029 C 
ATOM     11  C   UNL     1      -5.510 -11.002  16.457  0.00  0.00    +0.097 C 
ATOM     12  C   UNL     1      -4.479 -12.504  17.896  0.00  0.00    +0.085 C 
ENDROOT
BRANCH   9  14
ATOM      4  O   UNL     1      -7.969  -9.452  17.289  0.00  0.00    -0.420 OA
ATOM      6  N   UNL     1      -8.070 -10.860  19.024  0.00  0.00    -0.112 NA
ATOM      7  N   UNL     1      -9.338 -10.357  18.810  0.00  0.00    -0.107 NA
ATOM     14  C   UNL     1      -7.304 -10.306  18.114  0.00  0.00    +0.222 A 
ATOM     18  C   UNL     1      -9.233  -9.539  17.789  0.00  0.00    +0.248 A 
BRANCH  18  21
ATOM     21  C   UNL     1     -10.224  -8.740  17.130  0.00  0.00    +0.039 A 
ATOM     23  C   UNL     1      -9.837  -7.654  16.345  0.00  0.00    +0.015 A 
ATOM     24  C   UNL     1     -11.577  -9.049  17.275  0.00  0.00    +0.015 A 
ATOM     26  C   UNL     1     -12.155  -7.186  15.849  0.00  0.00    +0.029 A 
ATOM     27  C   UNL     1     -10.803  -6.877  15.705  0.00  0.00    +0.024 A 
ATOM     28  C   UNL     1     -12.543  -8.272  16.634  0.00  0.00    +0.024 A 
BRANCH  26   8
ATOM      8  N   UNL     1     -13.130  -6.399  15.203  0.00  0.00    -0.336 N 
ATOM     29  C   UNL     1     -12.736  -5.326  14.311  0.00  0.00    +0.129 C 
ATOM     30  C   UNL     1     -14.541  -6.659  15.413  0.00  0.00    +0.129 C 
ENDBRANCH  26   8
ENDBRANCH  18  21
ENDBRANCH   9  14
BRANCH   5  13
ATOM     13  C   UNL     1      -3.961 -12.623  15.530  0.00  0.00    +0.119 C 
BRANCH  13  15
ATOM     15  C   UNL     1      -3.745 -11.842  14.261  0.00  0.00    -0.033 A 
ATOM     16  C   UNL     1      -4.684 -11.911  13.232  0.00  0.00    +0.005 A 
ATOM     17  C   UNL     1      -2.607 -11.048  14.115  0.00  0.00    +0.005 A 
ATOM     19  C   UNL     1      -4.485 -11.187  12.056  0.00  0.00    +0.012 A 
ATOM     20  C   UNL     1      -2.409 -10.323  12.940  0.00  0.00    +0.012 A 
ATOM     22  C   UNL     1      -3.347 -10.394  11.911  0.00  0.00    +0.055 A 
BRANCH  22  25
ATOM      1  F   UNL     1      -3.938  -8.515  10.553  0.00  0.00    -0.166 F 
ATOM      2  F   UNL     1      -3.383 -10.353   9.534  0.00  0.00    -0.166 F 
ATOM      3  F   UNL     1      -1.863  -9.146  10.511  0.00  0.00    -0.166 F 
ATOM     25  C   UNL     1      -3.137  -9.616  10.655  0.00  0.00    +0.417 C 
ENDBRANCH  22  25
ENDBRANCH  13  15
ENDBRANCH   5  13
TORSDOF 6
ENDMDL
MODEL 8
REMARK VINA RESULT:      -6.8     17.936     21.696
REMARK  Name = 51137543
REMARK  8 active torsions:
REMARK  status: ('A' for Active; 'I' for Inactive)
REMARK    1  A    between atoms: N_5  and  C_13
REMARK    2  A    between atoms: N_8  and  C_26
REMARK    3  A    between atoms: N_8  and  C_29
REMARK    4  A    between atoms: N_8  and  C_30
REMARK    5  A    between atoms: C_9  and  C_14
REMARK    6  A    between atoms: C_13  and  C_15
REMARK    7  A    between atoms: C_18  and  C_21
REMARK    8  A    between atoms: C_22  and  C_25
REMARK                            x       y       z     vdW  Elec       q    Type
REMARK                         _______ _______ _______ _____ _____    ______ ____
ROOT
ATOM      5  N   UNL     1      11.801   5.861   3.580  0.00  0.00    -0.297 NA
ATOM      9  C   UNL     1      12.540   4.430   1.875  0.00  0.00    +0.092 C 
ATOM     10  C   UNL     1      13.520   5.606   2.020  0.00  0.00    +0.029 C 
ATOM     11  C   UNL     1      11.279   4.881   2.625  0.00  0.00    +0.097 C 
ATOM     12  C   UNL     1      12.758   6.660   2.814  0.00  0.00    +0.085 C 
ENDROOT
BRANCH   9  14
ATOM      4  O   UNL     1      11.175   4.572  -0.154  0.00  0.00    -0.420 OA
ATOM      6  N   UNL     1      12.909   3.168  -0.317  0.00  0.00    -0.112 NA
ATOM      7  N   UNL     1      12.232   3.150  -1.521  0.00  0.00    -0.107 NA
ATOM     14  C   UNL     1      12.258   4.010   0.450  0.00  0.00    +0.222 A 
ATOM     18  C   UNL     1      11.227   3.984  -1.381  0.00  0.00    +0.248 A 
BRANCH  18  21
ATOM     21  C   UNL     1      10.196   4.363  -2.302  0.00  0.00    +0.039 A 
ATOM     23  C   UNL     1      10.018   3.645  -3.485  0.00  0.00    +0.015 A 
ATOM     24  C   UNL     1       9.372   5.452  -2.016  0.00  0.00    +0.015 A 
ATOM     26  C   UNL     1       8.191   5.102  -4.095  0.00  0.00    +0.029 A 
ATOM     27  C   UNL     1       9.015   4.015  -4.381  0.00  0.00    +0.024 A 
ATOM     28  C   UNL     1       8.368   5.821  -2.913  0.00  0.00    +0.024 A 
BRANCH  26   8
ATOM      8  N   UNL     1       7.178   5.477  -5.002  0.00  0.00    -0.336 N 
ATOM     29  C   UNL     1       7.409   5.405  -6.432  0.00  0.00    +0.129 C 
ATOM     30  C   UNL     1       5.889   5.930  -4.518  0.00  0.00    +0.129 C 
ENDBRANCH  26   8
ENDBRANCH  18  21
ENDBRANCH   9  14
BRANCH   5  13
ATOM     13  C   UNL     1      10.750   6.674   4.173  0.00  0.00    +0.119 C 
BRANCH  13  15
ATOM     15  C   UNL     1      10.392   6.206   5.558  0.00  0.00    -0.033 A 
ATOM     16  C   UNL     1      10.018   4.879   5.770  0.00  0.00    +0.005 A 
ATOM     17  C   UNL     1      10.436   7.098   6.629  0.00  0.00    +0.005 A 
ATOM     19  C   UNL     1       9.687   4.445   7.054  0.00  0.00    +0.012 A 
ATOM     20  C   UNL     1      10.105   6.664   7.913  0.00  0.00    +0.012 A 
ATOM     22  C   UNL     1       9.730   5.338   8.124  0.00  0.00    +0.055 A 
BRANCH  22  25
ATOM      1  F   UNL     1       9.015   3.557   9.553  0.00  0.00    -0.166 F 
ATOM      2  F   UNL     1       8.337   5.565  10.038  0.00  0.00    -0.166 F 
ATOM      3  F   UNL     1      10.404   4.995  10.394  0.00  0.00    -0.166 F 
ATOM     25  C   UNL     1       9.380   4.872   9.498  0.00  0.00    +0.417 C 
ENDBRANCH  22  25
ENDBRANCH  13  15
ENDBRANCH   5  13
TORSDOF 6
ENDMDL
MODEL 9
REMARK VINA RESULT:      -6.7     28.299     31.101
REMARK  Name = 51137543
REMARK  8 active torsions:
REMARK  status: ('A' for Active; 'I' for Inactive)
REMARK    1  A    between atoms: N_5  and  C_13
REMARK    2  A    between atoms: N_8  and  C_26
REMARK    3  A    between atoms: N_8  and  C_29
REMARK    4  A    between atoms: N_8  and  C_30
REMARK    5  A    between atoms: C_9  and  C_14
REMARK    6  A    between atoms: C_13  and  C_15
REMARK    7  A    between atoms: C_18  and  C_21
REMARK    8  A    between atoms: C_22  and  C_25
REMARK                            x       y       z     vdW  Elec       q    Type
REMARK                         _______ _______ _______ _____ _____    ______ ____
ROOT
ATOM      5  N   UNL     1     -13.721   7.519  33.740  0.00  0.00    -0.297 NA
ATOM      9  C   UNL     1     -11.945   8.743  32.819  0.00  0.00    +0.092 C 
ATOM     10  C   UNL     1     -12.382   9.389  34.145  0.00  0.00    +0.029 C 
ATOM     11  C   UNL     1     -13.101   7.806  32.444  0.00  0.00    +0.097 C 
ATOM     12  C   UNL     1     -13.761   8.808  34.432  0.00  0.00    +0.085 C 
ENDROOT
BRANCH   9  14
ATOM      4  O   UNL     1     -12.101   9.457  30.482  0.00  0.00    -0.420 OA
ATOM      6  N   UNL     1     -10.874  10.814  31.770  0.00  0.00    -0.112 NA
ATOM      7  N   UNL     1     -10.878  11.331  30.489  0.00  0.00    -0.107 NA
ATOM     14  C   UNL     1     -11.600   9.722  31.720  0.00  0.00    +0.222 A 
ATOM     18  C   UNL     1     -11.605  10.507  29.771  0.00  0.00    +0.248 A 
BRANCH  18  21
ATOM     21  C   UNL     1     -11.952  10.543  28.380  0.00  0.00    +0.039 A 
ATOM     23  C   UNL     1     -13.292  10.530  27.994  0.00  0.00    +0.015 A 
ATOM     24  C   UNL     1     -10.948  10.590  27.412  0.00  0.00    +0.015 A 
ATOM     26  C   UNL     1     -12.625  10.613  25.673  0.00  0.00    +0.029 A 
ATOM     27  C   UNL     1     -13.628  10.565  26.641  0.00  0.00    +0.024 A 
ATOM     28  C   UNL     1     -11.285  10.625  26.058  0.00  0.00    +0.024 A 
BRANCH  26   8
ATOM      8  N   UNL     1     -12.966  10.646  24.306  0.00  0.00    -0.336 N 
ATOM     29  C   UNL     1     -12.123  11.347  23.356  0.00  0.00    +0.129 C 
ATOM     30  C   UNL     1     -14.158   9.972  23.828  0.00  0.00    +0.129 C 
ENDBRANCH  26   8
ENDBRANCH  18  21
ENDBRANCH   9  14
BRANCH   5  13
ATOM     13  C   UNL     1     -15.042   6.923  33.604  0.00  0.00    +0.119 C 
BRANCH  13  15
ATOM     15  C   UNL     1     -14.968   5.502  33.111  0.00  0.00    -0.033 A 
ATOM     16  C   UNL     1     -15.545   5.157  31.889  0.00  0.00    +0.005 A 
ATOM     17  C   UNL     1     -14.321   4.531  33.876  0.00  0.00    +0.005 A 
ATOM     19  C   UNL     1     -15.476   3.841  31.433  0.00  0.00    +0.012 A 
ATOM     20  C   UNL     1     -14.252   3.215  33.419  0.00  0.00    +0.012 A 
ATOM     22  C   UNL     1     -14.830   2.871  32.198  0.00  0.00    +0.055 A 
BRANCH  22  25
ATOM      1  F   UNL     1     -15.694   1.162  30.763  0.00  0.00    -0.166 F 
ATOM      2  F   UNL     1     -14.928   0.549  32.704  0.00  0.00    -0.166 F 
ATOM      3  F   UNL     1     -13.556   1.152  31.129  0.00  0.00    -0.166 F 
ATOM     25  C   UNL     1     -14.754   1.464  31.707  0.00  0.00    +0.417 C 
ENDBRANCH  22  25
ENDBRANCH  13  15
ENDBRANCH   5  13
TORSDOF 6
ENDMDL
MODEL 10
REMARK VINA RESULT:      -6.6     28.221     31.019
REMARK  Name = 51137543
REMARK  8 active torsions:
REMARK  status: ('A' for Active; 'I' for Inactive)
REMARK    1  A    between atoms: N_5  and  C_13
REMARK    2  A    between atoms: N_8  and  C_26
REMARK    3  A    between atoms: N_8  and  C_29
REMARK    4  A    between atoms: N_8  and  C_30
REMARK    5  A    between atoms: C_9  and  C_14
REMARK    6  A    between atoms: C_13  and  C_15
REMARK    7  A    between atoms: C_18  and  C_21
REMARK    8  A    between atoms: C_22  and  C_25
REMARK                            x       y       z     vdW  Elec       q    Type
REMARK                         _______ _______ _______ _____ _____    ______ ____
ROOT
ATOM      5  N   UNL     1     -12.944  -5.856  14.986  0.00  0.00    -0.297 NA
ATOM      9  C   UNL     1     -11.777  -6.862  16.753  0.00  0.00    +0.092 C 
ATOM     10  C   UNL     1     -10.822  -5.959  15.954  0.00  0.00    +0.029 C 
ATOM     11  C   UNL     1     -12.995  -7.046  15.837  0.00  0.00    +0.097 C 
ATOM     12  C   UNL     1     -11.533  -5.706  14.631  0.00  0.00    +0.085 C 
ENDROOT
BRANCH   9  14
ATOM      4  O   UNL     1      -9.822  -8.276  17.170  0.00  0.00    -0.420 OA
ATOM      6  N   UNL     1     -11.775  -9.259  17.643  0.00  0.00    -0.112 NA
ATOM      7  N   UNL     1     -10.766 -10.160  17.922  0.00  0.00    -0.107 NA
ATOM     14  C   UNL     1     -11.179  -8.174  17.207  0.00  0.00    +0.222 A 
ATOM     18  C   UNL     1      -9.643  -9.545  17.631  0.00  0.00    +0.248 A 
BRANCH  18  21
ATOM     21  C   UNL     1      -8.285  -9.994  17.723  0.00  0.00    +0.039 A 
ATOM     23  C   UNL     1      -7.885 -10.794  18.793  0.00  0.00    +0.015 A 
ATOM     24  C   UNL     1      -7.362  -9.630  16.741  0.00  0.00    +0.015 A 
ATOM     26  C   UNL     1      -5.641 -10.868  17.901  0.00  0.00    +0.029 A 
ATOM     27  C   UNL     1      -6.563 -11.230  18.882  0.00  0.00    +0.024 A 
ATOM     28  C   UNL     1      -6.040 -10.067  16.830  0.00  0.00    +0.024 A 
BRANCH  26   8
ATOM      8  N   UNL     1      -4.305 -11.308  17.992  0.00  0.00    -0.336 N 
ATOM     29  C   UNL     1      -3.367 -11.035  16.920  0.00  0.00    +0.129 C 
ATOM     30  C   UNL     1      -3.847 -12.030  19.163  0.00  0.00    +0.129 C 
ENDBRANCH  26   8
ENDBRANCH  18  21
ENDBRANCH   9  14
BRANCH   5  13
ATOM     13  C   UNL     1     -13.800  -5.974  13.814  0.00  0.00    +0.119 C 
BRANCH  13  15
ATOM     15  C   UNL     1     -13.117  -5.479  12.568  0.00  0.00    -0.033 A 
ATOM     16  C   UNL     1     -12.891  -4.113  12.393  0.00  0.00    +0.005 A 
ATOM     17  C   UNL     1     -12.709  -6.385  11.589  0.00  0.00    +0.005 A 
ATOM     19  C   UNL     1     -12.257  -3.655  11.238  0.00  0.00    +0.012 A 
ATOM     20  C   UNL     1     -12.075  -5.926  10.434  0.00  0.00    +0.012 A 
ATOM     22  C   UNL     1     -11.850  -4.561  10.259  0.00  0.00    +0.055 A 
BRANCH  22  25
ATOM      1  F   UNL     1     -11.101  -5.001   8.030  0.00  0.00    -0.166 F 
ATOM      2  F   UNL     1      -9.879  -3.686   9.256  0.00  0.00    -0.166 F 
ATOM      3  F   UNL     1     -11.778  -2.985   8.461  0.00  0.00    -0.166 F 
ATOM     25  C   UNL     1     -11.168  -4.069   9.026  0.00  0.00    +0.417 C 
ENDBRANCH  22  25
ENDBRANCH  13  15
ENDBRANCH   5  13
TORSDOF 6
ENDMDL
