REMARK  Name = 25317565
REMARK  9 active torsions:
REMARK  status: ('A' for Active; 'I' for Inactive)
REMARK    1  A    between atoms: O_3  and  C_11
REMARK    2  A    between atoms: N_6  and  C_9
REMARK    3  A    between atoms: N_6  and  C_15
REMARK    4  A    between atoms: N_6  and  C_16
REMARK    5  A    between atoms: N_7  and  C_10
REMARK    6  A    between atoms: N_7  and  C_17
REMARK    7  A    between atoms: C_15  and  C_18
REMARK    8  A    between atoms: C_17  and  C_19
REMARK    9  A    between atoms: C_18  and  C_20
REMARK                            x       y       z     vdW  Elec       q    Type
REMARK                         _______ _______ _______ _____ _____    ______ ____
ROOT
ATOM      1  O   UNL     1       3.373   1.596  -1.360  0.00  0.00    -0.343 OA
ATOM      2  O   UNL     1       5.125   0.911  -0.003  0.00  0.00    -0.347 OA
ATOM      9  C   UNL     1       3.108  -0.421  -0.060  0.00  0.00    +0.143 C 
ATOM     10  C   UNL     1       2.305   1.895   0.788  0.00  0.00    +0.116 C 
ATOM     11  C   UNL     1       2.511   0.395   1.111  0.00  0.00    +0.156 C 
ATOM     12  C   UNL     1       3.360   2.439  -0.203  0.00  0.00    +0.166 C 
ATOM     13  C   UNL     1       4.083   0.447  -0.877  0.00  0.00    +0.270 C 
ATOM     14  C   UNL     1       4.795   2.282   0.268  0.00  0.00    +0.196 C 
ENDROOT
BRANCH  11   3
ATOM      3  O   UNL     1       3.416   0.287   2.220  0.00  0.00    -0.388 OA
ATOM     32  H   UNL     1       3.011   0.747   2.974  0.00  0.00    +0.210 HD
ENDBRANCH  11   3
BRANCH   9   6
ATOM      6  N   UNL     1       2.047  -0.934  -0.928  0.00  0.00    -0.295 NA
ATOM     16  C   UNL     1       2.586  -1.278  -2.243  0.00  0.00    +0.105 C 
BRANCH   6  15
ATOM     15  C   UNL     1       1.406  -2.097  -0.316  0.00  0.00    +0.091 C 
BRANCH  15  18
ATOM     18  C   UNL     1       0.007  -2.316  -0.891  0.00  0.00    +0.071 C 
BRANCH  18  20
ATOM      8  N   UNL     1      -0.486  -4.700  -0.846  0.00  0.00    -0.260 NA
ATOM     20  C   UNL     1      -0.675  -3.500  -0.253  0.00  0.00    +0.042 A 
ATOM     24  C   UNL     1      -1.443  -3.309   0.884  0.00  0.00    +0.023 A 
ATOM     27  C   UNL     1      -2.057  -4.422   1.449  0.00  0.00    +0.003 A 
ATOM     28  C   UNL     1      -1.099  -5.758  -0.269  0.00  0.00    +0.111 A 
ATOM     30  C   UNL     1      -1.887  -5.673   0.867  0.00  0.00    +0.020 A 
ENDBRANCH  18  20
ENDBRANCH  15  18
ENDBRANCH   6  15
ENDBRANCH   9   6
BRANCH  10   7
ATOM      7  N   UNL     1       0.976   2.120   0.210  0.00  0.00    -0.305 NA
ATOM     31  H   UNL     1       0.785   1.409  -0.496  0.00  0.00    +0.123 HD
BRANCH   7  17
ATOM     17  C   UNL     1      -0.043   2.087   1.245  0.00  0.00    +0.116 C 
BRANCH  17  19
ATOM      4  O   UNL     1      -4.520   0.559  -0.207  0.00  0.00    -0.453 OA
ATOM      5  O   UNL     1      -5.207   2.783  -0.833  0.00  0.00    -0.453 OA
ATOM     19  C   UNL     1      -1.421   2.310   0.682  0.00  0.00    -0.030 A 
ATOM     21  C   UNL     1      -2.291   1.228   0.530  0.00  0.00    +0.054 A 
ATOM     22  C   UNL     1      -1.822   3.607   0.317  0.00  0.00    +0.009 A 
ATOM     23  C   UNL     1      -3.545   1.482   0.013  0.00  0.00    +0.167 A 
ATOM     25  C   UNL     1      -3.097   3.838  -0.205  0.00  0.00    +0.050 A 
ATOM     26  C   UNL     1      -3.937   2.752  -0.345  0.00  0.00    +0.166 A 
ATOM     29  C   UNL     1      -5.571   1.390  -0.743  0.00  0.00    +0.466 C 
ENDBRANCH  17  19
ENDBRANCH   7  17
ENDBRANCH  10   7
TORSDOF 8
