MODEL 1
REMARK VINA RESULT:      -7.6      0.000      0.000
REMARK  Name = 40780323
REMARK  8 active torsions:
REMARK  status: ('A' for Active; 'I' for Inactive)
REMARK    1  A    between atoms: O_4  and  C_22
REMARK    2  A    between atoms: O_4  and  C_34
REMARK    3  A    between atoms: N_8  and  C_13
REMARK    4  A    between atoms: N_8  and  C_23
REMARK    5  A    between atoms: C_11  and  C_19
REMARK    6  A    between atoms: C_15  and  C_22
REMARK    7  A    between atoms: C_23  and  C_31
REMARK    8  A    between atoms: C_33  and  C_36
REMARK                            x       y       z     vdW  Elec       q    Type
REMARK                         _______ _______ _______ _____ _____    ______ ____
ROOT
ATOM      6  N   UNL     1      -2.355  10.527  36.556  0.00  0.00    -0.274 NA
ATOM      7  N   UNL     1      -2.677  13.353  34.102  0.00  0.00    -0.356 N 
ATOM     10  C   UNL     1      -3.150  11.635  35.941  0.00  0.00    +0.106 C 
ATOM     11  C   UNL     1      -3.171   9.710  37.489  0.00  0.00    +0.090 C 
ATOM     12  C   UNL     1      -4.367  11.077  35.189  0.00  0.00    +0.044 C 
ATOM     13  C   UNL     1      -5.256  10.269  36.134  0.00  0.00    +0.058 C 
ATOM     14  C   UNL     1      -4.435   9.158  36.786  0.00  0.00    +0.042 C 
ATOM     15  C   UNL     1      -1.050  10.986  37.106  0.00  0.00    +0.172 C 
ATOM     16  C   UNL     1      -2.268  12.448  35.041  0.00  0.00    +0.038 A 
ATOM     17  C   UNL     1      -0.129  11.598  36.020  0.00  0.00    +0.068 C 
ATOM     18  C   UNL     1      -0.890  12.459  35.074  0.00  0.00    -0.016 A 
ATOM     20  C   UNL     1      -0.439  13.381  34.091  0.00  0.00    +0.003 A 
ATOM     21  C   UNL     1      -1.581  13.927  33.496  0.00  0.00    +0.047 A 
ATOM     26  C   UNL     1       0.828  13.812  33.649  0.00  0.00    +0.010 A 
ATOM     27  C   UNL     1      -1.515  14.884  32.476  0.00  0.00    +0.026 A 
ATOM     30  C   UNL     1       0.908  14.766  32.629  0.00  0.00    +0.001 A 
ATOM     32  C   UNL     1      -0.247  15.292  32.053  0.00  0.00    +0.002 A 
ATOM     40  H   UNL     1      -3.639  13.573  33.878  0.00  0.00    +0.166 HD
ENDROOT
BRANCH  11  19
ATOM     19  C   UNL     1      -2.425   8.524  38.095  0.00  0.00    -0.030 A 
ATOM     24  C   UNL     1      -1.359   7.945  37.406  0.00  0.00    +0.006 A 
ATOM     25  C   UNL     1      -2.809   8.019  39.337  0.00  0.00    +0.006 A 
ATOM     28  C   UNL     1      -0.677   6.861  37.959  0.00  0.00    +0.013 A 
ATOM     29  C   UNL     1      -2.127   6.934  39.890  0.00  0.00    +0.013 A 
ATOM     33  C   UNL     1      -1.062   6.356  39.201  0.00  0.00    +0.055 A 
BRANCH  33  36
ATOM      1  F   UNL     1       0.859   4.929  39.179  0.00  0.00    -0.166 F 
ATOM      2  F   UNL     1      -1.046   4.038  39.731  0.00  0.00    -0.166 F 
ATOM      3  F   UNL     1      -0.020   5.366  41.112  0.00  0.00    -0.166 F 
ATOM     36  C   UNL     1      -0.331   5.199  39.794  0.00  0.00    +0.417 C 
ENDBRANCH  33  36
ENDBRANCH  11  19
BRANCH  15  22
ATOM      5  O   UNL     1      -1.626  13.115  38.081  0.00  0.00    -0.249 OA
ATOM     22  C   UNL     1      -1.266  11.955  38.234  0.00  0.00    +0.325 C 
BRANCH  22   4
ATOM      4  O   UNL     1      -1.001  11.340  39.421  0.00  0.00    -0.467 OA
ATOM     34  C   UNL     1      -1.927  11.615  40.477  0.00  0.00    +0.280 C 
ENDBRANCH  22   4
ENDBRANCH  15  22
BRANCH  13   8
ATOM      8  N   UNL     1      -6.395   9.715  35.403  0.00  0.00    -0.309 NA
ATOM     41  H   UNL     1      -6.203   9.756  34.401  0.00  0.00    +0.123 HD
BRANCH   8  23
ATOM     23  C   UNL     1      -7.603  10.476  35.679  0.00  0.00    +0.118 C 
BRANCH  23  31
ATOM      9  N   UNL     1     -11.097   9.124  36.228  0.00  0.00    -0.263 NA
ATOM     31  C   UNL     1      -8.726   9.591  36.153  0.00  0.00    -0.015 A 
ATOM     35  C   UNL     1      -8.472   8.463  36.926  0.00  0.00    +0.008 A 
ATOM     37  C   UNL     1     -10.044   9.875  35.834  0.00  0.00    +0.115 A 
ATOM     38  C   UNL     1      -9.528   7.665  37.350  0.00  0.00    +0.020 A 
ATOM     39  C   UNL     1     -10.811   8.036  36.977  0.00  0.00    +0.111 A 
ENDBRANCH  23  31
ENDBRANCH   8  23
ENDBRANCH  13   8
TORSDOF 7
ENDMDL
MODEL 2
REMARK VINA RESULT:      -7.6     33.808     37.272
REMARK  Name = 40780323
REMARK  8 active torsions:
REMARK  status: ('A' for Active; 'I' for Inactive)
REMARK    1  A    between atoms: O_4  and  C_22
REMARK    2  A    between atoms: O_4  and  C_34
REMARK    3  A    between atoms: N_8  and  C_13
REMARK    4  A    between atoms: N_8  and  C_23
REMARK    5  A    between atoms: C_11  and  C_19
REMARK    6  A    between atoms: C_15  and  C_22
REMARK    7  A    between atoms: C_23  and  C_31
REMARK    8  A    between atoms: C_33  and  C_36
REMARK                            x       y       z     vdW  Elec       q    Type
REMARK                         _______ _______ _______ _____ _____    ______ ____
ROOT
ATOM      6  N   UNL     1      10.729   6.273   2.188  0.00  0.00    -0.274 NA
ATOM      7  N   UNL     1      11.014   5.888  -1.537  0.00  0.00    -0.356 N 
ATOM     10  C   UNL     1      10.855   6.870   0.822  0.00  0.00    +0.106 C 
ATOM     11  C   UNL     1      10.507   7.310   3.227  0.00  0.00    +0.090 C 
ATOM     12  C   UNL     1       9.600   7.679   0.465  0.00  0.00    +0.044 C 
ATOM     13  C   UNL     1       9.368   8.788   1.491  0.00  0.00    +0.058 C 
ATOM     14  C   UNL     1       9.271   8.181   2.889  0.00  0.00    +0.042 C 
ATOM     15  C   UNL     1      11.813   5.301   2.498  0.00  0.00    +0.172 C 
ATOM     16  C   UNL     1      11.117   5.784  -0.179  0.00  0.00    +0.038 A 
ATOM     17  C   UNL     1      11.827   4.096   1.525  0.00  0.00    +0.068 C 
ATOM     18  C   UNL     1      11.578   4.520   0.119  0.00  0.00    -0.016 A 
ATOM     20  C   UNL     1      11.727   3.811  -1.104  0.00  0.00    +0.003 A 
ATOM     21  C   UNL     1      11.366   4.693  -2.127  0.00  0.00    +0.047 A 
ATOM     26  C   UNL     1      12.139   2.508  -1.445  0.00  0.00    +0.010 A 
ATOM     27  C   UNL     1      11.395   4.331  -3.479  0.00  0.00    +0.026 A 
ATOM     30  C   UNL     1      12.171   2.132  -2.793  0.00  0.00    +0.001 A 
ATOM     32  C   UNL     1      11.804   3.032  -3.792  0.00  0.00    +0.002 A 
ATOM     40  H   UNL     1      10.721   6.714  -2.043  0.00  0.00    +0.166 HD
ENDROOT
BRANCH  11  19
ATOM     19  C   UNL     1      10.305   6.750   4.634  0.00  0.00    -0.030 A 
ATOM     24  C   UNL     1      11.217   7.057   5.643  0.00  0.00    +0.006 A 
ATOM     25  C   UNL     1       9.209   5.932   4.908  0.00  0.00    +0.006 A 
ATOM     28  C   UNL     1      11.034   6.546   6.928  0.00  0.00    +0.013 A 
ATOM     29  C   UNL     1       9.026   5.421   6.193  0.00  0.00    +0.013 A 
ATOM     33  C   UNL     1       9.938   5.728   7.202  0.00  0.00    +0.055 A 
BRANCH  33  36
ATOM      1  F   UNL     1       9.580   3.828   8.612  0.00  0.00    -0.166 F 
ATOM      2  F   UNL     1       8.635   5.699   9.192  0.00  0.00    -0.166 F 
ATOM      3  F   UNL     1      10.782   5.441   9.422  0.00  0.00    -0.166 F 
ATOM     36  C   UNL     1       9.740   5.184   8.577  0.00  0.00    +0.417 C 
ENDBRANCH  33  36
ENDBRANCH  11  19
BRANCH  15  22
ATOM      5  O   UNL     1      13.337   7.106   2.985  0.00  0.00    -0.249 OA
ATOM     22  C   UNL     1      13.148   5.990   2.518  0.00  0.00    +0.325 C 
BRANCH  22   4
ATOM      4  O   UNL     1      14.086   5.185   1.944  0.00  0.00    -0.467 OA
ATOM     34  C   UNL     1      15.028   5.846   1.094  0.00  0.00    +0.280 C 
ENDBRANCH  22   4
ENDBRANCH  15  22
BRANCH  13   8
ATOM      8  N   UNL     1       8.154   9.533   1.161  0.00  0.00    -0.309 NA
ATOM     41  H   UNL     1       8.403  10.492   0.918  0.00  0.00    +0.123 HD
BRANCH   8  23
ATOM     23  C   UNL     1       7.242   9.558   2.293  0.00  0.00    +0.118 C 
BRANCH  23  31
ATOM      9  N   UNL     1       3.563  10.441   2.424  0.00  0.00    -0.263 NA
ATOM     31  C   UNL     1       5.815   9.770   1.859  0.00  0.00    -0.015 A 
ATOM     35  C   UNL     1       5.417   9.506   0.554  0.00  0.00    +0.008 A 
ATOM     37  C   UNL     1       4.859  10.232   2.748  0.00  0.00    +0.115 A 
ATOM     38  C   UNL     1       4.093   9.708   0.182  0.00  0.00    +0.020 A 
ATOM     39  C   UNL     1       3.213  10.174   1.146  0.00  0.00    +0.111 A 
ENDBRANCH  23  31
ENDBRANCH   8  23
ENDBRANCH  13   8
TORSDOF 7
ENDMDL
MODEL 3
REMARK VINA RESULT:      -7.5     16.101     20.234
REMARK  Name = 40780323
REMARK  8 active torsions:
REMARK  status: ('A' for Active; 'I' for Inactive)
REMARK    1  A    between atoms: O_4  and  C_22
REMARK    2  A    between atoms: O_4  and  C_34
REMARK    3  A    between atoms: N_8  and  C_13
REMARK    4  A    between atoms: N_8  and  C_23
REMARK    5  A    between atoms: C_11  and  C_19
REMARK    6  A    between atoms: C_15  and  C_22
REMARK    7  A    between atoms: C_23  and  C_31
REMARK    8  A    between atoms: C_33  and  C_36
REMARK                            x       y       z     vdW  Elec       q    Type
REMARK                         _______ _______ _______ _____ _____    ______ ____
ROOT
ATOM      6  N   UNL     1     -15.085   7.262  22.125  0.00  0.00    -0.274 NA
ATOM      7  N   UNL     1     -16.945   6.095  25.172  0.00  0.00    -0.356 N 
ATOM     10  C   UNL     1     -16.145   7.462  23.161  0.00  0.00    +0.106 C 
ATOM     11  C   UNL     1     -14.920   8.458  21.261  0.00  0.00    +0.090 C 
ATOM     12  C   UNL     1     -15.820   8.678  24.041  0.00  0.00    +0.044 C 
ATOM     13  C   UNL     1     -15.691   9.939  23.187  0.00  0.00    +0.058 C 
ATOM     14  C   UNL     1     -14.630   9.721  22.109  0.00  0.00    +0.042 C 
ATOM     15  C   UNL     1     -15.230   5.976  21.389  0.00  0.00    +0.172 C 
ATOM     16  C   UNL     1     -16.295   6.212  23.976  0.00  0.00    +0.038 A 
ATOM     17  C   UNL     1     -15.130   4.742  22.322  0.00  0.00    +0.068 C 
ATOM     18  C   UNL     1     -15.856   4.961  23.603  0.00  0.00    -0.016 A 
ATOM     20  C   UNL     1     -16.221   4.048  24.630  0.00  0.00    +0.003 A 
ATOM     21  C   UNL     1     -16.902   4.786  25.603  0.00  0.00    +0.047 A 
ATOM     26  C   UNL     1     -16.045   2.664  24.829  0.00  0.00    +0.010 A 
ATOM     27  C   UNL     1     -17.415   4.205  26.768  0.00  0.00    +0.026 A 
ATOM     30  C   UNL     1     -16.551   2.071  25.991  0.00  0.00    +0.001 A 
ATOM     32  C   UNL     1     -17.225   2.832  26.944  0.00  0.00    +0.002 A 
ATOM     40  H   UNL     1     -17.391   6.851  25.675  0.00  0.00    +0.166 HD
ENDROOT
BRANCH  11  19
ATOM     19  C   UNL     1     -13.804   8.331  20.226  0.00  0.00    -0.030 A 
ATOM     24  C   UNL     1     -14.109   8.357  18.866  0.00  0.00    +0.006 A 
ATOM     25  C   UNL     1     -12.480   8.190  20.642  0.00  0.00    +0.006 A 
ATOM     28  C   UNL     1     -13.090   8.241  17.920  0.00  0.00    +0.013 A 
ATOM     29  C   UNL     1     -11.461   8.074  19.696  0.00  0.00    +0.013 A 
ATOM     33  C   UNL     1     -11.767   8.099  18.336  0.00  0.00    +0.055 A 
BRANCH  33  36
ATOM      1  F   UNL     1     -11.082   8.246  16.048  0.00  0.00    -0.166 F 
ATOM      2  F   UNL     1     -10.136   6.726  17.283  0.00  0.00    -0.166 F 
ATOM      3  F   UNL     1      -9.627   8.823  17.548  0.00  0.00    -0.166 F 
ATOM     36  C   UNL     1     -10.677   7.979  17.325  0.00  0.00    +0.417 C 
ENDBRANCH  33  36
ENDBRANCH  11  19
BRANCH  15  22
ATOM      5  O   UNL     1     -17.225   6.938  20.436  0.00  0.00    -0.249 OA
ATOM     22  C   UNL     1     -16.515   5.957  20.611  0.00  0.00    +0.325 C 
BRANCH  22   4
ATOM      4  O   UNL     1     -16.749   4.697  20.147  0.00  0.00    -0.467 OA
ATOM     34  C   UNL     1     -17.586   4.613  18.988  0.00  0.00    +0.280 C 
ENDBRANCH  22   4
ENDBRANCH  15  22
BRANCH  13   8
ATOM      8  N   UNL     1     -15.350  11.085  24.029  0.00  0.00    -0.309 NA
ATOM     41  H   UNL     1     -15.896  11.894  23.732  0.00  0.00    +0.123 HD
BRANCH   8  23
ATOM     23  C   UNL     1     -13.936  11.406  23.913  0.00  0.00    +0.118 C 
BRANCH  23  31
ATOM      9  N   UNL     1     -13.205  10.408  27.491  0.00  0.00    -0.263 NA
ATOM     31  C   UNL     1     -13.173  11.030  25.155  0.00  0.00    -0.015 A 
ATOM     35  C   UNL     1     -11.784  10.955  25.147  0.00  0.00    +0.008 A 
ATOM     37  C   UNL     1     -13.830  10.750  26.341  0.00  0.00    +0.115 A 
ATOM     38  C   UNL     1     -11.105  10.607  26.309  0.00  0.00    +0.020 A 
ATOM     39  C   UNL     1     -11.856  10.345  27.444  0.00  0.00    +0.111 A 
ENDBRANCH  23  31
ENDBRANCH   8  23
ENDBRANCH  13   8
TORSDOF 7
ENDMDL
MODEL 4
REMARK VINA RESULT:      -7.4     28.223     29.756
REMARK  Name = 40780323
REMARK  8 active torsions:
REMARK  status: ('A' for Active; 'I' for Inactive)
REMARK    1  A    between atoms: O_4  and  C_22
REMARK    2  A    between atoms: O_4  and  C_34
REMARK    3  A    between atoms: N_8  and  C_13
REMARK    4  A    between atoms: N_8  and  C_23
REMARK    5  A    between atoms: C_11  and  C_19
REMARK    6  A    between atoms: C_15  and  C_22
REMARK    7  A    between atoms: C_23  and  C_31
REMARK    8  A    between atoms: C_33  and  C_36
REMARK                            x       y       z     vdW  Elec       q    Type
REMARK                         _______ _______ _______ _____ _____    ______ ____
ROOT
ATOM      6  N   UNL     1      -8.575 -11.114  17.860  0.00  0.00    -0.274 NA
ATOM      7  N   UNL     1     -11.731 -11.585  19.841  0.00  0.00    -0.356 N 
ATOM     10  C   UNL     1     -10.050 -10.928  18.025  0.00  0.00    +0.106 C 
ATOM     11  C   UNL     1      -8.053 -10.384  16.677  0.00  0.00    +0.090 C 
ATOM     12  C   UNL     1     -10.397  -9.438  18.159  0.00  0.00    +0.044 C 
ATOM     13  C   UNL     1      -9.916  -8.664  16.933  0.00  0.00    +0.058 C 
ATOM     14  C   UNL     1      -8.415  -8.880  16.747  0.00  0.00    +0.042 C 
ATOM     15  C   UNL     1      -8.157 -12.540  17.948  0.00  0.00    +0.172 C 
ATOM     16  C   UNL     1     -10.527 -11.717  19.208  0.00  0.00    +0.038 A 
ATOM     17  C   UNL     1      -8.499 -13.177  19.318  0.00  0.00    +0.068 C 
ATOM     18  C   UNL     1      -9.844 -12.757  19.800  0.00  0.00    -0.016 A 
ATOM     20  C   UNL     1     -10.647 -13.257  20.861  0.00  0.00    +0.003 A 
ATOM     21  C   UNL     1     -11.825 -12.504  20.864  0.00  0.00    +0.047 A 
ATOM     26  C   UNL     1     -10.494 -14.281  21.817  0.00  0.00    +0.010 A 
ATOM     27  C   UNL     1     -12.858 -12.725  21.782  0.00  0.00    +0.026 A 
ATOM     30  C   UNL     1     -11.519 -14.511  22.742  0.00  0.00    +0.001 A 
ATOM     32  C   UNL     1     -12.681 -13.743  22.723  0.00  0.00    +0.002 A 
ATOM     40  H   UNL     1     -12.450 -10.915  19.602  0.00  0.00    +0.166 HD
ENDROOT
BRANCH  11  19
ATOM     19  C   UNL     1      -6.539 -10.486  16.499  0.00  0.00    -0.030 A 
ATOM     24  C   UNL     1      -5.705 -10.482  17.616  0.00  0.00    +0.006 A 
ATOM     25  C   UNL     1      -5.992 -10.583  15.220  0.00  0.00    +0.006 A 
ATOM     28  C   UNL     1      -4.323 -10.575  17.455  0.00  0.00    +0.013 A 
ATOM     29  C   UNL     1      -4.610 -10.676  15.058  0.00  0.00    +0.013 A 
ATOM     33  C   UNL     1      -3.776 -10.672  16.176  0.00  0.00    +0.055 A 
BRANCH  33  36
ATOM      1  F   UNL     1      -1.908 -11.831  15.230  0.00  0.00    -0.166 F 
ATOM      2  F   UNL     1      -1.640 -10.926  17.189  0.00  0.00    -0.166 F 
ATOM      3  F   UNL     1      -1.738  -9.678  15.412  0.00  0.00    -0.166 F 
ATOM     36  C   UNL     1      -2.297 -10.774  16.003  0.00  0.00    +0.417 C 
ENDBRANCH  33  36
ENDBRANCH  11  19
BRANCH  15  22
ATOM      5  O   UNL     1      -9.933 -13.673  16.773  0.00  0.00    -0.249 OA
ATOM     22  C   UNL     1      -8.758 -13.335  16.823  0.00  0.00    +0.325 C 
BRANCH  22   4
ATOM      4  O   UNL     1      -7.798 -13.607  15.893  0.00  0.00    -0.467 OA
ATOM     34  C   UNL     1      -6.597 -14.195  16.403  0.00  0.00    +0.280 C 
ENDBRANCH  22   4
ENDBRANCH  15  22
BRANCH  13   8
ATOM      8  N   UNL     1     -10.222  -7.242  17.083  0.00  0.00    -0.309 NA
ATOM     41  H   UNL     1     -11.127  -7.140  17.543  0.00  0.00    +0.123 HD
BRANCH   8  23
ATOM     23  C   UNL     1     -10.281  -6.587  15.786  0.00  0.00    +0.118 C 
BRANCH  23  31
ATOM      9  N   UNL     1     -13.238  -5.337  13.779  0.00  0.00    -0.263 NA
ATOM     31  C   UNL     1     -11.700  -6.375  15.329  0.00  0.00    -0.015 A 
ATOM     35  C   UNL     1     -12.763  -6.982  15.989  0.00  0.00    +0.008 A 
ATOM     37  C   UNL     1     -11.987  -5.570  14.239  0.00  0.00    +0.115 A 
ATOM     38  C   UNL     1     -14.063  -6.767  15.546  0.00  0.00    +0.020 A 
ATOM     39  C   UNL     1     -14.245  -5.943  14.446  0.00  0.00    +0.111 A 
ENDBRANCH  23  31
ENDBRANCH   8  23
ENDBRANCH  13   8
TORSDOF 7
ENDMDL
MODEL 5
REMARK VINA RESULT:      -7.4      1.309      2.145
REMARK  Name = 40780323
REMARK  8 active torsions:
REMARK  status: ('A' for Active; 'I' for Inactive)
REMARK    1  A    between atoms: O_4  and  C_22
REMARK    2  A    between atoms: O_4  and  C_34
REMARK    3  A    between atoms: N_8  and  C_13
REMARK    4  A    between atoms: N_8  and  C_23
REMARK    5  A    between atoms: C_11  and  C_19
REMARK    6  A    between atoms: C_15  and  C_22
REMARK    7  A    between atoms: C_23  and  C_31
REMARK    8  A    between atoms: C_33  and  C_36
REMARK                            x       y       z     vdW  Elec       q    Type
REMARK                         _______ _______ _______ _____ _____    ______ ____
ROOT
ATOM      6  N   UNL     1      -2.196  10.445  36.651  0.00  0.00    -0.274 NA
ATOM      7  N   UNL     1      -2.605  13.278  34.220  0.00  0.00    -0.356 N 
ATOM     10  C   UNL     1      -3.010  11.557  36.071  0.00  0.00    +0.106 C 
ATOM     11  C   UNL     1      -2.978   9.629  37.614  0.00  0.00    +0.090 C 
ATOM     12  C   UNL     1      -4.258  11.005  35.366  0.00  0.00    +0.044 C 
ATOM     13  C   UNL     1      -5.112  10.198  36.344  0.00  0.00    +0.058 C 
ATOM     14  C   UNL     1      -4.270   9.082  36.959  0.00  0.00    +0.042 C 
ATOM     15  C   UNL     1      -0.869  10.898  37.151  0.00  0.00    +0.172 C 
ATOM     16  C   UNL     1      -2.161  12.370  35.139  0.00  0.00    +0.038 A 
ATOM     17  C   UNL     1       0.011  11.509  36.031  0.00  0.00    +0.068 C 
ATOM     18  C   UNL     1      -0.784  12.376  35.118  0.00  0.00    -0.016 A 
ATOM     20  C   UNL     1      -0.368  13.299  34.120  0.00  0.00    +0.003 A 
ATOM     21  C   UNL     1      -1.531  13.850  33.572  0.00  0.00    +0.047 A 
ATOM     26  C   UNL     1       0.882  13.726  33.630  0.00  0.00    +0.010 A 
ATOM     27  C   UNL     1      -1.502  14.809  32.553  0.00  0.00    +0.026 A 
ATOM     30  C   UNL     1       0.925  14.683  32.610  0.00  0.00    +0.001 A 
ATOM     32  C   UNL     1      -0.250  15.215  32.081  0.00  0.00    +0.002 A 
ATOM     40  H   UNL     1      -3.573  13.502  34.034  0.00  0.00    +0.166 HD
ENDROOT
BRANCH  11  19
ATOM     19  C   UNL     1      -2.213   8.437  38.187  0.00  0.00    -0.030 A 
ATOM     24  C   UNL     1      -2.454   8.019  39.496  0.00  0.00    +0.006 A 
ATOM     25  C   UNL     1      -1.273   7.769  37.403  0.00  0.00    +0.006 A 
ATOM     28  C   UNL     1      -1.756   6.932  40.020  0.00  0.00    +0.013 A 
ATOM     29  C   UNL     1      -0.574   6.681  37.928  0.00  0.00    +0.013 A 
ATOM     33  C   UNL     1      -0.816   6.263  39.236  0.00  0.00    +0.055 A 
BRANCH  33  36
ATOM      1  F   UNL     1      -0.752   3.918  39.705  0.00  0.00    -0.166 F 
ATOM      2  F   UNL     1       0.221   5.250  41.121  0.00  0.00    -0.166 F 
ATOM      3  F   UNL     1       1.125   4.867  39.181  0.00  0.00    -0.166 F 
ATOM     36  C   UNL     1      -0.072   5.098  39.796  0.00  0.00    +0.417 C 
ENDBRANCH  33  36
ENDBRANCH  11  19
BRANCH  15  22
ATOM      5  O   UNL     1      -1.926  11.789  39.127  0.00  0.00    -0.249 OA
ATOM     22  C   UNL     1      -1.037  11.865  38.289  0.00  0.00    +0.325 C 
BRANCH  22   4
ATOM      4  O   UNL     1      -0.059  12.813  38.231  0.00  0.00    -0.467 OA
ATOM     34  C   UNL     1      -0.067  13.771  39.293  0.00  0.00    +0.280 C 
ENDBRANCH  22   4
ENDBRANCH  15  22
BRANCH  13   8
ATOM      8  N   UNL     1      -6.281   9.650  35.656  0.00  0.00    -0.309 NA
ATOM     41  H   UNL     1      -6.093   9.608  34.655  0.00  0.00    +0.123 HD
BRANCH   8  23
ATOM     23  C   UNL     1      -7.449  10.489  35.877  0.00  0.00    +0.118 C 
BRANCH  23  31
ATOM      9  N   UNL     1      -9.834  10.308  32.944  0.00  0.00    -0.263 NA
ATOM     31  C   UNL     1      -8.142  10.837  34.586  0.00  0.00    -0.015 A 
ATOM     35  C   UNL     1      -7.765  11.954  33.849  0.00  0.00    +0.008 A 
ATOM     37  C   UNL     1      -9.173  10.053  34.095  0.00  0.00    +0.115 A 
ATOM     38  C   UNL     1      -8.421  12.249  32.660  0.00  0.00    +0.020 A 
ATOM     39  C   UNL     1      -9.441  11.402  32.255  0.00  0.00    +0.111 A 
ENDBRANCH  23  31
ENDBRANCH   8  23
ENDBRANCH  13   8
TORSDOF 7
ENDMDL
MODEL 6
REMARK VINA RESULT:      -7.4     33.693     37.522
REMARK  Name = 40780323
REMARK  8 active torsions:
REMARK  status: ('A' for Active; 'I' for Inactive)
REMARK    1  A    between atoms: O_4  and  C_22
REMARK    2  A    between atoms: O_4  and  C_34
REMARK    3  A    between atoms: N_8  and  C_13
REMARK    4  A    between atoms: N_8  and  C_23
REMARK    5  A    between atoms: C_11  and  C_19
REMARK    6  A    between atoms: C_15  and  C_22
REMARK    7  A    between atoms: C_23  and  C_31
REMARK    8  A    between atoms: C_33  and  C_36
REMARK                            x       y       z     vdW  Elec       q    Type
REMARK                         _______ _______ _______ _____ _____    ______ ____
ROOT
ATOM      6  N   UNL     1      14.523   7.956   4.303  0.00  0.00    -0.274 NA
ATOM      7  N   UNL     1      18.154   7.799   3.356  0.00  0.00    -0.356 N 
ATOM     10  C   UNL     1      15.603   8.008   3.271  0.00  0.00    +0.106 C 
ATOM     11  C   UNL     1      13.170   7.969   3.691  0.00  0.00    +0.090 C 
ATOM     12  C   UNL     1      15.480   6.826   2.297  0.00  0.00    +0.044 C 
ATOM     13  C   UNL     1      14.114   6.838   1.612  0.00  0.00    +0.058 C 
ATOM     14  C   UNL     1      13.010   6.818   2.669  0.00  0.00    +0.042 C 
ATOM     15  C   UNL     1      14.721   8.944   5.399  0.00  0.00    +0.172 C 
ATOM     16  C   UNL     1      16.943   8.032   3.945  0.00  0.00    +0.038 A 
ATOM     17  C   UNL     1      16.041   8.712   6.177  0.00  0.00    +0.068 C 
ATOM     18  C   UNL     1      17.165   8.368   5.262  0.00  0.00    -0.016 A 
ATOM     20  C   UNL     1      18.565   8.303   5.498  0.00  0.00    +0.003 A 
ATOM     21  C   UNL     1      19.162   7.942   4.285  0.00  0.00    +0.047 A 
ATOM     26  C   UNL     1      19.389   8.519   6.621  0.00  0.00    +0.010 A 
ATOM     27  C   UNL     1      20.545   7.786   4.143  0.00  0.00    +0.026 A 
ATOM     30  C   UNL     1      20.774   8.363   6.493  0.00  0.00    +0.001 A 
ATOM     32  C   UNL     1      21.340   8.002   5.272  0.00  0.00    +0.002 A 
ATOM     40  H   UNL     1      18.298   7.554   2.385  0.00  0.00    +0.166 HD
ENDROOT
BRANCH  11  19
ATOM     19  C   UNL     1      12.028   7.852   4.699  0.00  0.00    -0.030 A 
ATOM     24  C   UNL     1      11.142   8.914   4.874  0.00  0.00    +0.006 A 
ATOM     25  C   UNL     1      11.873   6.684   5.445  0.00  0.00    +0.006 A 
ATOM     28  C   UNL     1      10.099   8.808   5.794  0.00  0.00    +0.013 A 
ATOM     29  C   UNL     1      10.830   6.578   6.365  0.00  0.00    +0.013 A 
ATOM     33  C   UNL     1       9.943   7.640   6.539  0.00  0.00    +0.055 A 
BRANCH  33  36
ATOM      1  F   UNL     1       8.768   8.562   8.408  0.00  0.00    -0.166 F 
ATOM      2  F   UNL     1       8.911   6.396   8.283  0.00  0.00    -0.166 F 
ATOM      3  F   UNL     1       7.590   7.483   6.941  0.00  0.00    -0.166 F 
ATOM     36  C   UNL     1       8.826   7.525   7.521  0.00  0.00    +0.417 C 
ENDBRANCH  33  36
ENDBRANCH  11  19
BRANCH  15  22
ATOM      5  O   UNL     1      14.033  10.666   3.858  0.00  0.00    -0.249 OA
ATOM     22  C   UNL     1      14.653  10.346   4.863  0.00  0.00    +0.325 C 
BRANCH  22   4
ATOM      4  O   UNL     1      15.379  11.176   5.664  0.00  0.00    -0.467 OA
ATOM     34  C   UNL     1      14.694  12.348   6.119  0.00  0.00    +0.280 C 
ENDBRANCH  22   4
ENDBRANCH  15  22
BRANCH  13   8
ATOM      8  N   UNL     1      13.993   5.692   0.711  0.00  0.00    -0.309 NA
ATOM     41  H   UNL     1      13.857   6.028  -0.243  0.00  0.00    +0.123 HD
BRANCH   8  23
ATOM     23  C   UNL     1      12.857   4.863   1.082  0.00  0.00    +0.118 C 
BRANCH  23  31
ATOM      9  N   UNL     1      10.352   4.061  -1.640  0.00  0.00    -0.263 NA
ATOM     31  C   UNL     1      12.224   4.211  -0.119  0.00  0.00    -0.015 A 
ATOM     35  C   UNL     1      12.874   3.192  -0.807  0.00  0.00    +0.008 A 
ATOM     37  C   UNL     1      10.976   4.605  -0.571  0.00  0.00    +0.115 A 
ATOM     38  C   UNL     1      12.265   2.607  -1.911  0.00  0.00    +0.020 A 
ATOM     39  C   UNL     1      11.014   3.074  -2.284  0.00  0.00    +0.111 A 
ENDBRANCH  23  31
ENDBRANCH   8  23
ENDBRANCH  13   8
TORSDOF 7
ENDMDL
MODEL 7
REMARK VINA RESULT:      -7.3     25.720     28.555
REMARK  Name = 40780323
REMARK  8 active torsions:
REMARK  status: ('A' for Active; 'I' for Inactive)
REMARK    1  A    between atoms: O_4  and  C_22
REMARK    2  A    between atoms: O_4  and  C_34
REMARK    3  A    between atoms: N_8  and  C_13
REMARK    4  A    between atoms: N_8  and  C_23
REMARK    5  A    between atoms: C_11  and  C_19
REMARK    6  A    between atoms: C_15  and  C_22
REMARK    7  A    between atoms: C_23  and  C_31
REMARK    8  A    between atoms: C_33  and  C_36
REMARK                            x       y       z     vdW  Elec       q    Type
REMARK                         _______ _______ _______ _____ _____    ______ ____
ROOT
ATOM      6  N   UNL     1      17.244  -7.220  25.857  0.00  0.00    -0.274 NA
ATOM      7  N   UNL     1      17.659  -3.500  26.165  0.00  0.00    -0.356 N 
ATOM     10  C   UNL     1      17.732  -6.021  26.606  0.00  0.00    +0.106 C 
ATOM     11  C   UNL     1      17.398  -8.468  26.647  0.00  0.00    +0.090 C 
ATOM     12  C   UNL     1      16.982  -5.869  27.937  0.00  0.00    +0.044 C 
ATOM     13  C   UNL     1      17.161  -7.120  28.797  0.00  0.00    +0.058 C 
ATOM     14  C   UNL     1      16.691  -8.349  28.020  0.00  0.00    +0.042 C 
ATOM     15  C   UNL     1      17.774  -7.292  24.468  0.00  0.00    +0.172 C 
ATOM     16  C   UNL     1      17.589  -4.800  25.747  0.00  0.00    +0.038 A 
ATOM     17  C   UNL     1      17.354  -6.074  23.608  0.00  0.00    +0.068 C 
ATOM     18  C   UNL     1      17.435  -4.802  24.378  0.00  0.00    -0.016 A 
ATOM     20  C   UNL     1      17.371  -3.449  23.945  0.00  0.00    +0.003 A 
ATOM     21  C   UNL     1      17.514  -2.654  25.086  0.00  0.00    +0.047 A 
ATOM     26  C   UNL     1      17.212  -2.820  22.695  0.00  0.00    +0.010 A 
ATOM     27  C   UNL     1      17.503  -1.255  25.036  0.00  0.00    +0.026 A 
ATOM     30  C   UNL     1      17.197  -1.422  22.630  0.00  0.00    +0.001 A 
ATOM     32  C   UNL     1      17.340  -0.654  23.784  0.00  0.00    +0.002 A 
ATOM     40  H   UNL     1      17.794  -3.196  27.119  0.00  0.00    +0.166 HD
ENDROOT
BRANCH  11  19
ATOM     19  C   UNL     1      16.854  -9.716  25.956  0.00  0.00    -0.030 A 
ATOM     24  C   UNL     1      17.625 -10.877  25.905  0.00  0.00    +0.006 A 
ATOM     25  C   UNL     1      15.586  -9.695  25.374  0.00  0.00    +0.006 A 
ATOM     28  C   UNL     1      17.129 -12.017  25.273  0.00  0.00    +0.013 A 
ATOM     29  C   UNL     1      15.090 -10.835  24.742  0.00  0.00    +0.013 A 
ATOM     33  C   UNL     1      15.861 -11.996  24.692  0.00  0.00    +0.055 A 
BRANCH  33  36
ATOM      1  F   UNL     1      15.024 -13.026  22.702  0.00  0.00    -0.166 F 
ATOM      2  F   UNL     1      14.182 -13.676  24.598  0.00  0.00    -0.166 F 
ATOM      3  F   UNL     1      16.196 -14.271  24.035  0.00  0.00    -0.166 F 
ATOM     36  C   UNL     1      15.329 -13.216  24.019  0.00  0.00    +0.417 C 
ENDBRANCH  33  36
ENDBRANCH  11  19
BRANCH  15  22
ATOM      5  O   UNL     1      19.889  -8.014  25.373  0.00  0.00    -0.249 OA
ATOM     22  C   UNL     1      19.268  -7.449  24.482  0.00  0.00    +0.325 C 
BRANCH  22   4
ATOM      4  O   UNL     1      19.798  -6.872  23.367  0.00  0.00    -0.467 OA
ATOM     34  C   UNL     1      21.040  -6.188  23.559  0.00  0.00    +0.280 C 
ENDBRANCH  22   4
ENDBRANCH  15  22
BRANCH  13   8
ATOM      8  N   UNL     1      16.417  -6.980  30.049  0.00  0.00    -0.309 NA
ATOM     41  H   UNL     1      15.633  -7.633  30.049  0.00  0.00    +0.123 HD
BRANCH   8  23
ATOM     23  C   UNL     1      15.900  -5.628  30.192  0.00  0.00    +0.118 C 
BRANCH  23  31
ATOM      9  N   UNL     1      12.883  -4.706  32.284  0.00  0.00    -0.263 NA
ATOM     31  C   UNL     1      14.494  -5.621  30.732  0.00  0.00    -0.015 A 
ATOM     35  C   UNL     1      13.526  -6.477  30.220  0.00  0.00    +0.008 A 
ATOM     37  C   UNL     1      14.125  -4.762  31.754  0.00  0.00    +0.115 A 
ATOM     38  C   UNL     1      12.236  -6.450  30.739  0.00  0.00    +0.020 A 
ATOM     39  C   UNL     1      11.968  -5.553  31.761  0.00  0.00    +0.111 A 
ENDBRANCH  23  31
ENDBRANCH   8  23
ENDBRANCH  13   8
TORSDOF 7
ENDMDL
MODEL 8
REMARK VINA RESULT:      -7.3     31.574     34.703
REMARK  Name = 40780323
REMARK  8 active torsions:
REMARK  status: ('A' for Active; 'I' for Inactive)
REMARK    1  A    between atoms: O_4  and  C_22
REMARK    2  A    between atoms: O_4  and  C_34
REMARK    3  A    between atoms: N_8  and  C_13
REMARK    4  A    between atoms: N_8  and  C_23
REMARK    5  A    between atoms: C_11  and  C_19
REMARK    6  A    between atoms: C_15  and  C_22
REMARK    7  A    between atoms: C_23  and  C_31
REMARK    8  A    between atoms: C_33  and  C_36
REMARK                            x       y       z     vdW  Elec       q    Type
REMARK                         _______ _______ _______ _____ _____    ______ ____
ROOT
ATOM      6  N   UNL     1       9.745   8.324   5.310  0.00  0.00    -0.274 NA
ATOM      7  N   UNL     1       8.906  11.283   7.465  0.00  0.00    -0.356 N 
ATOM     10  C   UNL     1       8.740   9.246   5.924  0.00  0.00    +0.106 C 
ATOM     11  C   UNL     1       9.119   7.385   4.344  0.00  0.00    +0.090 C 
ATOM     12  C   UNL     1       8.008  10.052   4.840  0.00  0.00    +0.044 C 
ATOM     13  C   UNL     1       7.312   9.114   3.855  0.00  0.00    +0.058 C 
ATOM     14  C   UNL     1       8.334   8.152   3.252  0.00  0.00    +0.042 C 
ATOM     15  C   UNL     1      10.634   7.684   6.317  0.00  0.00    +0.172 C 
ATOM     16  C   UNL     1       9.419  10.142   6.916  0.00  0.00    +0.038 A 
ATOM     17  C   UNL     1      11.463   8.716   7.121  0.00  0.00    +0.068 C 
ATOM     18  C   UNL     1      10.651   9.909   7.487  0.00  0.00    -0.016 A 
ATOM     20  C   UNL     1      10.918  10.970   8.395  0.00  0.00    +0.003 A 
ATOM     21  C   UNL     1       9.807  11.818   8.361  0.00  0.00    +0.047 A 
ATOM     26  C   UNL     1      11.992  11.292   9.248  0.00  0.00    +0.010 A 
ATOM     27  C   UNL     1       9.720  12.978   9.140  0.00  0.00    +0.026 A 
ATOM     30  C   UNL     1      11.919  12.450  10.030  0.00  0.00    +0.001 A 
ATOM     32  C   UNL     1      10.800  13.278   9.976  0.00  0.00    +0.002 A 
ATOM     40  H   UNL     1       8.002  11.684   7.251  0.00  0.00    +0.166 HD
ENDROOT
BRANCH  11  19
ATOM     19  C   UNL     1      10.112   6.464   3.638  0.00  0.00    -0.030 A 
ATOM     24  C   UNL     1      11.056   6.999   2.762  0.00  0.00    +0.006 A 
ATOM     25  C   UNL     1      10.074   5.089   3.868  0.00  0.00    +0.006 A 
ATOM     28  C   UNL     1      11.963   6.159   2.116  0.00  0.00    +0.013 A 
ATOM     29  C   UNL     1      10.980   4.249   3.222  0.00  0.00    +0.013 A 
ATOM     33  C   UNL     1      11.925   4.784   2.346  0.00  0.00    +0.055 A 
BRANCH  33  36
ATOM      1  F   UNL     1      14.200   4.145   1.971  0.00  0.00    -0.166 F 
ATOM      2  F   UNL     1      12.821   3.975   0.298  0.00  0.00    -0.166 F 
ATOM      3  F   UNL     1      12.718   2.563   1.948  0.00  0.00    -0.166 F 
ATOM     36  C   UNL     1      12.896   3.885   1.658  0.00  0.00    +0.417 C 
ENDBRANCH  33  36
ENDBRANCH  11  19
BRANCH  15  22
ATOM      5  O   UNL     1       8.866   7.179   7.876  0.00  0.00    -0.249 OA
ATOM     22  C   UNL     1       9.839   6.801   7.237  0.00  0.00    +0.325 C 
BRANCH  22   4
ATOM      4  O   UNL     1      10.369   5.546   7.237  0.00  0.00    -0.467 OA
ATOM     34  C   UNL     1       9.901   4.680   8.276  0.00  0.00    +0.280 C 
ENDBRANCH  22   4
ENDBRANCH  15  22
BRANCH  13   8
ATOM      8  N   UNL     1       6.645   9.888   2.808  0.00  0.00    -0.309 NA
ATOM     41  H   UNL     1       7.169  10.747   2.641  0.00  0.00    +0.123 HD
BRANCH   8  23
ATOM     23  C   UNL     1       5.291  10.237   3.210  0.00  0.00    +0.118 C 
BRANCH  23  31
ATOM      9  N   UNL     1       2.203  10.870   1.114  0.00  0.00    -0.263 NA
ATOM     31  C   UNL     1       4.341  10.229   2.042  0.00  0.00    -0.015 A 
ATOM     35  C   UNL     1       4.680   9.603   0.847  0.00  0.00    +0.008 A 
ATOM     37  C   UNL     1       3.102  10.843   2.123  0.00  0.00    +0.115 A 
ATOM     38  C   UNL     1       3.782   9.610  -0.214  0.00  0.00    +0.020 A 
ATOM     39  C   UNL     1       2.567  10.252  -0.032  0.00  0.00    +0.111 A 
ENDBRANCH  23  31
ENDBRANCH   8  23
ENDBRANCH  13   8
TORSDOF 7
ENDMDL
MODEL 9
REMARK VINA RESULT:      -7.3     31.808     32.761
REMARK  Name = 40780323
REMARK  8 active torsions:
REMARK  status: ('A' for Active; 'I' for Inactive)
REMARK    1  A    between atoms: O_4  and  C_22
REMARK    2  A    between atoms: O_4  and  C_34
REMARK    3  A    between atoms: N_8  and  C_13
REMARK    4  A    between atoms: N_8  and  C_23
REMARK    5  A    between atoms: C_11  and  C_19
REMARK    6  A    between atoms: C_15  and  C_22
REMARK    7  A    between atoms: C_23  and  C_31
REMARK    8  A    between atoms: C_33  and  C_36
REMARK                            x       y       z     vdW  Elec       q    Type
REMARK                         _______ _______ _______ _____ _____    ______ ____
ROOT
ATOM      6  N   UNL     1      -4.679 -10.716  11.507  0.00  0.00    -0.274 NA
ATOM      7  N   UNL     1      -7.148  -8.486   9.765  0.00  0.00    -0.356 N 
ATOM     10  C   UNL     1      -5.558  -9.506  11.493  0.00  0.00    +0.106 C 
ATOM     11  C   UNL     1      -4.076 -10.948  12.844  0.00  0.00    +0.090 C 
ATOM     12  C   UNL     1      -6.679  -9.637  12.534  0.00  0.00    +0.044 C 
ATOM     13  C   UNL     1      -6.091  -9.829  13.932  0.00  0.00    +0.058 C 
ATOM     14  C   UNL     1      -5.168 -11.047  13.938  0.00  0.00    +0.042 C 
ATOM     15  C   UNL     1      -3.714 -10.744  10.375  0.00  0.00    +0.172 C 
ATOM     16  C   UNL     1      -6.106  -9.299  10.113  0.00  0.00    +0.038 A 
ATOM     17  C   UNL     1      -4.417 -10.766   8.994  0.00  0.00    +0.068 C 
ATOM     18  C   UNL     1      -5.589  -9.848   8.960  0.00  0.00    -0.016 A 
ATOM     20  C   UNL     1      -6.369  -9.381   7.867  0.00  0.00    +0.003 A 
ATOM     21  C   UNL     1      -7.341  -8.529   8.401  0.00  0.00    +0.047 A 
ATOM     26  C   UNL     1      -6.345  -9.594   6.474  0.00  0.00    +0.010 A 
ATOM     27  C   UNL     1      -8.292  -7.879   7.606  0.00  0.00    +0.026 A 
ATOM     30  C   UNL     1      -7.291  -8.951   5.668  0.00  0.00    +0.001 A 
ATOM     32  C   UNL     1      -8.249  -8.108   6.228  0.00  0.00    +0.002 A 
ATOM     40  H   UNL     1      -7.702  -7.934  10.406  0.00  0.00    +0.166 HD
ENDROOT
BRANCH  11  19
ATOM     19  C   UNL     1      -3.220 -12.209  12.933  0.00  0.00    -0.030 A 
ATOM     24  C   UNL     1      -3.652 -13.387  12.324  0.00  0.00    +0.006 A 
ATOM     25  C   UNL     1      -2.008 -12.183  13.622  0.00  0.00    +0.006 A 
ATOM     28  C   UNL     1      -2.871 -14.541  12.404  0.00  0.00    +0.013 A 
ATOM     29  C   UNL     1      -1.227 -13.337  13.702  0.00  0.00    +0.013 A 
ATOM     33  C   UNL     1      -1.659 -14.515  13.093  0.00  0.00    +0.055 A 
BRANCH  33  36
ATOM      1  F   UNL     1      -1.328 -16.697  14.017  0.00  0.00    -0.166 F 
ATOM      2  F   UNL     1       0.441 -15.494  13.629  0.00  0.00    -0.166 F 
ATOM      3  F   UNL     1      -0.662 -16.381  11.978  0.00  0.00    -0.166 F 
ATOM     36  C   UNL     1      -0.822 -15.747  13.177  0.00  0.00    +0.417 C 
ENDBRANCH  33  36
ENDBRANCH  11  19
BRANCH  15  22
ATOM      5  O   UNL     1      -2.922  -8.513   9.914  0.00  0.00    -0.249 OA
ATOM     22  C   UNL     1      -2.755  -9.590  10.470  0.00  0.00    +0.325 C 
BRANCH  22   4
ATOM      4  O   UNL     1      -1.699  -9.938  11.259  0.00  0.00    -0.467 OA
ATOM     34  C   UNL     1      -0.620  -8.999  11.291  0.00  0.00    +0.280 C 
ENDBRANCH  22   4
ENDBRANCH  15  22
BRANCH  13   8
ATOM      8  N   UNL     1      -7.165  -9.985  14.912  0.00  0.00    -0.309 NA
ATOM     41  H   UNL     1      -7.984  -9.462  14.600  0.00  0.00    +0.123 HD
BRANCH   8  23
ATOM     23  C   UNL     1      -6.754  -9.478  16.212  0.00  0.00    +0.118 C 
BRANCH  23  31
ATOM      9  N   UNL     1      -6.509 -12.686  18.206  0.00  0.00    -0.263 NA
ATOM     31  C   UNL     1      -6.193 -10.567  17.086  0.00  0.00    -0.015 A 
ATOM     35  C   UNL     1      -4.895 -10.492  17.580  0.00  0.00    +0.008 A 
ATOM     37  C   UNL     1      -6.952 -11.675  17.425  0.00  0.00    +0.115 A 
ATOM     38  C   UNL     1      -4.404 -11.512  18.387  0.00  0.00    +0.020 A 
ATOM     39  C   UNL     1      -5.243 -12.578  18.668  0.00  0.00    +0.111 A 
ENDBRANCH  23  31
ENDBRANCH   8  23
ENDBRANCH  13   8
TORSDOF 7
ENDMDL
MODEL 10
REMARK VINA RESULT:      -7.1     27.967     29.534
REMARK  Name = 40780323
REMARK  8 active torsions:
REMARK  status: ('A' for Active; 'I' for Inactive)
REMARK    1  A    between atoms: O_4  and  C_22
REMARK    2  A    between atoms: O_4  and  C_34
REMARK    3  A    between atoms: N_8  and  C_13
REMARK    4  A    between atoms: N_8  and  C_23
REMARK    5  A    between atoms: C_11  and  C_19
REMARK    6  A    between atoms: C_15  and  C_22
REMARK    7  A    between atoms: C_23  and  C_31
REMARK    8  A    between atoms: C_33  and  C_36
REMARK                            x       y       z     vdW  Elec       q    Type
REMARK                         _______ _______ _______ _____ _____    ______ ____
ROOT
ATOM      6  N   UNL     1     -12.772  -8.639  16.915  0.00  0.00    -0.274 NA
ATOM      7  N   UNL     1     -11.705  -6.280  14.194  0.00  0.00    -0.356 N 
ATOM     10  C   UNL     1     -11.811  -8.237  15.842  0.00  0.00    +0.106 C 
ATOM     11  C   UNL     1     -12.272  -9.793  17.703  0.00  0.00    +0.090 C 
ATOM     12  C   UNL     1     -10.444  -7.880  16.444  0.00  0.00    +0.044 C 
ATOM     13  C   UNL     1      -9.877  -9.066  17.224  0.00  0.00    +0.058 C 
ATOM     14  C   UNL     1     -10.873  -9.497  18.299  0.00  0.00    +0.042 C 
ATOM     15  C   UNL     1     -14.168  -8.780  16.419  0.00  0.00    +0.172 C 
ATOM     16  C   UNL     1     -12.384  -7.096  15.055  0.00  0.00    +0.038 A 
ATOM     17  C   UNL     1     -14.731  -7.458  15.840  0.00  0.00    +0.068 C 
ATOM     18  C   UNL     1     -13.714  -6.736  15.026  0.00  0.00    -0.016 A 
ATOM     20  C   UNL     1     -13.848  -5.634  14.139  0.00  0.00    +0.003 A 
ATOM     21  C   UNL     1     -12.573  -5.368  13.631  0.00  0.00    +0.047 A 
ATOM     26  C   UNL     1     -14.928  -4.836  13.712  0.00  0.00    +0.010 A 
ATOM     27  C   UNL     1     -12.326  -4.339  12.715  0.00  0.00    +0.026 A 
ATOM     30  C   UNL     1     -14.695  -3.803  12.798  0.00  0.00    +0.001 A 
ATOM     32  C   UNL     1     -13.413  -3.560  12.309  0.00  0.00    +0.002 A 
ATOM     40  H   UNL     1     -10.715  -6.330  13.994  0.00  0.00    +0.166 HD
ENDROOT
BRANCH  11  19
ATOM     19  C   UNL     1     -13.185 -10.204  18.856  0.00  0.00    -0.030 A 
ATOM     24  C   UNL     1     -13.592  -9.256  19.795  0.00  0.00    +0.006 A 
ATOM     25  C   UNL     1     -13.613 -11.527  18.970  0.00  0.00    +0.006 A 
ATOM     28  C   UNL     1     -14.426  -9.631  20.848  0.00  0.00    +0.013 A 
ATOM     29  C   UNL     1     -14.447 -11.902  20.024  0.00  0.00    +0.013 A 
ATOM     33  C   UNL     1     -14.853 -10.954  20.962  0.00  0.00    +0.055 A 
BRANCH  33  36
ATOM      1  F   UNL     1     -16.632 -10.380  22.457  0.00  0.00    -0.166 F 
ATOM      2  F   UNL     1     -15.056 -11.670  23.221  0.00  0.00    -0.166 F 
ATOM      3  F   UNL     1     -16.518 -12.447  21.811  0.00  0.00    -0.166 F 
ATOM     36  C   UNL     1     -15.748 -11.354  22.087  0.00  0.00    +0.417 C 
ENDBRANCH  33  36
ENDBRANCH  11  19
BRANCH  15  22
ATOM      5  O   UNL     1     -13.705  -9.867  14.317  0.00  0.00    -0.249 OA
ATOM     22  C   UNL     1     -14.258  -9.889  15.408  0.00  0.00    +0.325 C 
BRANCH  22   4
ATOM      4  O   UNL     1     -15.038 -10.893  15.900  0.00  0.00    -0.467 OA
ATOM     34  C   UNL     1     -16.207 -10.473  16.610  0.00  0.00    +0.280 C 
ENDBRANCH  22   4
ENDBRANCH  15  22
BRANCH  13   8
ATOM      8  N   UNL     1      -8.590  -8.707  17.819  0.00  0.00    -0.309 NA
ATOM     41  H   UNL     1      -8.468  -7.696  17.772  0.00  0.00    +0.123 HD
BRANCH   8  23
ATOM     23  C   UNL     1      -7.496  -9.345  17.104  0.00  0.00    +0.118 C 
BRANCH  23  31
ATOM      9  N   UNL     1      -6.397 -11.340  20.129  0.00  0.00    -0.263 NA
ATOM     31  C   UNL     1      -6.646 -10.189  18.017  0.00  0.00    -0.015 A 
ATOM     35  C   UNL     1      -5.372 -10.595  17.637  0.00  0.00    +0.008 A 
ATOM     37  C   UNL     1      -7.109 -10.584  19.262  0.00  0.00    +0.115 A 
ATOM     38  C   UNL     1      -4.609 -11.372  18.501  0.00  0.00    +0.020 A 
ATOM     39  C   UNL     1      -5.163 -11.715  19.725  0.00  0.00    +0.111 A 
ENDBRANCH  23  31
ENDBRANCH   8  23
ENDBRANCH  13   8
TORSDOF 7
ENDMDL
