REMARK  Name = 45783557
REMARK  10 active torsions:
REMARK  status: ('A' for Active; 'I' for Inactive)
REMARK    1  A    between atoms: O_2  and  C_28
REMARK    2  A    between atoms: O_2  and  C_29
REMARK    3  A    between atoms: O_5  and  C_30
REMARK    4  A    between atoms: O_5  and  C_31
REMARK    5  A    between atoms: N_6  and  C_15
REMARK    6  A    between atoms: N_9  and  C_23
REMARK    7  A    between atoms: C_11  and  C_16
REMARK    8  A    between atoms: C_15  and  C_17
REMARK    9  A    between atoms: C_20  and  C_24
REMARK   10  A    between atoms: C_29  and  C_30
REMARK                            x       y       z     vdW  Elec       q    Type
REMARK                         _______ _______ _______ _____ _____    ______ ____
ROOT
ATOM      1  O   UNL     1      -2.207  -1.637   2.045  0.00  0.00    -0.336 OA
ATOM      7  N   UNL     1      -1.461  -1.254  -0.033  0.00  0.00    -0.190 NA
ATOM      8  N   UNL     1      -0.820  -1.470   2.153  0.00  0.00    -0.056 NA
ATOM     16  C   UNL     1      -2.501  -1.495   0.726  0.00  0.00    +0.245 A 
ATOM     20  C   UNL     1      -0.453  -1.248   0.887  0.00  0.00    +0.204 A 
ENDROOT
BRANCH  20  24
ATOM     10  N   UNL     1       3.228  -0.802   1.162  0.00  0.00    -0.221 NA
ATOM     24  C   UNL     1       0.911  -1.018   0.508  0.00  0.00    +0.041 A 
ATOM     25  C   UNL     1       1.257  -0.792  -0.820  0.00  0.00    +0.018 A 
ATOM     26  C   UNL     1       1.925  -1.013   1.452  0.00  0.00    +0.126 A 
ATOM     27  C   UNL     1       2.587  -0.571  -1.158  0.00  0.00    +0.068 A 
ATOM     28  C   UNL     1       3.526  -0.586  -0.139  0.00  0.00    +0.215 A 
BRANCH  28   2
ATOM      2  O   UNL     1       4.844  -0.370  -0.447  0.00  0.00    -0.474 OA
BRANCH   2  29
ATOM     29  C   UNL     1       5.767  -0.396   0.636  0.00  0.00    +0.258 C 
BRANCH  29  30
ATOM     30  C   UNL     1       7.166  -0.164   0.100  0.00  0.00    +0.200 C 
BRANCH  30   5
ATOM      5  O   UNL     1       7.491  -1.203  -0.815  0.00  0.00    -0.380 OA
ATOM     31  C   UNL     1       8.788  -1.023  -1.368  0.00  0.00    +0.194 C 
ENDBRANCH  30   5
ENDBRANCH  29  30
ENDBRANCH   2  29
ENDBRANCH  28   2
ENDBRANCH  20  24
BRANCH  16  11
ATOM      6  N   UNL     1      -4.298  -0.873  -0.878  0.00  0.00    -0.287 NA
ATOM     11  C   UNL     1      -3.959  -1.633   0.341  0.00  0.00    +0.146 C 
ATOM     12  C   UNL     1      -4.354  -3.086   0.019  0.00  0.00    +0.030 C 
ATOM     13  C   UNL     1      -4.961  -3.033  -1.376  0.00  0.00    +0.017 C 
ATOM     14  C   UNL     1      -5.401  -1.590  -1.519  0.00  0.00    +0.085 C 
BRANCH   6  15
ATOM     15  C   UNL     1      -4.632   0.521  -0.613  0.00  0.00    +0.120 C 
BRANCH  15  17
ATOM     17  C   UNL     1      -3.401   1.365  -0.416  0.00  0.00    -0.033 A 
ATOM     18  C   UNL     1      -3.216   2.063   0.777  0.00  0.00    +0.007 A 
ATOM     19  C   UNL     1      -2.445   1.448  -1.429  0.00  0.00    +0.007 A 
ATOM     21  C   UNL     1      -2.075   2.845   0.958  0.00  0.00    +0.033 A 
ATOM     22  C   UNL     1      -1.304   2.231  -1.248  0.00  0.00    +0.033 A 
ATOM     23  C   UNL     1      -1.119   2.929  -0.054  0.00  0.00    +0.126 A 
BRANCH  23   9
ATOM      3  O   UNL     1       0.188   4.345   1.211  0.00  0.00    -0.126 OA
ATOM      4  O   UNL     1       0.889   3.787  -0.793  0.00  0.00    -0.126 OA
ATOM      9  N   UNL     1       0.041   3.725   0.130  0.00  0.00    +0.056 N 
ENDBRANCH  23   9
ENDBRANCH  15  17
ENDBRANCH   6  15
ENDBRANCH  16  11
TORSDOF 9
