MODEL 1
REMARK VINA RESULT:      -7.0      0.000      0.000
REMARK  Name = 45360397
REMARK  11 active torsions:
REMARK  status: ('A' for Active; 'I' for Inactive)
REMARK    1  A    between atoms: O_4  and  C_15
REMARK    2  A    between atoms: O_7  and  C_30
REMARK    3  A    between atoms: O_7  and  C_34
REMARK    4  A    between atoms: O_8  and  C_33
REMARK    5  A    between atoms: O_8  and  C_40
REMARK    6  A    between atoms: N_11  and  C_14
REMARK    7  A    between atoms: N_12  and  C_23
REMARK    8  A    between atoms: C_21  and  C_22
REMARK    9  A    between atoms: C_34  and  C_35
REMARK   10  A    between atoms: C_36  and  C_38
REMARK   11  A    between atoms: C_37  and  C_39
REMARK                            x       y       z     vdW  Elec       q    Type
REMARK                         _______ _______ _______ _____ _____    ______ ____
ROOT
ATOM      5  O   UNL     1       9.701   4.119   0.767  0.00  0.00    -0.252 OA
ATOM     10  N   UNL     1      11.542   5.137  -0.189  0.00  0.00    -0.284 N 
ATOM     12  N   UNL     1      10.342   6.215   1.538  0.00  0.00    -0.269 N 
ATOM     14  C   UNL     1      13.737   6.010   0.688  0.00  0.00    +0.119 C 
ATOM     15  C   UNL     1      14.223   4.566   0.906  0.00  0.00    +0.136 C 
ATOM     16  C   UNL     1      14.184   3.657  -0.327  0.00  0.00    +0.035 C 
ATOM     17  C   UNL     1      12.557   6.196  -0.275  0.00  0.00    +0.134 C 
ATOM     18  C   UNL     1      12.810   3.031  -0.574  0.00  0.00    +0.022 C 
ATOM     19  C   UNL     1      11.757   4.004  -1.090  0.00  0.00    +0.109 C 
ATOM     20  C   UNL     1      10.459   5.090   0.721  0.00  0.00    +0.307 C 
ATOM     43  H   UNL     1      10.718   7.092   1.196  0.00  0.00    +0.156 HD
ENDROOT
BRANCH  12  23
ATOM     23  C   UNL     1       9.822   6.283   2.856  0.00  0.00    +0.035 A 
ATOM     26  C   UNL     1       8.967   7.327   3.214  0.00  0.00    +0.027 A 
ATOM     27  C   UNL     1      10.164   5.309   3.793  0.00  0.00    +0.027 A 
ATOM     31  C   UNL     1       8.455   7.394   4.510  0.00  0.00    +0.048 A 
ATOM     32  C   UNL     1       9.652   5.377   5.089  0.00  0.00    +0.048 A 
ATOM     33  C   UNL     1       8.798   6.420   5.447  0.00  0.00    +0.130 A 
BRANCH  33   8
ATOM      8  O   UNL     1       8.297   6.486   6.712  0.00  0.00    -0.406 OA
BRANCH   8  40
ATOM      1  F   UNL     1       8.695   7.154   8.831  0.00  0.00    -0.133 F 
ATOM      2  F   UNL     1       9.410   5.180   8.225  0.00  0.00    -0.133 F 
ATOM      3  F   UNL     1      10.393   7.007   7.465  0.00  0.00    -0.133 F 
ATOM     40  C   UNL     1       9.212   6.447   7.801  0.00  0.00    +0.575 C 
ENDBRANCH   8  40
ENDBRANCH  33   8
ENDBRANCH  12  23
BRANCH  14  11
ATOM      6  O   UNL     1      15.564   7.466   2.355  0.00  0.00    -0.270 OA
ATOM     11  N   UNL     1      13.444   6.609   1.976  0.00  0.00    -0.305 N 
ATOM     21  C   UNL     1      14.399   7.293   2.705  0.00  0.00    +0.244 C 
ATOM     41  H   UNL     1      12.487   6.542   2.304  0.00  0.00    +0.149 HD
BRANCH  21  22
ATOM     22  C   UNL     1      13.947   7.824   4.017  0.00  0.00    +0.037 A 
ATOM     24  C   UNL     1      12.649   8.315   4.161  0.00  0.00    +0.016 A 
ATOM     25  C   UNL     1      14.821   7.833   5.103  0.00  0.00    +0.016 A 
ATOM     28  C   UNL     1      12.226   8.816   5.391  0.00  0.00    +0.046 A 
ATOM     29  C   UNL     1      14.398   8.333   6.334  0.00  0.00    +0.046 A 
ATOM     30  C   UNL     1      13.101   8.825   6.478  0.00  0.00    +0.121 A 
BRANCH  30   7
ATOM      7  O   UNL     1      12.687   9.313   7.680  0.00  0.00    -0.487 OA
BRANCH   7  34
ATOM     34  C   UNL     1      12.389  10.707   7.746  0.00  0.00    +0.269 C 
BRANCH  34  35
ATOM      9  O   UNL     1       9.045  10.933   9.288  0.00  0.00    -0.359 OA
ATOM     13  N   UNL     1       9.801  11.480  10.317  0.00  0.00    -0.083 NA
ATOM     35  C   UNL     1      11.159  10.907   8.581  0.00  0.00    +0.054 A 
ATOM     36  C   UNL     1       9.864  10.595   8.259  0.00  0.00    +0.141 A 
ATOM     37  C   UNL     1      11.060  11.453   9.872  0.00  0.00    +0.087 A 
ATOM     38  C   UNL     1       9.221  10.000   7.081  0.00  0.00    +0.089 C 
ATOM     39  C   UNL     1      12.146  11.968  10.725  0.00  0.00    +0.069 C 
ENDBRANCH  34  35
ENDBRANCH   7  34
ENDBRANCH  30   7
ENDBRANCH  21  22
ENDBRANCH  14  11
BRANCH  15   4
ATOM      4  O   UNL     1      15.589   4.626   1.340  0.00  0.00    -0.390 OA
ATOM     42  H   UNL     1      15.644   4.181   2.202  0.00  0.00    +0.210 HD
ENDBRANCH  15   4
TORSDOF 9
ENDMDL
MODEL 2
REMARK VINA RESULT:      -6.9     16.229     19.177
REMARK  Name = 45360397
REMARK  11 active torsions:
REMARK  status: ('A' for Active; 'I' for Inactive)
REMARK    1  A    between atoms: O_4  and  C_15
REMARK    2  A    between atoms: O_7  and  C_30
REMARK    3  A    between atoms: O_7  and  C_34
REMARK    4  A    between atoms: O_8  and  C_33
REMARK    5  A    between atoms: O_8  and  C_40
REMARK    6  A    between atoms: N_11  and  C_14
REMARK    7  A    between atoms: N_12  and  C_23
REMARK    8  A    between atoms: C_21  and  C_22
REMARK    9  A    between atoms: C_34  and  C_35
REMARK   10  A    between atoms: C_36  and  C_38
REMARK   11  A    between atoms: C_37  and  C_39
REMARK                            x       y       z     vdW  Elec       q    Type
REMARK                         _______ _______ _______ _____ _____    ______ ____
ROOT
ATOM      5  O   UNL     1      14.456  13.256  21.235  0.00  0.00    -0.252 OA
ATOM     10  N   UNL     1      12.834  11.795  20.478  0.00  0.00    -0.284 N 
ATOM     12  N   UNL     1      15.103  11.461  19.910  0.00  0.00    -0.269 N 
ATOM     14  C   UNL     1      12.443   9.316  20.695  0.00  0.00    +0.119 C 
ATOM     15  C   UNL     1      12.065   9.506  22.175  0.00  0.00    +0.136 C 
ATOM     16  C   UNL     1      10.931  10.499  22.450  0.00  0.00    +0.035 C 
ATOM     17  C   UNL     1      12.386  10.567  19.808  0.00  0.00    +0.134 C 
ATOM     18  C   UNL     1      11.402  11.954  22.506  0.00  0.00    +0.022 C 
ATOM     19  C   UNL     1      11.776  12.549  21.155  0.00  0.00    +0.109 C 
ATOM     20  C   UNL     1      14.170  12.248  20.586  0.00  0.00    +0.307 C 
ATOM     43  H   UNL     1      14.781  10.921  19.115  0.00  0.00    +0.156 HD
ENDROOT
BRANCH  12  23
ATOM     23  C   UNL     1      16.465  11.246  20.242  0.00  0.00    +0.035 A 
ATOM     26  C   UNL     1      17.450  12.088  19.725  0.00  0.00    +0.027 A 
ATOM     27  C   UNL     1      16.820  10.193  21.086  0.00  0.00    +0.027 A 
ATOM     31  C   UNL     1      18.789  11.877  20.051  0.00  0.00    +0.048 A 
ATOM     32  C   UNL     1      18.160   9.982  21.411  0.00  0.00    +0.048 A 
ATOM     33  C   UNL     1      19.144  10.824  20.894  0.00  0.00    +0.130 A 
BRANCH  33   8
ATOM      8  O   UNL     1      20.452  10.619  21.213  0.00  0.00    -0.406 OA
BRANCH   8  40
ATOM      1  F   UNL     1      21.591  12.508  21.692  0.00  0.00    -0.133 F 
ATOM      2  F   UNL     1      20.084  11.827  23.120  0.00  0.00    -0.133 F 
ATOM      3  F   UNL     1      21.990  10.732  22.901  0.00  0.00    -0.133 F 
ATOM     40  C   UNL     1      21.026  11.411  22.246  0.00  0.00    +0.575 C 
ENDBRANCH   8  40
ENDBRANCH  33   8
ENDBRANCH  12  23
BRANCH  14  11
ATOM      6  O   UNL     1      13.033   6.671  19.751  0.00  0.00    -0.270 OA
ATOM     11  N   UNL     1      13.752   8.696  20.618  0.00  0.00    -0.305 N 
ATOM     21  C   UNL     1      13.931   7.410  20.146  0.00  0.00    +0.244 C 
ATOM     41  H   UNL     1      14.544   9.268  20.889  0.00  0.00    +0.149 HD
BRANCH  21  22
ATOM     22  C   UNL     1      15.331   6.911  20.157  0.00  0.00    +0.037 A 
ATOM     24  C   UNL     1      15.930   6.490  18.969  0.00  0.00    +0.016 A 
ATOM     25  C   UNL     1      16.044   6.861  21.354  0.00  0.00    +0.016 A 
ATOM     28  C   UNL     1      17.242   6.019  18.980  0.00  0.00    +0.046 A 
ATOM     29  C   UNL     1      17.357   6.391  21.364  0.00  0.00    +0.046 A 
ATOM     30  C   UNL     1      17.956   5.970  20.178  0.00  0.00    +0.121 A 
BRANCH  30   7
ATOM      7  O   UNL     1      19.238   5.510  20.187  0.00  0.00    -0.487 OA
BRANCH   7  34
ATOM     34  C   UNL     1      20.250   6.421  20.616  0.00  0.00    +0.269 C 
BRANCH  34  35
ATOM      9  O   UNL     1      21.922   4.652  23.389  0.00  0.00    -0.359 OA
ATOM     13  N   UNL     1      21.502   5.786  24.071  0.00  0.00    -0.083 NA
ATOM     35  C   UNL     1      20.857   5.913  21.891  0.00  0.00    +0.054 A 
ATOM     36  C   UNL     1      21.532   4.738  22.090  0.00  0.00    +0.141 A 
ATOM     37  C   UNL     1      20.869   6.526  23.156  0.00  0.00    +0.087 A 
ATOM     38  C   UNL     1      21.898   3.611  21.223  0.00  0.00    +0.089 C 
ATOM     39  C   UNL     1      20.285   7.821  23.543  0.00  0.00    +0.069 C 
ENDBRANCH  34  35
ENDBRANCH   7  34
ENDBRANCH  30   7
ENDBRANCH  21  22
ENDBRANCH  14  11
BRANCH  15   4
ATOM      4  O   UNL     1      11.641   8.234  22.683  0.00  0.00    -0.390 OA
ATOM     42  H   UNL     1      11.442   7.663  21.921  0.00  0.00    +0.210 HD
ENDBRANCH  15   4
TORSDOF 9
ENDMDL
MODEL 3
REMARK VINA RESULT:      -6.8      2.237      4.691
REMARK  Name = 45360397
REMARK  11 active torsions:
REMARK  status: ('A' for Active; 'I' for Inactive)
REMARK    1  A    between atoms: O_4  and  C_15
REMARK    2  A    between atoms: O_7  and  C_30
REMARK    3  A    between atoms: O_7  and  C_34
REMARK    4  A    between atoms: O_8  and  C_33
REMARK    5  A    between atoms: O_8  and  C_40
REMARK    6  A    between atoms: N_11  and  C_14
REMARK    7  A    between atoms: N_12  and  C_23
REMARK    8  A    between atoms: C_21  and  C_22
REMARK    9  A    between atoms: C_34  and  C_35
REMARK   10  A    between atoms: C_36  and  C_38
REMARK   11  A    between atoms: C_37  and  C_39
REMARK                            x       y       z     vdW  Elec       q    Type
REMARK                         _______ _______ _______ _____ _____    ______ ____
ROOT
ATOM      5  O   UNL     1      15.901   6.791   0.456  0.00  0.00    -0.252 OA
ATOM     10  N   UNL     1      14.935   4.692   0.405  0.00  0.00    -0.284 N 
ATOM     12  N   UNL     1      15.170   5.851   2.451  0.00  0.00    -0.269 N 
ATOM     14  C   UNL     1      12.706   3.751   1.105  0.00  0.00    +0.119 C 
ATOM     15  C   UNL     1      12.034   4.462  -0.083  0.00  0.00    +0.136 C 
ATOM     16  C   UNL     1      12.613   4.143  -1.464  0.00  0.00    +0.035 C 
ATOM     17  C   UNL     1      14.226   3.560   1.017  0.00  0.00    +0.134 C 
ATOM     18  C   UNL     1      13.845   4.982  -1.812  0.00  0.00    +0.022 C 
ATOM     19  C   UNL     1      15.105   4.600  -1.047  0.00  0.00    +0.109 C 
ATOM     20  C   UNL     1      15.379   5.859   1.072  0.00  0.00    +0.307 C 
ATOM     43  H   UNL     1      15.116   4.953   2.918  0.00  0.00    +0.156 HD
ENDROOT
BRANCH  12  23
ATOM     23  C   UNL     1      14.936   6.961   3.302  0.00  0.00    +0.035 A 
ATOM     26  C   UNL     1      14.217   8.061   2.832  0.00  0.00    +0.027 A 
ATOM     27  C   UNL     1      15.424   6.952   4.609  0.00  0.00    +0.027 A 
ATOM     31  C   UNL     1      13.988   9.152   3.670  0.00  0.00    +0.048 A 
ATOM     32  C   UNL     1      15.194   8.045   5.446  0.00  0.00    +0.048 A 
ATOM     33  C   UNL     1      14.476   9.145   4.976  0.00  0.00    +0.130 A 
BRANCH  33   8
ATOM      8  O   UNL     1      14.251  10.210   5.793  0.00  0.00    -0.406 OA
BRANCH   8  40
ATOM      1  F   UNL     1      12.961  11.429   7.189  0.00  0.00    -0.133 F 
ATOM      2  F   UNL     1      11.965  10.198   5.682  0.00  0.00    -0.133 F 
ATOM      3  F   UNL     1      12.956   9.256   7.419  0.00  0.00    -0.133 F 
ATOM     40  C   UNL     1      13.026  10.257   6.517  0.00  0.00    +0.575 C 
ENDBRANCH   8  40
ENDBRANCH  33   8
ENDBRANCH  12  23
BRANCH  14  11
ATOM      6  O   UNL     1      10.235   3.512   2.544  0.00  0.00    -0.270 OA
ATOM     11  N   UNL     1      12.348   4.438   2.331  0.00  0.00    -0.305 N 
ATOM     21  C   UNL     1      11.126   4.254   2.949  0.00  0.00    +0.244 C 
ATOM     41  H   UNL     1      13.057   5.033   2.744  0.00  0.00    +0.149 HD
BRANCH  21  22
ATOM     22  C   UNL     1      10.903   5.052   4.182  0.00  0.00    +0.037 A 
ATOM     24  C   UNL     1      11.639   6.216   4.402  0.00  0.00    +0.016 A 
ATOM     25  C   UNL     1       9.960   4.635   5.121  0.00  0.00    +0.016 A 
ATOM     28  C   UNL     1      11.433   6.964   5.561  0.00  0.00    +0.046 A 
ATOM     29  C   UNL     1       9.752   5.383   6.280  0.00  0.00    +0.046 A 
ATOM     30  C   UNL     1      10.489   6.547   6.500  0.00  0.00    +0.121 A 
BRANCH  30   7
ATOM      7  O   UNL     1      10.286   7.278   7.631  0.00  0.00    -0.487 OA
BRANCH   7  34
ATOM     34  C   UNL     1       9.006   7.889   7.788  0.00  0.00    +0.269 C 
BRANCH  34  35
ATOM      9  O   UNL     1       9.343  11.439   6.842  0.00  0.00    -0.359 OA
ATOM     13  N   UNL     1       8.787  10.949   5.668  0.00  0.00    -0.083 NA
ATOM     35  C   UNL     1       9.037   9.256   7.170  0.00  0.00    +0.054 A 
ATOM     36  C   UNL     1       9.488  10.422   7.730  0.00  0.00    +0.141 A 
ATOM     37  C   UNL     1       8.613   9.643   5.887  0.00  0.00    +0.087 A 
ATOM     38  C   UNL     1      10.067  10.770   9.034  0.00  0.00    +0.089 C 
ATOM     39  C   UNL     1       8.031   8.798   4.830  0.00  0.00    +0.069 C 
ENDBRANCH  34  35
ENDBRANCH   7  34
ENDBRANCH  30   7
ENDBRANCH  21  22
ENDBRANCH  14  11
BRANCH  15   4
ATOM      4  O   UNL     1      10.655   4.067  -0.104  0.00  0.00    -0.390 OA
ATOM     42  H   UNL     1      10.239   4.402   0.709  0.00  0.00    +0.210 HD
ENDBRANCH  15   4
TORSDOF 9
ENDMDL
MODEL 4
REMARK VINA RESULT:      -6.7     24.512     26.609
REMARK  Name = 45360397
REMARK  11 active torsions:
REMARK  status: ('A' for Active; 'I' for Inactive)
REMARK    1  A    between atoms: O_4  and  C_15
REMARK    2  A    between atoms: O_7  and  C_30
REMARK    3  A    between atoms: O_7  and  C_34
REMARK    4  A    between atoms: O_8  and  C_33
REMARK    5  A    between atoms: O_8  and  C_40
REMARK    6  A    between atoms: N_11  and  C_14
REMARK    7  A    between atoms: N_12  and  C_23
REMARK    8  A    between atoms: C_21  and  C_22
REMARK    9  A    between atoms: C_34  and  C_35
REMARK   10  A    between atoms: C_36  and  C_38
REMARK   11  A    between atoms: C_37  and  C_39
REMARK                            x       y       z     vdW  Elec       q    Type
REMARK                         _______ _______ _______ _____ _____    ______ ____
ROOT
ATOM      5  O   UNL     1      -4.521 -11.261   6.924  0.00  0.00    -0.252 OA
ATOM     10  N   UNL     1      -6.798 -10.894   7.062  0.00  0.00    -0.284 N 
ATOM     12  N   UNL     1      -5.627 -11.839   8.884  0.00  0.00    -0.269 N 
ATOM     14  C   UNL     1      -8.289  -9.576   8.606  0.00  0.00    +0.119 C 
ATOM     15  C   UNL     1      -7.772  -8.265   7.985  0.00  0.00    +0.136 C 
ATOM     16  C   UNL     1      -7.923  -8.143   6.465  0.00  0.00    +0.035 C 
ATOM     17  C   UNL     1      -8.078 -10.853   7.782  0.00  0.00    +0.134 C 
ATOM     18  C   UNL     1      -6.791  -8.820   5.688  0.00  0.00    +0.022 C 
ATOM     19  C   UNL     1      -6.836 -10.342   5.706  0.00  0.00    +0.109 C 
ATOM     20  C   UNL     1      -5.559 -11.334   7.585  0.00  0.00    +0.307 C 
ATOM     43  H   UNL     1      -6.510 -12.226   9.197  0.00  0.00    +0.156 HD
ENDROOT
BRANCH  12  23
ATOM     23  C   UNL     1      -4.620 -11.814   9.882  0.00  0.00    +0.035 A 
ATOM     26  C   UNL     1      -4.309 -12.976  10.588  0.00  0.00    +0.027 A 
ATOM     27  C   UNL     1      -3.940 -10.627  10.157  0.00  0.00    +0.027 A 
ATOM     31  C   UNL     1      -3.319 -12.951  11.570  0.00  0.00    +0.048 A 
ATOM     32  C   UNL     1      -2.950 -10.602  11.140  0.00  0.00    +0.048 A 
ATOM     33  C   UNL     1      -2.640 -11.765  11.846  0.00  0.00    +0.130 A 
BRANCH  33   8
ATOM      8  O   UNL     1      -1.672 -11.741  12.804  0.00  0.00    -0.406 OA
BRANCH   8  40
ATOM      1  F   UNL     1      -1.148 -11.757  15.000  0.00  0.00    -0.133 F 
ATOM      2  F   UNL     1      -1.921  -9.901  14.141  0.00  0.00    -0.133 F 
ATOM      3  F   UNL     1      -3.258 -11.633  14.448  0.00  0.00    -0.133 F 
ATOM     40  C   UNL     1      -2.015 -11.248  14.094  0.00  0.00    +0.575 C 
ENDBRANCH   8  40
ENDBRANCH  33   8
ENDBRANCH  12  23
BRANCH  14  11
ATOM      6  O   UNL     1      -9.727  -9.585  11.089  0.00  0.00    -0.270 OA
ATOM     11  N   UNL     1      -7.724  -9.724   9.933  0.00  0.00    -0.305 N 
ATOM     21  C   UNL     1      -8.506  -9.715  11.072  0.00  0.00    +0.244 C 
ATOM     41  H   UNL     1      -6.724  -9.880   9.988  0.00  0.00    +0.149 HD
BRANCH  21  22
ATOM     22  C   UNL     1      -7.772  -9.852  12.357  0.00  0.00    +0.037 A 
ATOM     24  C   UNL     1      -6.401  -9.597  12.406  0.00  0.00    +0.016 A 
ATOM     25  C   UNL     1      -8.453 -10.236  13.511  0.00  0.00    +0.016 A 
ATOM     28  C   UNL     1      -5.711  -9.729  13.611  0.00  0.00    +0.046 A 
ATOM     29  C   UNL     1      -7.763 -10.366  14.716  0.00  0.00    +0.046 A 
ATOM     30  C   UNL     1      -6.392 -10.113  14.766  0.00  0.00    +0.121 A 
BRANCH  30   7
ATOM      7  O   UNL     1      -5.718 -10.240  15.943  0.00  0.00    -0.487 OA
BRANCH   7  34
ATOM     34  C   UNL     1      -5.831 -11.489  16.623  0.00  0.00    +0.269 C 
BRANCH  34  35
ATOM      9  O   UNL     1      -7.128 -10.635  19.970  0.00  0.00    -0.359 OA
ATOM     13  N   UNL     1      -5.882 -11.128  20.334  0.00  0.00    -0.083 NA
ATOM     35  C   UNL     1      -6.123 -11.234  18.072  0.00  0.00    +0.054 A 
ATOM     36  C   UNL     1      -7.261 -10.703  18.620  0.00  0.00    +0.141 A 
ATOM     37  C   UNL     1      -5.299 -11.480  19.184  0.00  0.00    +0.087 A 
ATOM     38  C   UNL     1      -8.530 -10.217  18.063  0.00  0.00    +0.089 C 
ATOM     39  C   UNL     1      -3.942 -12.051  19.200  0.00  0.00    +0.069 C 
ENDBRANCH  34  35
ENDBRANCH   7  34
ENDBRANCH  30   7
ENDBRANCH  21  22
ENDBRANCH  14  11
BRANCH  15   4
ATOM      4  O   UNL     1      -8.512  -7.184   8.568  0.00  0.00    -0.390 OA
ATOM     42  H   UNL     1      -8.375  -6.398   8.011  0.00  0.00    +0.210 HD
ENDBRANCH  15   4
TORSDOF 9
ENDMDL
MODEL 5
REMARK VINA RESULT:      -6.7      1.860      2.524
REMARK  Name = 45360397
REMARK  11 active torsions:
REMARK  status: ('A' for Active; 'I' for Inactive)
REMARK    1  A    between atoms: O_4  and  C_15
REMARK    2  A    between atoms: O_7  and  C_30
REMARK    3  A    between atoms: O_7  and  C_34
REMARK    4  A    between atoms: O_8  and  C_33
REMARK    5  A    between atoms: O_8  and  C_40
REMARK    6  A    between atoms: N_11  and  C_14
REMARK    7  A    between atoms: N_12  and  C_23
REMARK    8  A    between atoms: C_21  and  C_22
REMARK    9  A    between atoms: C_34  and  C_35
REMARK   10  A    between atoms: C_36  and  C_38
REMARK   11  A    between atoms: C_37  and  C_39
REMARK                            x       y       z     vdW  Elec       q    Type
REMARK                         _______ _______ _______ _____ _____    ______ ____
ROOT
ATOM      5  O   UNL     1      10.968   3.639   3.049  0.00  0.00    -0.252 OA
ATOM     10  N   UNL     1      12.024   5.174   1.682  0.00  0.00    -0.284 N 
ATOM     12  N   UNL     1      10.636   5.903   3.450  0.00  0.00    -0.269 N 
ATOM     14  C   UNL     1      13.637   7.071   2.064  0.00  0.00    +0.119 C 
ATOM     15  C   UNL     1      14.756   6.057   2.363  0.00  0.00    +0.136 C 
ATOM     16  C   UNL     1      15.023   5.018   1.269  0.00  0.00    +0.035 C 
ATOM     17  C   UNL     1      12.417   6.537   1.301  0.00  0.00    +0.134 C 
ATOM     18  C   UNL     1      14.078   3.815   1.335  0.00  0.00    +0.022 C 
ATOM     19  C   UNL     1      12.650   4.110   0.895  0.00  0.00    +0.109 C 
ATOM     20  C   UNL     1      11.181   4.819   2.762  0.00  0.00    +0.307 C 
ATOM     43  H   UNL     1      10.527   6.778   2.949  0.00  0.00    +0.156 HD
ENDROOT
BRANCH  12  23
ATOM     23  C   UNL     1      10.275   5.973   4.820  0.00  0.00    +0.035 A 
ATOM     26  C   UNL     1      11.265   6.091   5.796  0.00  0.00    +0.027 A 
ATOM     27  C   UNL     1       8.931   5.924   5.191  0.00  0.00    +0.027 A 
ATOM     31  C   UNL     1      10.910   6.159   7.143  0.00  0.00    +0.048 A 
ATOM     32  C   UNL     1       8.577   5.992   6.539  0.00  0.00    +0.048 A 
ATOM     33  C   UNL     1       9.567   6.109   7.515  0.00  0.00    +0.130 A 
BRANCH  33   8
ATOM      8  O   UNL     1       9.221   6.177   8.830  0.00  0.00    -0.406 OA
BRANCH   8  40
ATOM      1  F   UNL     1       9.401   3.927   8.778  0.00  0.00    -0.133 F 
ATOM      2  F   UNL     1      10.402   5.001  10.398  0.00  0.00    -0.133 F 
ATOM      3  F   UNL     1       8.200   4.825  10.367  0.00  0.00    -0.133 F 
ATOM     40  C   UNL     1       9.305   4.989   9.610  0.00  0.00    +0.575 C 
ENDBRANCH   8  40
ENDBRANCH  33   8
ENDBRANCH  12  23
BRANCH  14  11
ATOM      6  O   UNL     1      12.578   9.721   2.371  0.00  0.00    -0.270 OA
ATOM     11  N   UNL     1      13.228   7.702   3.304  0.00  0.00    -0.305 N 
ATOM     21  C   UNL     1      12.728   8.990   3.346  0.00  0.00    +0.244 C 
ATOM     41  H   UNL     1      13.284   7.137   4.144  0.00  0.00    +0.149 HD
BRANCH  21  22
ATOM     22  C   UNL     1      12.380   9.500   4.697  0.00  0.00    +0.037 A 
ATOM     24  C   UNL     1      11.050   9.771   5.018  0.00  0.00    +0.016 A 
ATOM     25  C   UNL     1      13.383   9.710   5.643  0.00  0.00    +0.016 A 
ATOM     28  C   UNL     1      10.723  10.253   6.285  0.00  0.00    +0.046 A 
ATOM     29  C   UNL     1      13.056  10.190   6.910  0.00  0.00    +0.046 A 
ATOM     30  C   UNL     1      11.727  10.462   7.232  0.00  0.00    +0.121 A 
BRANCH  30   7
ATOM      7  O   UNL     1      11.407  10.931   8.470  0.00  0.00    -0.487 OA
BRANCH   7  34
ATOM     34  C   UNL     1      10.094  10.649   8.951  0.00  0.00    +0.269 C 
BRANCH  34  35
ATOM      9  O   UNL     1       8.332  13.858   9.407  0.00  0.00    -0.359 OA
ATOM     13  N   UNL     1       8.744  13.643  10.716  0.00  0.00    -0.083 NA
ATOM     35  C   UNL     1       9.448  11.929   9.394  0.00  0.00    +0.054 A 
ATOM     36  C   UNL     1       8.757  12.830   8.628  0.00  0.00    +0.141 A 
ATOM     37  C   UNL     1       9.408  12.485  10.684  0.00  0.00    +0.087 A 
ATOM     38  C   UNL     1       8.404  12.901   7.204  0.00  0.00    +0.089 C 
ATOM     39  C   UNL     1       9.994  11.946  11.923  0.00  0.00    +0.069 C 
ENDBRANCH  34  35
ENDBRANCH   7  34
ENDBRANCH  30   7
ENDBRANCH  21  22
ENDBRANCH  14  11
BRANCH  15   4
ATOM      4  O   UNL     1      15.973   6.793   2.547  0.00  0.00    -0.390 OA
ATOM     42  H   UNL     1      16.346   6.972   1.667  0.00  0.00    +0.210 HD
ENDBRANCH  15   4
TORSDOF 9
ENDMDL
MODEL 6
REMARK VINA RESULT:      -6.5     16.168     19.363
REMARK  Name = 45360397
REMARK  11 active torsions:
REMARK  status: ('A' for Active; 'I' for Inactive)
REMARK    1  A    between atoms: O_4  and  C_15
REMARK    2  A    between atoms: O_7  and  C_30
REMARK    3  A    between atoms: O_7  and  C_34
REMARK    4  A    between atoms: O_8  and  C_33
REMARK    5  A    between atoms: O_8  and  C_40
REMARK    6  A    between atoms: N_11  and  C_14
REMARK    7  A    between atoms: N_12  and  C_23
REMARK    8  A    between atoms: C_21  and  C_22
REMARK    9  A    between atoms: C_34  and  C_35
REMARK   10  A    between atoms: C_36  and  C_38
REMARK   11  A    between atoms: C_37  and  C_39
REMARK                            x       y       z     vdW  Elec       q    Type
REMARK                         _______ _______ _______ _____ _____    ______ ____
ROOT
ATOM      5  O   UNL     1      14.172  12.704  22.420  0.00  0.00    -0.252 OA
ATOM     10  N   UNL     1      12.758  11.422  21.117  0.00  0.00    -0.284 N 
ATOM     12  N   UNL     1      15.099  11.302  20.816  0.00  0.00    -0.269 N 
ATOM     14  C   UNL     1      12.500   8.953  20.687  0.00  0.00    +0.119 C 
ATOM     15  C   UNL     1      11.918   8.769  22.101  0.00  0.00    +0.136 C 
ATOM     16  C   UNL     1      10.698   9.632  22.436  0.00  0.00    +0.035 C 
ATOM     17  C   UNL     1      12.480  10.379  20.120  0.00  0.00    +0.134 C 
ATOM     18  C   UNL     1      11.065  11.044  22.900  0.00  0.00    +0.022 C 
ATOM     19  C   UNL     1      11.576  11.958  21.793  0.00  0.00    +0.109 C 
ATOM     20  C   UNL     1      14.038  11.874  21.518  0.00  0.00    +0.307 C 
ATOM     43  H   UNL     1      14.920  10.961  19.879  0.00  0.00    +0.156 HD
ENDROOT
BRANCH  12  23
ATOM     23  C   UNL     1      16.417  11.053  21.280  0.00  0.00    +0.035 A 
ATOM     26  C   UNL     1      16.857  11.632  22.470  0.00  0.00    +0.027 A 
ATOM     27  C   UNL     1      17.271  10.230  20.545  0.00  0.00    +0.027 A 
ATOM     31  C   UNL     1      18.153  11.388  22.925  0.00  0.00    +0.048 A 
ATOM     32  C   UNL     1      18.567   9.987  21.001  0.00  0.00    +0.048 A 
ATOM     33  C   UNL     1      19.007  10.566  22.191  0.00  0.00    +0.130 A 
BRANCH  33   8
ATOM      8  O   UNL     1      20.272  10.327  22.637  0.00  0.00    -0.406 OA
BRANCH   8  40
ATOM      1  F   UNL     1      20.365   9.813  24.833  0.00  0.00    -0.133 F 
ATOM      2  F   UNL     1      19.519   8.332  23.467  0.00  0.00    -0.133 F 
ATOM      3  F   UNL     1      21.691   8.738  23.469  0.00  0.00    -0.133 F 
ATOM     40  C   UNL     1      20.465   9.288  23.591  0.00  0.00    +0.575 C 
ENDBRANCH   8  40
ENDBRANCH  33   8
ENDBRANCH  12  23
BRANCH  14  11
ATOM      6  O   UNL     1      13.368   6.618  19.264  0.00  0.00    -0.270 OA
ATOM     11  N   UNL     1      13.843   8.409  20.654  0.00  0.00    -0.305 N 
ATOM     21  C   UNL     1      14.161   7.272  19.935  0.00  0.00    +0.244 C 
ATOM     41  H   UNL     1      14.558   8.927  21.153  0.00  0.00    +0.149 HD
BRANCH  21  22
ATOM     22  C   UNL     1      15.576   6.829  20.027  0.00  0.00    +0.037 A 
ATOM     24  C   UNL     1      16.269   6.954  21.231  0.00  0.00    +0.016 A 
ATOM     25  C   UNL     1      16.211   6.290  18.908  0.00  0.00    +0.016 A 
ATOM     28  C   UNL     1      17.598   6.540  21.316  0.00  0.00    +0.046 A 
ATOM     29  C   UNL     1      17.540   5.875  18.994  0.00  0.00    +0.046 A 
ATOM     30  C   UNL     1      18.233   6.000  20.198  0.00  0.00    +0.121 A 
BRANCH  30   7
ATOM      7  O   UNL     1      19.531   5.595  20.282  0.00  0.00    -0.487 OA
BRANCH   7  34
ATOM     34  C   UNL     1      20.369   6.294  21.202  0.00  0.00    +0.269 C 
BRANCH  34  35
ATOM      9  O   UNL     1      23.694   4.772  20.704  0.00  0.00    -0.359 OA
ATOM     13  N   UNL     1      24.007   6.092  20.405  0.00  0.00    -0.083 NA
ATOM     35  C   UNL     1      21.799   5.924  20.938  0.00  0.00    +0.054 A 
ATOM     36  C   UNL     1      22.376   4.684  21.020  0.00  0.00    +0.141 A 
ATOM     37  C   UNL     1      22.860   6.761  20.551  0.00  0.00    +0.087 A 
ATOM     38  C   UNL     1      21.876   3.347  21.366  0.00  0.00    +0.089 C 
ATOM     39  C   UNL     1      22.827   8.214  20.309  0.00  0.00    +0.069 C 
ENDBRANCH  34  35
ENDBRANCH   7  34
ENDBRANCH  30   7
ENDBRANCH  21  22
ENDBRANCH  14  11
BRANCH  15   4
ATOM      4  O   UNL     1      11.512   7.400  22.230  0.00  0.00    -0.390 OA
ATOM     42  H   UNL     1      11.618   7.148  23.163  0.00  0.00    +0.210 HD
ENDBRANCH  15   4
TORSDOF 9
ENDMDL
MODEL 7
REMARK VINA RESULT:      -6.5      3.469      8.323
REMARK  Name = 45360397
REMARK  11 active torsions:
REMARK  status: ('A' for Active; 'I' for Inactive)
REMARK    1  A    between atoms: O_4  and  C_15
REMARK    2  A    between atoms: O_7  and  C_30
REMARK    3  A    between atoms: O_7  and  C_34
REMARK    4  A    between atoms: O_8  and  C_33
REMARK    5  A    between atoms: O_8  and  C_40
REMARK    6  A    between atoms: N_11  and  C_14
REMARK    7  A    between atoms: N_12  and  C_23
REMARK    8  A    between atoms: C_21  and  C_22
REMARK    9  A    between atoms: C_34  and  C_35
REMARK   10  A    between atoms: C_36  and  C_38
REMARK   11  A    between atoms: C_37  and  C_39
REMARK                            x       y       z     vdW  Elec       q    Type
REMARK                         _______ _______ _______ _____ _____    ______ ____
ROOT
ATOM      5  O   UNL     1       8.603   5.358   5.512  0.00  0.00    -0.252 OA
ATOM     10  N   UNL     1      10.270   6.070   6.946  0.00  0.00    -0.284 N 
ATOM     12  N   UNL     1      10.818   5.107   4.859  0.00  0.00    -0.269 N 
ATOM     14  C   UNL     1      12.172   7.713   6.774  0.00  0.00    +0.119 C 
ATOM     15  C   UNL     1      11.167   8.878   6.817  0.00  0.00    +0.136 C 
ATOM     16  C   UNL     1      10.226   8.902   8.026  0.00  0.00    +0.035 C 
ATOM     17  C   UNL     1      11.669   6.358   7.289  0.00  0.00    +0.134 C 
ATOM     18  C   UNL     1       8.998   8.005   7.854  0.00  0.00    +0.022 C 
ATOM     19  C   UNL     1       9.289   6.512   7.939  0.00  0.00    +0.109 C 
ATOM     20  C   UNL     1       9.807   5.493   5.739  0.00  0.00    +0.307 C 
ATOM     43  H   UNL     1      11.727   4.882   5.247  0.00  0.00    +0.156 HD
ENDROOT
BRANCH  12  23
ATOM     23  C   UNL     1      10.768   5.061   3.442  0.00  0.00    +0.035 A 
ATOM     26  C   UNL     1      11.313   3.972   2.760  0.00  0.00    +0.027 A 
ATOM     27  C   UNL     1      10.173   6.103   2.731  0.00  0.00    +0.027 A 
ATOM     31  C   UNL     1      11.263   3.927   1.367  0.00  0.00    +0.048 A 
ATOM     32  C   UNL     1      10.125   6.058   1.337  0.00  0.00    +0.048 A 
ATOM     33  C   UNL     1      10.670   4.969   0.656  0.00  0.00    +0.130 A 
BRANCH  33   8
ATOM      8  O   UNL     1      10.622   4.924  -0.704  0.00  0.00    -0.406 OA
BRANCH   8  40
ATOM      1  F   UNL     1      11.083   5.796  -2.735  0.00  0.00    -0.133 F 
ATOM      2  F   UNL     1       9.917   7.007  -1.338  0.00  0.00    -0.133 F 
ATOM      3  F   UNL     1      12.073   6.668  -0.993  0.00  0.00    -0.133 F 
ATOM     40  C   UNL     1      10.924   6.111  -1.429  0.00  0.00    +0.575 C 
ENDBRANCH   8  40
ENDBRANCH  33   8
ENDBRANCH  12  23
BRANCH  14  11
ATOM      6  O   UNL     1      14.893   8.083   5.942  0.00  0.00    -0.270 OA
ATOM     11  N   UNL     1      12.690   7.586   5.425  0.00  0.00    -0.305 N 
ATOM     21  C   UNL     1      14.024   7.787   5.126  0.00  0.00    +0.244 C 
ATOM     41  H   UNL     1      12.032   7.300   4.708  0.00  0.00    +0.149 HD
BRANCH  21  22
ATOM     22  C   UNL     1      14.390   7.646   3.693  0.00  0.00    +0.037 A 
ATOM     24  C   UNL     1      13.394   7.452   2.736  0.00  0.00    +0.016 A 
ATOM     25  C   UNL     1      15.728   7.705   3.306  0.00  0.00    +0.016 A 
ATOM     28  C   UNL     1      13.737   7.317   1.391  0.00  0.00    +0.046 A 
ATOM     29  C   UNL     1      16.071   7.571   1.961  0.00  0.00    +0.046 A 
ATOM     30  C   UNL     1      15.076   7.377   1.004  0.00  0.00    +0.121 A 
BRANCH  30   7
ATOM      7  O   UNL     1      15.411   7.246  -0.310  0.00  0.00    -0.487 OA
BRANCH   7  34
ATOM     34  C   UNL     1      16.090   6.050  -0.690  0.00  0.00    +0.269 C 
BRANCH  34  35
ATOM      9  O   UNL     1      13.708   3.232  -0.730  0.00  0.00    -0.359 OA
ATOM     13  N   UNL     1      13.549   3.677  -2.036  0.00  0.00    -0.083 NA
ATOM     35  C   UNL     1      15.078   4.976  -0.961  0.00  0.00    +0.054 A 
ATOM     36  C   UNL     1      14.622   4.014  -0.099  0.00  0.00    +0.141 A 
ATOM     37  C   UNL     1      14.376   4.719  -2.151  0.00  0.00    +0.087 A 
ATOM     38  C   UNL     1      14.912   3.678   1.301  0.00  0.00    +0.089 C 
ATOM     39  C   UNL     1      14.463   5.444  -3.430  0.00  0.00    +0.069 C 
ENDBRANCH  34  35
ENDBRANCH   7  34
ENDBRANCH  30   7
ENDBRANCH  21  22
ENDBRANCH  14  11
BRANCH  15   4
ATOM      4  O   UNL     1      11.917  10.100   6.846  0.00  0.00    -0.390 OA
ATOM     42  H   UNL     1      12.861   9.869   6.790  0.00  0.00    +0.210 HD
ENDBRANCH  15   4
TORSDOF 9
ENDMDL
MODEL 8
REMARK VINA RESULT:      -6.5     31.546     35.308
REMARK  Name = 45360397
REMARK  11 active torsions:
REMARK  status: ('A' for Active; 'I' for Inactive)
REMARK    1  A    between atoms: O_4  and  C_15
REMARK    2  A    between atoms: O_7  and  C_30
REMARK    3  A    between atoms: O_7  and  C_34
REMARK    4  A    between atoms: O_8  and  C_33
REMARK    5  A    between atoms: O_8  and  C_40
REMARK    6  A    between atoms: N_11  and  C_14
REMARK    7  A    between atoms: N_12  and  C_23
REMARK    8  A    between atoms: C_21  and  C_22
REMARK    9  A    between atoms: C_34  and  C_35
REMARK   10  A    between atoms: C_36  and  C_38
REMARK   11  A    between atoms: C_37  and  C_39
REMARK                            x       y       z     vdW  Elec       q    Type
REMARK                         _______ _______ _______ _____ _____    ______ ____
ROOT
ATOM      5  O   UNL     1       4.881  -7.934  39.203  0.00  0.00    -0.252 OA
ATOM     10  N   UNL     1       6.485  -6.338  38.732  0.00  0.00    -0.284 N 
ATOM     12  N   UNL     1       6.524  -8.432  37.637  0.00  0.00    -0.269 N 
ATOM     14  C   UNL     1       7.238  -5.147  36.644  0.00  0.00    +0.119 C 
ATOM     15  C   UNL     1       5.935  -4.328  36.642  0.00  0.00    +0.136 C 
ATOM     16  C   UNL     1       5.641  -3.541  37.923  0.00  0.00    +0.035 C 
ATOM     17  C   UNL     1       7.626  -5.812  37.971  0.00  0.00    +0.134 C 
ATOM     18  C   UNL     1       4.971  -4.384  39.010  0.00  0.00    +0.022 C 
ATOM     19  C   UNL     1       5.891  -5.396  39.682  0.00  0.00    +0.109 C 
ATOM     20  C   UNL     1       5.886  -7.610  38.566  0.00  0.00    +0.307 C 
ATOM     43  H   UNL     1       7.510  -8.277  37.463  0.00  0.00    +0.156 HD
ENDROOT
BRANCH  12  23
ATOM     23  C   UNL     1       5.944  -9.436  36.820  0.00  0.00    +0.035 A 
ATOM     26  C   UNL     1       5.677 -10.699  37.352  0.00  0.00    +0.027 A 
ATOM     27  C   UNL     1       5.641  -9.162  35.487  0.00  0.00    +0.027 A 
ATOM     31  C   UNL     1       5.106 -11.686  36.548  0.00  0.00    +0.048 A 
ATOM     32  C   UNL     1       5.071 -10.150  34.684  0.00  0.00    +0.048 A 
ATOM     33  C   UNL     1       4.804 -11.412  35.215  0.00  0.00    +0.130 A 
BRANCH  33   8
ATOM      8  O   UNL     1       4.246 -12.377  34.432  0.00  0.00    -0.406 OA
BRANCH   8  40
ATOM      1  F   UNL     1       2.442 -13.484  35.216  0.00  0.00    -0.133 F 
ATOM      2  F   UNL     1       2.246 -11.341  34.835  0.00  0.00    -0.133 F 
ATOM      3  F   UNL     1       2.391 -12.767  33.153  0.00  0.00    -0.133 F 
ATOM     40  C   UNL     1       2.827 -12.479  34.397  0.00  0.00    +0.575 C 
ENDBRANCH   8  40
ENDBRANCH  33   8
ENDBRANCH  12  23
BRANCH  14  11
ATOM      6  O   UNL     1       8.213  -4.829  33.963  0.00  0.00    -0.270 OA
ATOM     11  N   UNL     1       7.180  -6.130  35.578  0.00  0.00    -0.305 N 
ATOM     21  C   UNL     1       7.680  -5.878  34.315  0.00  0.00    +0.244 C 
ATOM     41  H   UNL     1       6.791  -7.036  35.814  0.00  0.00    +0.149 HD
BRANCH  21  22
ATOM     22  C   UNL     1       7.519  -6.977  33.329  0.00  0.00    +0.037 A 
ATOM     24  C   UNL     1       6.343  -7.079  32.585  0.00  0.00    +0.016 A 
ATOM     25  C   UNL     1       8.541  -7.908  33.149  0.00  0.00    +0.016 A 
ATOM     28  C   UNL     1       6.190  -8.113  31.662  0.00  0.00    +0.046 A 
ATOM     29  C   UNL     1       8.389  -8.941  32.225  0.00  0.00    +0.046 A 
ATOM     30  C   UNL     1       7.213  -9.044  31.482  0.00  0.00    +0.121 A 
BRANCH  30   7
ATOM      7  O   UNL     1       7.064 -10.053  30.579  0.00  0.00    -0.487 OA
BRANCH   7  34
ATOM     34  C   UNL     1       7.776 -11.263  30.835  0.00  0.00    +0.269 C 
BRANCH  34  35
ATOM      9  O   UNL     1       6.999 -13.729  28.203  0.00  0.00    -0.359 OA
ATOM     13  N   UNL     1       5.984 -14.034  29.101  0.00  0.00    -0.083 NA
ATOM     35  C   UNL     1       7.259 -12.338  29.926  0.00  0.00    +0.054 A 
ATOM     36  C   UNL     1       7.753 -12.717  28.706  0.00  0.00    +0.141 A 
ATOM     37  C   UNL     1       6.159 -13.191  30.122  0.00  0.00    +0.087 A 
ATOM     38  C   UNL     1       8.878 -12.267  27.876  0.00  0.00    +0.089 C 
ATOM     39  C   UNL     1       5.240 -13.239  31.272  0.00  0.00    +0.069 C 
ENDBRANCH  34  35
ENDBRANCH   7  34
ENDBRANCH  30   7
ENDBRANCH  21  22
ENDBRANCH  14  11
BRANCH  15   4
ATOM      4  O   UNL     1       6.020  -3.375  35.574  0.00  0.00    -0.390 OA
ATOM     42  H   UNL     1       5.286  -2.746  35.680  0.00  0.00    +0.210 HD
ENDBRANCH  15   4
TORSDOF 9
ENDMDL
MODEL 9
REMARK VINA RESULT:      -6.2      2.431      4.607
REMARK  Name = 45360397
REMARK  11 active torsions:
REMARK  status: ('A' for Active; 'I' for Inactive)
REMARK    1  A    between atoms: O_4  and  C_15
REMARK    2  A    between atoms: O_7  and  C_30
REMARK    3  A    between atoms: O_7  and  C_34
REMARK    4  A    between atoms: O_8  and  C_33
REMARK    5  A    between atoms: O_8  and  C_40
REMARK    6  A    between atoms: N_11  and  C_14
REMARK    7  A    between atoms: N_12  and  C_23
REMARK    8  A    between atoms: C_21  and  C_22
REMARK    9  A    between atoms: C_34  and  C_35
REMARK   10  A    between atoms: C_36  and  C_38
REMARK   11  A    between atoms: C_37  and  C_39
REMARK                            x       y       z     vdW  Elec       q    Type
REMARK                         _______ _______ _______ _____ _____    ______ ____
ROOT
ATOM      5  O   UNL     1      15.736   6.228   0.417  0.00  0.00    -0.252 OA
ATOM     10  N   UNL     1      14.487   4.313   0.758  0.00  0.00    -0.284 N 
ATOM     12  N   UNL     1      15.008   5.739   2.568  0.00  0.00    -0.269 N 
ATOM     14  C   UNL     1      12.197   3.836   1.692  0.00  0.00    +0.119 C 
ATOM     15  C   UNL     1      11.557   4.438   0.429  0.00  0.00    +0.136 C 
ATOM     16  C   UNL     1      11.998   3.819  -0.901  0.00  0.00    +0.035 C 
ATOM     17  C   UNL     1      13.667   3.412   1.578  0.00  0.00    +0.134 C 
ATOM     18  C   UNL     1      13.311   4.400  -1.433  0.00  0.00    +0.022 C 
ATOM     19  C   UNL     1      14.551   3.965  -0.663  0.00  0.00    +0.109 C 
ATOM     20  C   UNL     1      15.129   5.494   1.201  0.00  0.00    +0.307 C 
ATOM     43  H   UNL     1      14.859   4.946   3.182  0.00  0.00    +0.156 HD
ENDROOT
BRANCH  12  23
ATOM     23  C   UNL     1      14.984   6.994   3.230  0.00  0.00    +0.035 A 
ATOM     26  C   UNL     1      15.672   7.161   4.432  0.00  0.00    +0.027 A 
ATOM     27  C   UNL     1      14.274   8.060   2.678  0.00  0.00    +0.027 A 
ATOM     31  C   UNL     1      15.649   8.395   5.082  0.00  0.00    +0.048 A 
ATOM     32  C   UNL     1      14.251   9.294   3.329  0.00  0.00    +0.048 A 
ATOM     33  C   UNL     1      14.938   9.461   4.531  0.00  0.00    +0.130 A 
BRANCH  33   8
ATOM      8  O   UNL     1      14.917  10.665   5.166  0.00  0.00    -0.406 OA
BRANCH   8  40
ATOM      1  F   UNL     1      13.850   9.868   6.989  0.00  0.00    -0.133 F 
ATOM      2  F   UNL     1      14.134  12.029   6.828  0.00  0.00    -0.133 F 
ATOM      3  F   UNL     1      12.682  10.993   5.524  0.00  0.00    -0.133 F 
ATOM     40  C   UNL     1      13.889  10.905   6.121  0.00  0.00    +0.575 C 
ENDBRANCH   8  40
ENDBRANCH  33   8
ENDBRANCH  12  23
BRANCH  14  11
ATOM      6  O   UNL     1      10.058   3.815   3.606  0.00  0.00    -0.270 OA
ATOM     11  N   UNL     1      12.015   4.757   2.798  0.00  0.00    -0.305 N 
ATOM     21  C   UNL     1      10.946   4.662   3.668  0.00  0.00    +0.244 C 
ATOM     41  H   UNL     1      12.738   5.456   2.934  0.00  0.00    +0.149 HD
BRANCH  21  22
ATOM     22  C   UNL     1      10.889   5.698   4.731  0.00  0.00    +0.037 A 
ATOM     24  C   UNL     1      10.063   5.513   5.841  0.00  0.00    +0.016 A 
ATOM     25  C   UNL     1      11.659   6.855   4.620  0.00  0.00    +0.016 A 
ATOM     28  C   UNL     1      10.008   6.486   6.838  0.00  0.00    +0.046 A 
ATOM     29  C   UNL     1      11.604   7.828   5.617  0.00  0.00    +0.046 A 
ATOM     30  C   UNL     1      10.779   7.644   6.726  0.00  0.00    +0.121 A 
BRANCH  30   7
ATOM      7  O   UNL     1      10.725   8.594   7.700  0.00  0.00    -0.487 OA
BRANCH   7  34
ATOM     34  C   UNL     1       9.431   9.068   8.073  0.00  0.00    +0.269 C 
BRANCH  34  35
ATOM      9  O   UNL     1       9.276  12.549   6.860  0.00  0.00    -0.359 OA
ATOM     13  N   UNL     1       9.273  12.790   8.227  0.00  0.00    -0.083 NA
ATOM     35  C   UNL     1       9.366  10.549   7.840  0.00  0.00    +0.054 A 
ATOM     36  C   UNL     1       9.331  11.210   6.640  0.00  0.00    +0.141 A 
ATOM     37  C   UNL     1       9.327  11.581   8.792  0.00  0.00    +0.087 A 
ATOM     38  C   UNL     1       9.343  10.778   5.236  0.00  0.00    +0.089 C 
ATOM     39  C   UNL     1       9.341  11.462  10.260  0.00  0.00    +0.069 C 
ENDBRANCH  34  35
ENDBRANCH   7  34
ENDBRANCH  30   7
ENDBRANCH  21  22
ENDBRANCH  14  11
BRANCH  15   4
ATOM      4  O   UNL     1      10.138   4.252   0.527  0.00  0.00    -0.390 OA
ATOM     42  H   UNL     1       9.869   4.507   1.426  0.00  0.00    +0.210 HD
ENDBRANCH  15   4
TORSDOF 9
ENDMDL
MODEL 10
REMARK VINA RESULT:      -6.2     24.187     26.967
REMARK  Name = 45360397
REMARK  11 active torsions:
REMARK  status: ('A' for Active; 'I' for Inactive)
REMARK    1  A    between atoms: O_4  and  C_15
REMARK    2  A    between atoms: O_7  and  C_30
REMARK    3  A    between atoms: O_7  and  C_34
REMARK    4  A    between atoms: O_8  and  C_33
REMARK    5  A    between atoms: O_8  and  C_40
REMARK    6  A    between atoms: N_11  and  C_14
REMARK    7  A    between atoms: N_12  and  C_23
REMARK    8  A    between atoms: C_21  and  C_22
REMARK    9  A    between atoms: C_34  and  C_35
REMARK   10  A    between atoms: C_36  and  C_38
REMARK   11  A    between atoms: C_37  and  C_39
REMARK                            x       y       z     vdW  Elec       q    Type
REMARK                         _______ _______ _______ _____ _____    ______ ____
ROOT
ATOM      5  O   UNL     1      -7.463 -11.885  15.792  0.00  0.00    -0.252 OA
ATOM     10  N   UNL     1      -5.272 -12.614  15.685  0.00  0.00    -0.284 N 
ATOM     12  N   UNL     1      -6.611 -12.560  13.738  0.00  0.00    -0.269 N 
ATOM     14  C   UNL     1      -3.230 -11.902  14.393  0.00  0.00    +0.119 C 
ATOM     15  C   UNL     1      -3.124 -10.635  15.261  0.00  0.00    +0.136 C 
ATOM     16  C   UNL     1      -3.046 -10.868  16.773  0.00  0.00    +0.035 C 
ATOM     17  C   UNL     1      -4.071 -13.052  14.962  0.00  0.00    +0.134 C 
ATOM     18  C   UNL     1      -4.416 -11.059  17.428  0.00  0.00    +0.022 C 
ATOM     19  C   UNL     1      -5.083 -12.394  17.120  0.00  0.00    +0.109 C 
ATOM     20  C   UNL     1      -6.532 -12.320  15.110  0.00  0.00    +0.307 C 
ATOM     43  H   UNL     1      -5.988 -13.254  13.341  0.00  0.00    +0.156 HD
ENDROOT
BRANCH  12  23
ATOM     23  C   UNL     1      -7.414 -11.888  12.781  0.00  0.00    +0.035 A 
ATOM     26  C   UNL     1      -8.758 -12.235  12.633  0.00  0.00    +0.027 A 
ATOM     27  C   UNL     1      -6.862 -10.882  11.989  0.00  0.00    +0.027 A 
ATOM     31  C   UNL     1      -9.548 -11.575  11.693  0.00  0.00    +0.048 A 
ATOM     32  C   UNL     1      -7.653 -10.222  11.048  0.00  0.00    +0.048 A 
ATOM     33  C   UNL     1      -8.996 -10.569  10.900  0.00  0.00    +0.130 A 
BRANCH  33   8
ATOM      8  O   UNL     1      -9.768  -9.924   9.982  0.00  0.00    -0.406 OA
BRANCH   8  40
ATOM      1  F   UNL     1     -11.303 -11.285   9.038  0.00  0.00    -0.133 F 
ATOM      2  F   UNL     1     -10.347  -9.780   7.773  0.00  0.00    -0.133 F 
ATOM      3  F   UNL     1      -9.210 -11.544   8.466  0.00  0.00    -0.133 F 
ATOM     40  C   UNL     1     -10.143 -10.629   8.804  0.00  0.00    +0.575 C 
ENDBRANCH   8  40
ENDBRANCH  33   8
ENDBRANCH  12  23
BRANCH  14  11
ATOM      6  O   UNL     1      -1.609 -11.226  12.124  0.00  0.00    -0.270 OA
ATOM     11  N   UNL     1      -3.701 -11.531  13.072  0.00  0.00    -0.305 N 
ATOM     21  C   UNL     1      -2.834 -11.221  12.041  0.00  0.00    +0.244 C 
ATOM     41  H   UNL     1      -4.703 -11.550  12.923  0.00  0.00    +0.149 HD
BRANCH  21  22
ATOM     22  C   UNL     1      -3.474 -10.835  10.758  0.00  0.00    +0.037 A 
ATOM     24  C   UNL     1      -3.953 -11.821   9.894  0.00  0.00    +0.016 A 
ATOM     25  C   UNL     1      -3.595  -9.489  10.416  0.00  0.00    +0.016 A 
ATOM     28  C   UNL     1      -4.551 -11.459   8.687  0.00  0.00    +0.046 A 
ATOM     29  C   UNL     1      -4.194  -9.127   9.210  0.00  0.00    +0.046 A 
ATOM     30  C   UNL     1      -4.672 -10.111   8.346  0.00  0.00    +0.121 A 
BRANCH  30   7
ATOM      7  O   UNL     1      -5.258  -9.758   7.168  0.00  0.00    -0.487 OA
BRANCH   7  34
ATOM     34  C   UNL     1      -6.614 -10.159   6.972  0.00  0.00    +0.269 C 
BRANCH  34  35
ATOM      9  O   UNL     1      -8.492  -7.634   5.046  0.00  0.00    -0.359 OA
ATOM     13  N   UNL     1      -8.515  -7.023   6.294  0.00  0.00    -0.083 NA
ATOM     35  C   UNL     1      -7.392  -9.000   6.422  0.00  0.00    +0.054 A 
ATOM     36  C   UNL     1      -7.821  -8.811   5.134  0.00  0.00    +0.141 A 
ATOM     37  C   UNL     1      -7.852  -7.858   7.099  0.00  0.00    +0.087 A 
ATOM     38  C   UNL     1      -7.702  -9.589   3.895  0.00  0.00    +0.089 C 
ATOM     39  C   UNL     1      -7.682  -7.516   8.522  0.00  0.00    +0.069 C 
ENDBRANCH  34  35
ENDBRANCH   7  34
ENDBRANCH  30   7
ENDBRANCH  21  22
ENDBRANCH  14  11
BRANCH  15   4
ATOM      4  O   UNL     1      -1.926  -9.945  14.881  0.00  0.00    -0.390 OA
ATOM     42  H   UNL     1      -1.558  -9.531  15.680  0.00  0.00    +0.210 HD
ENDBRANCH  15   4
TORSDOF 9
ENDMDL
