MODEL 1
REMARK VINA RESULT:      -7.1      0.000      0.000
REMARK  Name = 11884513
REMARK  8 active torsions:
REMARK  status: ('A' for Active; 'I' for Inactive)
REMARK    1  A    between atoms: O_6  and  C_22
REMARK    2  A    between atoms: O_6  and  C_33
REMARK    3  A    between atoms: O_7  and  C_34
REMARK    4  A    between atoms: N_10  and  C_18
REMARK    5  A    between atoms: N_11  and  C_20
REMARK    6  A    between atoms: C_18  and  C_21
REMARK    7  A    between atoms: C_19  and  C_22
REMARK    8  A    between atoms: C_33  and  C_34
REMARK                            x       y       z     vdW  Elec       q    Type
REMARK                         _______ _______ _______ _____ _____    ______ ____
ROOT
ATOM      3  O   UNL     1      12.395   9.015  18.398  0.00  0.00    -0.273 OA
ATOM      4  O   UNL     1      14.854   8.083  22.283  0.00  0.00    -0.252 OA
ATOM      5  O   UNL     1      13.851   8.735  15.661  0.00  0.00    -0.273 OA
ATOM      9  N   UNL     1      14.558  10.205  17.302  0.00  0.00    -0.286 N 
ATOM     10  N   UNL     1      15.818   9.305  20.589  0.00  0.00    -0.275 N 
ATOM     11  N   UNL     1      13.559   8.544  20.386  0.00  0.00    -0.192 N 
ATOM     12  C   UNL     1      15.758   9.896  19.272  0.00  0.00    +0.109 C 
ATOM     13  C   UNL     1      14.783   9.202  18.345  0.00  0.00    +0.183 C 
ATOM     14  C   UNL     1      15.291  11.353  19.240  0.00  0.00    +0.044 C 
ATOM     15  C   UNL     1      14.924  11.542  17.772  0.00  0.00    +0.110 C 
ATOM     16  C   UNL     1      13.453   8.922  19.026  0.00  0.00    +0.250 C 
ATOM     17  C   UNL     1      14.747   8.620  21.174  0.00  0.00    +0.316 C 
ATOM     19  C   UNL     1      14.152   9.874  16.018  0.00  0.00    +0.242 C 
ENDROOT
BRANCH  11  20
ATOM      1 CL   UNL     1      10.568   4.524  21.574  0.00  0.00    -0.081 Cl
ATOM      2  F   UNL     1       8.953   6.646  22.869  0.00  0.00    -0.204 F 
ATOM     20  C   UNL     1      12.360   8.045  21.033  0.00  0.00    +0.047 A 
ATOM     23  C   UNL     1      12.079   6.687  20.995  0.00  0.00    +0.047 A 
ATOM     24  C   UNL     1      11.512   8.934  21.679  0.00  0.00    +0.027 A 
ATOM     27  C   UNL     1      10.926   6.208  21.616  0.00  0.00    +0.078 A 
ATOM     28  C   UNL     1      10.359   8.455  22.300  0.00  0.00    +0.041 A 
ATOM     31  C   UNL     1      10.066   7.092  22.268  0.00  0.00    +0.142 A 
ENDBRANCH  11  20
BRANCH  10  18
ATOM     18  C   UNL     1      17.062   9.497  21.329  0.00  0.00    +0.144 C 
BRANCH  18  21
ATOM     21  C   UNL     1      18.007   8.345  21.147  0.00  0.00    -0.030 A 
ATOM     25  C   UNL     1      17.625   7.259  20.367  0.00  0.00    +0.005 A 
ATOM     26  C   UNL     1      19.254   8.375  21.760  0.00  0.00    +0.005 A 
ATOM     29  C   UNL     1      18.504   6.189  20.199  0.00  0.00    +0.000 A 
ATOM     30  C   UNL     1      20.132   7.306  21.591  0.00  0.00    +0.000 A 
ATOM     32  C   UNL     1      19.757   6.212  20.811  0.00  0.00    +0.000 A 
ENDBRANCH  18  21
ENDBRANCH  10  18
BRANCH  19  22
ATOM     22  C   UNL     1      14.086  11.023  15.045  0.00  0.00    +0.256 C 
BRANCH  22   6
ATOM      6  O   UNL     1      15.010  10.738  14.023  0.00  0.00    -0.359 OA
BRANCH   6  33
ATOM     33  C   UNL     1      16.226  11.468  14.180  0.00  0.00    +0.280 C 
BRANCH  33  34
ATOM      8  O   UNL     1      16.857  13.423  12.883  0.00  0.00    -0.248 OA
ATOM     34  C   UNL     1      16.514  12.251  12.930  0.00  0.00    +0.331 C 
BRANCH  34   7
ATOM      7  O   UNL     1      16.339  11.468  11.836  0.00  0.00    -0.479 OA
ATOM     35  H   UNL     1      15.471  11.009  11.849  0.00  0.00    +0.295 HD
ENDBRANCH  34   7
ENDBRANCH  33  34
ENDBRANCH   6  33
ENDBRANCH  22   6
ENDBRANCH  19  22
TORSDOF 8
ENDMDL
MODEL 2
REMARK VINA RESULT:      -6.9     12.885     16.440
REMARK  Name = 11884513
REMARK  8 active torsions:
REMARK  status: ('A' for Active; 'I' for Inactive)
REMARK    1  A    between atoms: O_6  and  C_22
REMARK    2  A    between atoms: O_6  and  C_33
REMARK    3  A    between atoms: O_7  and  C_34
REMARK    4  A    between atoms: N_10  and  C_18
REMARK    5  A    between atoms: N_11  and  C_20
REMARK    6  A    between atoms: C_18  and  C_21
REMARK    7  A    between atoms: C_19  and  C_22
REMARK    8  A    between atoms: C_33  and  C_34
REMARK                            x       y       z     vdW  Elec       q    Type
REMARK                         _______ _______ _______ _____ _____    ______ ____
ROOT
ATOM      3  O   UNL     1      14.952   8.653   6.627  0.00  0.00    -0.273 OA
ATOM      4  O   UNL     1      17.106   8.126   2.492  0.00  0.00    -0.252 OA
ATOM      5  O   UNL     1      13.041   6.382   7.564  0.00  0.00    -0.273 OA
ATOM      9  N   UNL     1      12.701   7.565   5.605  0.00  0.00    -0.286 N 
ATOM     10  N   UNL     1      14.883   7.573   2.698  0.00  0.00    -0.275 N 
ATOM     11  N   UNL     1      16.082   8.449   4.575  0.00  0.00    -0.192 N 
ATOM     12  C   UNL     1      13.690   7.432   3.501  0.00  0.00    +0.109 C 
ATOM     13  C   UNL     1      13.976   7.221   4.973  0.00  0.00    +0.183 C 
ATOM     14  C   UNL     1      12.765   8.651   3.500  0.00  0.00    +0.044 C 
ATOM     15  C   UNL     1      11.879   8.386   4.714  0.00  0.00    +0.110 C 
ATOM     16  C   UNL     1      15.034   8.182   5.490  0.00  0.00    +0.250 C 
ATOM     17  C   UNL     1      16.093   8.069   3.198  0.00  0.00    +0.316 C 
ATOM     19  C   UNL     1      12.319   7.070   6.841  0.00  0.00    +0.242 C 
ENDROOT
BRANCH  11  20
ATOM      1 CL   UNL     1      20.556   8.340   7.123  0.00  0.00    -0.081 Cl
ATOM      2  F   UNL     1      20.499  11.238   6.496  0.00  0.00    -0.204 F 
ATOM     20  C   UNL     1      17.235   9.171   5.076  0.00  0.00    +0.047 A 
ATOM     23  C   UNL     1      18.220   8.486   5.773  0.00  0.00    +0.047 A 
ATOM     24  C   UNL     1      17.336  10.537   4.852  0.00  0.00    +0.027 A 
ATOM     27  C   UNL     1      19.328   9.181   6.256  0.00  0.00    +0.078 A 
ATOM     28  C   UNL     1      18.443  11.233   5.336  0.00  0.00    +0.041 A 
ATOM     31  C   UNL     1      19.440  10.555   6.038  0.00  0.00    +0.142 A 
ENDBRANCH  11  20
BRANCH  10  18
ATOM     18  C   UNL     1      14.761   7.213   1.289  0.00  0.00    +0.144 C 
BRANCH  18  21
ATOM     21  C   UNL     1      14.190   5.837   1.109  0.00  0.00    -0.030 A 
ATOM     25  C   UNL     1      14.830   4.746   1.687  0.00  0.00    +0.005 A 
ATOM     26  C   UNL     1      13.027   5.665   0.367  0.00  0.00    +0.005 A 
ATOM     29  C   UNL     1      14.299   3.467   1.520  0.00  0.00    +0.000 A 
ATOM     30  C   UNL     1      12.496   4.387   0.200  0.00  0.00    +0.000 A 
ATOM     32  C   UNL     1      13.132   3.287   0.776  0.00  0.00    +0.000 A 
ENDBRANCH  18  21
ENDBRANCH  10  18
BRANCH  19  22
ATOM     22  C   UNL     1      10.924   7.435   7.282  0.00  0.00    +0.256 C 
BRANCH  22   6
ATOM      6  O   UNL     1      10.151   6.263   7.183  0.00  0.00    -0.359 OA
BRANCH   6  33
ATOM     33  C   UNL     1       9.403   6.013   8.372  0.00  0.00    +0.280 C 
BRANCH  33  34
ATOM      8  O   UNL     1       9.929   4.580  10.262  0.00  0.00    -0.248 OA
ATOM     34  C   UNL     1       9.934   4.785   9.058  0.00  0.00    +0.331 C 
BRANCH  34   7
ATOM      7  O   UNL     1      10.431   3.915   8.142  0.00  0.00    -0.479 OA
ATOM     35  H   UNL     1      10.329   2.983   8.431  0.00  0.00    +0.295 HD
ENDBRANCH  34   7
ENDBRANCH  33  34
ENDBRANCH   6  33
ENDBRANCH  22   6
ENDBRANCH  19  22
TORSDOF 8
ENDMDL
MODEL 3
REMARK VINA RESULT:      -6.8      4.233      7.132
REMARK  Name = 11884513
REMARK  8 active torsions:
REMARK  status: ('A' for Active; 'I' for Inactive)
REMARK    1  A    between atoms: O_6  and  C_22
REMARK    2  A    between atoms: O_6  and  C_33
REMARK    3  A    between atoms: O_7  and  C_34
REMARK    4  A    between atoms: N_10  and  C_18
REMARK    5  A    between atoms: N_11  and  C_20
REMARK    6  A    between atoms: C_18  and  C_21
REMARK    7  A    between atoms: C_19  and  C_22
REMARK    8  A    between atoms: C_33  and  C_34
REMARK                            x       y       z     vdW  Elec       q    Type
REMARK                         _______ _______ _______ _____ _____    ______ ____
ROOT
ATOM      3  O   UNL     1      16.700   6.614  21.392  0.00  0.00    -0.273 OA
ATOM      4  O   UNL     1      19.894  10.031  21.018  0.00  0.00    -0.252 OA
ATOM      5  O   UNL     1      14.279   6.675  19.437  0.00  0.00    -0.273 OA
ATOM      9  N   UNL     1      14.725   8.394  20.919  0.00  0.00    -0.286 N 
ATOM     10  N   UNL     1      17.655  10.544  20.893  0.00  0.00    -0.275 N 
ATOM     11  N   UNL     1      18.351   8.283  21.250  0.00  0.00    -0.192 N 
ATOM     12  C   UNL     1      16.269  10.136  20.882  0.00  0.00    +0.109 C 
ATOM     13  C   UNL     1      16.065   8.709  20.419  0.00  0.00    +0.183 C 
ATOM     14  C   UNL     1      15.580  10.160  22.248  0.00  0.00    +0.044 C 
ATOM     15  C   UNL     1      14.341   9.305  22.000  0.00  0.00    +0.110 C 
ATOM     16  C   UNL     1      17.049   7.753  21.073  0.00  0.00    +0.250 C 
ATOM     17  C   UNL     1      18.718   9.650  21.067  0.00  0.00    +0.316 C 
ATOM     19  C   UNL     1      13.919   7.424  20.346  0.00  0.00    +0.242 C 
ENDROOT
BRANCH  11  20
ATOM      1 CL   UNL     1      21.476   6.553  24.959  0.00  0.00    -0.081 Cl
ATOM      2  F   UNL     1      22.360   4.740  22.786  0.00  0.00    -0.204 F 
ATOM     20  C   UNL     1      19.394   7.360  21.655  0.00  0.00    +0.047 A 
ATOM     23  C   UNL     1      19.872   7.399  22.957  0.00  0.00    +0.047 A 
ATOM     24  C   UNL     1      19.901   6.454  20.733  0.00  0.00    +0.027 A 
ATOM     27  C   UNL     1      20.877   6.513  23.345  0.00  0.00    +0.078 A 
ATOM     28  C   UNL     1      20.906   5.569  21.121  0.00  0.00    +0.041 A 
ATOM     31  C   UNL     1      21.393   5.598  22.427  0.00  0.00    +0.142 A 
ENDBRANCH  11  20
BRANCH  10  18
ATOM     18  C   UNL     1      17.910  11.974  20.759  0.00  0.00    +0.144 C 
BRANCH  18  21
ATOM     21  C   UNL     1      18.022  12.393  19.322  0.00  0.00    -0.030 A 
ATOM     25  C   UNL     1      19.279  12.548  18.747  0.00  0.00    +0.005 A 
ATOM     26  C   UNL     1      16.869  12.621  18.579  0.00  0.00    +0.005 A 
ATOM     29  C   UNL     1      19.382  12.937  17.412  0.00  0.00    +0.000 A 
ATOM     30  C   UNL     1      16.973  13.009  17.244  0.00  0.00    +0.000 A 
ATOM     32  C   UNL     1      18.230  13.168  16.660  0.00  0.00    +0.000 A 
ENDBRANCH  18  21
ENDBRANCH  10  18
BRANCH  19  22
ATOM     22  C   UNL     1      12.527   7.318  20.916  0.00  0.00    +0.256 C 
BRANCH  22   6
ATOM      6  O   UNL     1      11.646   7.268  19.820  0.00  0.00    -0.359 OA
BRANCH   6  33
ATOM     33  C   UNL     1      11.573   8.516  19.134  0.00  0.00    +0.280 C 
BRANCH  33  34
ATOM      8  O   UNL     1      11.495   9.131  16.784  0.00  0.00    -0.248 OA
ATOM     34  C   UNL     1      11.666   8.287  17.651  0.00  0.00    +0.331 C 
BRANCH  34   7
ATOM      7  O   UNL     1      11.971   6.990  17.395  0.00  0.00    -0.479 OA
ATOM     35  H   UNL     1      12.120   6.480  18.221  0.00  0.00    +0.295 HD
ENDBRANCH  34   7
ENDBRANCH  33  34
ENDBRANCH   6  33
ENDBRANCH  22   6
ENDBRANCH  19  22
TORSDOF 8
ENDMDL
MODEL 4
REMARK VINA RESULT:      -6.8     25.760     28.095
REMARK  Name = 11884513
REMARK  8 active torsions:
REMARK  status: ('A' for Active; 'I' for Inactive)
REMARK    1  A    between atoms: O_6  and  C_22
REMARK    2  A    between atoms: O_6  and  C_33
REMARK    3  A    between atoms: O_7  and  C_34
REMARK    4  A    between atoms: N_10  and  C_18
REMARK    5  A    between atoms: N_11  and  C_20
REMARK    6  A    between atoms: C_18  and  C_21
REMARK    7  A    between atoms: C_19  and  C_22
REMARK    8  A    between atoms: C_33  and  C_34
REMARK                            x       y       z     vdW  Elec       q    Type
REMARK                         _______ _______ _______ _____ _____    ______ ____
ROOT
ATOM      3  O   UNL     1     -12.913   8.509  19.470  0.00  0.00    -0.273 OA
ATOM      4  O   UNL     1     -14.838   9.076  23.711  0.00  0.00    -0.252 OA
ATOM      5  O   UNL     1      -9.903   9.228  19.138  0.00  0.00    -0.273 OA
ATOM      9  N   UNL     1     -11.487  10.778  19.802  0.00  0.00    -0.286 N 
ATOM     10  N   UNL     1     -13.422  10.685  22.877  0.00  0.00    -0.275 N 
ATOM     11  N   UNL     1     -13.940   8.748  21.572  0.00  0.00    -0.192 N 
ATOM     12  C   UNL     1     -12.538  11.170  21.842  0.00  0.00    +0.109 C 
ATOM     13  C   UNL     1     -11.931  10.067  21.003  0.00  0.00    +0.183 C 
ATOM     14  C   UNL     1     -13.202  12.074  20.800  0.00  0.00    +0.044 C 
ATOM     15  C   UNL     1     -12.183  12.059  19.664  0.00  0.00    +0.110 C 
ATOM     16  C   UNL     1     -12.967   9.036  20.584  0.00  0.00    +0.250 C 
ATOM     17  C   UNL     1     -14.131   9.483  22.781  0.00  0.00    +0.316 C 
ATOM     19  C   UNL     1     -10.465  10.314  18.990  0.00  0.00    +0.242 C 
ENDROOT
BRANCH  11  20
ATOM      1 CL   UNL     1     -18.365   6.970  19.629  0.00  0.00    -0.081 Cl
ATOM      2  F   UNL     1     -17.299   4.404  20.664  0.00  0.00    -0.204 F 
ATOM     20  C   UNL     1     -14.818   7.619  21.332  0.00  0.00    +0.047 A 
ATOM     23  C   UNL     1     -16.023   7.818  20.674  0.00  0.00    +0.047 A 
ATOM     24  C   UNL     1     -14.440   6.356  21.766  0.00  0.00    +0.027 A 
ATOM     27  C   UNL     1     -16.867   6.732  20.445  0.00  0.00    +0.078 A 
ATOM     28  C   UNL     1     -15.284   5.270  21.537  0.00  0.00    +0.041 A 
ATOM     31  C   UNL     1     -16.498   5.458  20.876  0.00  0.00    +0.142 A 
ENDBRANCH  11  20
BRANCH  10  18
ATOM     18  C   UNL     1     -13.588  11.548  24.043  0.00  0.00    +0.144 C 
BRANCH  18  21
ATOM     21  C   UNL     1     -12.815  11.048  25.227  0.00  0.00    -0.030 A 
ATOM     25  C   UNL     1     -13.493  10.674  26.383  0.00  0.00    +0.005 A 
ATOM     26  C   UNL     1     -11.429  10.962  25.158  0.00  0.00    +0.005 A 
ATOM     29  C   UNL     1     -12.773  10.209  27.483  0.00  0.00    +0.000 A 
ATOM     30  C   UNL     1     -10.711  10.496  26.259  0.00  0.00    +0.000 A 
ATOM     32  C   UNL     1     -11.383  10.120  27.422  0.00  0.00    +0.000 A 
ENDBRANCH  18  21
ENDBRANCH  10  18
BRANCH  19  22
ATOM     22  C   UNL     1     -10.062  11.235  17.867  0.00  0.00    +0.256 C 
BRANCH  22   6
ATOM      6  O   UNL     1      -9.763  10.416  16.762  0.00  0.00    -0.359 OA
BRANCH   6  33
ATOM     33  C   UNL     1     -10.933  10.056  16.030  0.00  0.00    +0.280 C 
BRANCH  33  34
ATOM      8  O   UNL     1     -10.535   8.027  14.752  0.00  0.00    -0.248 OA
ATOM     34  C   UNL     1     -10.934   8.575  15.769  0.00  0.00    +0.331 C 
BRANCH  34   7
ATOM      7  O   UNL     1     -11.449   7.912  16.836  0.00  0.00    -0.479 OA
ATOM     35  H   UNL     1     -12.422   7.806  16.766  0.00  0.00    +0.295 HD
ENDBRANCH  34   7
ENDBRANCH  33  34
ENDBRANCH   6  33
ENDBRANCH  22   6
ENDBRANCH  19  22
TORSDOF 8
ENDMDL
MODEL 5
REMARK VINA RESULT:      -6.6     14.839     19.395
REMARK  Name = 11884513
REMARK  8 active torsions:
REMARK  status: ('A' for Active; 'I' for Inactive)
REMARK    1  A    between atoms: O_6  and  C_22
REMARK    2  A    between atoms: O_6  and  C_33
REMARK    3  A    between atoms: O_7  and  C_34
REMARK    4  A    between atoms: N_10  and  C_18
REMARK    5  A    between atoms: N_11  and  C_20
REMARK    6  A    between atoms: C_18  and  C_21
REMARK    7  A    between atoms: C_19  and  C_22
REMARK    8  A    between atoms: C_33  and  C_34
REMARK                            x       y       z     vdW  Elec       q    Type
REMARK                         _______ _______ _______ _____ _____    ______ ____
ROOT
ATOM      3  O   UNL     1      10.448   5.911   3.467  0.00  0.00    -0.273 OA
ATOM      4  O   UNL     1       9.505   7.956  -0.649  0.00  0.00    -0.252 OA
ATOM      5  O   UNL     1       8.141   5.715   5.548  0.00  0.00    -0.273 OA
ATOM      9  N   UNL     1       8.917   7.738   4.737  0.00  0.00    -0.286 N 
ATOM     10  N   UNL     1       8.711   8.891   1.297  0.00  0.00    -0.275 N 
ATOM     11  N   UNL     1      10.043   6.905   1.375  0.00  0.00    -0.192 N 
ATOM     12  C   UNL     1       8.555   8.866   2.733  0.00  0.00    +0.109 C 
ATOM     13  C   UNL     1       8.638   7.475   3.324  0.00  0.00    +0.183 C 
ATOM     14  C   UNL     1       9.625   9.637   3.510  0.00  0.00    +0.044 C 
ATOM     15  C   UNL     1       9.458   9.086   4.923  0.00  0.00    +0.110 C 
ATOM     16  C   UNL     1       9.803   6.683   2.753  0.00  0.00    +0.250 C 
ATOM     17  C   UNL     1       9.438   7.929   0.585  0.00  0.00    +0.316 C 
ATOM     19  C   UNL     1       8.596   6.843   5.745  0.00  0.00    +0.242 C 
ENDROOT
BRANCH  11  20
ATOM      1 CL   UNL     1      14.878   6.000  -0.149  0.00  0.00    -0.081 Cl
ATOM      2  F   UNL     1      13.642   3.508  -1.173  0.00  0.00    -0.204 F 
ATOM     20  C   UNL     1      10.985   6.022   0.713  0.00  0.00    +0.047 A 
ATOM     23  C   UNL     1      12.317   6.395   0.615  0.00  0.00    +0.047 A 
ATOM     24  C   UNL     1      10.538   4.818   0.186  0.00  0.00    +0.027 A 
ATOM     27  C   UNL     1      13.222   5.547  -0.023  0.00  0.00    +0.078 A 
ATOM     28  C   UNL     1      11.442   3.970  -0.452  0.00  0.00    +0.041 A 
ATOM     31  C   UNL     1      12.784   4.334  -0.556  0.00  0.00    +0.142 A 
ENDBRANCH  11  20
BRANCH  10  18
ATOM     18  C   UNL     1       8.101  10.018   0.599  0.00  0.00    +0.144 C 
BRANCH  18  21
ATOM     21  C   UNL     1       6.639   9.796   0.342  0.00  0.00    -0.030 A 
ATOM     25  C   UNL     1       6.228   9.277  -0.881  0.00  0.00    +0.005 A 
ATOM     26  C   UNL     1       5.711  10.111   1.328  0.00  0.00    +0.005 A 
ATOM     29  C   UNL     1       4.869   9.070  -1.119  0.00  0.00    +0.000 A 
ATOM     30  C   UNL     1       4.353   9.904   1.089  0.00  0.00    +0.000 A 
ATOM     32  C   UNL     1       3.932   9.384  -0.135  0.00  0.00    +0.000 A 
ENDBRANCH  18  21
ENDBRANCH  10  18
BRANCH  19  22
ATOM     22  C   UNL     1       8.846   7.331   7.149  0.00  0.00    +0.256 C 
BRANCH  22   6
ATOM      6  O   UNL     1       9.660   6.366   7.771  0.00  0.00    -0.359 OA
BRANCH   6  33
ATOM     33  C   UNL     1       9.070   5.857   8.966  0.00  0.00    +0.280 C 
BRANCH  33  34
ATOM      8  O   UNL     1      10.117   4.449  10.647  0.00  0.00    -0.248 OA
ATOM     34  C   UNL     1       9.874   4.693   9.474  0.00  0.00    +0.331 C 
BRANCH  34   7
ATOM      7  O   UNL     1      10.304   3.932   8.436  0.00  0.00    -0.479 OA
ATOM     35  H   UNL     1      10.065   2.987   8.552  0.00  0.00    +0.295 HD
ENDBRANCH  34   7
ENDBRANCH  33  34
ENDBRANCH   6  33
ENDBRANCH  22   6
ENDBRANCH  19  22
TORSDOF 8
ENDMDL
MODEL 6
REMARK VINA RESULT:      -6.5     13.263     16.637
REMARK  Name = 11884513
REMARK  8 active torsions:
REMARK  status: ('A' for Active; 'I' for Inactive)
REMARK    1  A    between atoms: O_6  and  C_22
REMARK    2  A    between atoms: O_6  and  C_33
REMARK    3  A    between atoms: O_7  and  C_34
REMARK    4  A    between atoms: N_10  and  C_18
REMARK    5  A    between atoms: N_11  and  C_20
REMARK    6  A    between atoms: C_18  and  C_21
REMARK    7  A    between atoms: C_19  and  C_22
REMARK    8  A    between atoms: C_33  and  C_34
REMARK                            x       y       z     vdW  Elec       q    Type
REMARK                         _______ _______ _______ _____ _____    ______ ____
ROOT
ATOM      3  O   UNL     1      14.176   7.052   2.700  0.00  0.00    -0.273 OA
ATOM      4  O   UNL     1      10.095   4.762   3.038  0.00  0.00    -0.252 OA
ATOM      5  O   UNL     1      15.612   7.850   5.343  0.00  0.00    -0.273 OA
ATOM      9  N   UNL     1      13.492   8.602   4.803  0.00  0.00    -0.286 N 
ATOM     10  N   UNL     1      10.519   6.548   4.424  0.00  0.00    -0.275 N 
ATOM     11  N   UNL     1      12.137   5.884   2.792  0.00  0.00    -0.192 N 
ATOM     12  C   UNL     1      11.397   7.591   4.900  0.00  0.00    +0.109 C 
ATOM     13  C   UNL     1      12.865   7.284   4.691  0.00  0.00    +0.183 C 
ATOM     14  C   UNL     1      11.225   8.945   4.206  0.00  0.00    +0.044 C 
ATOM     15  C   UNL     1      12.513   9.669   4.587  0.00  0.00    +0.110 C 
ATOM     16  C   UNL     1      13.140   6.746   3.297  0.00  0.00    +0.250 C 
ATOM     17  C   UNL     1      10.854   5.675   3.382  0.00  0.00    +0.316 C 
ATOM     19  C   UNL     1      14.817   8.775   5.171  0.00  0.00    +0.242 C 
ENDROOT
BRANCH  11  20
ATOM      1 CL   UNL     1      11.836   5.629  -2.343  0.00  0.00    -0.081 Cl
ATOM      2  F   UNL     1      13.285   3.084  -1.880  0.00  0.00    -0.204 F 
ATOM     20  C   UNL     1      12.435   5.159   1.572  0.00  0.00    +0.047 A 
ATOM     23  C   UNL     1      12.038   5.684   0.350  0.00  0.00    +0.047 A 
ATOM     24  C   UNL     1      13.112   3.949   1.645  0.00  0.00    +0.027 A 
ATOM     27  C   UNL     1      12.324   4.985  -0.822  0.00  0.00    +0.078 A 
ATOM     28  C   UNL     1      13.397   3.250   0.472  0.00  0.00    +0.041 A 
ATOM     31  C   UNL     1      13.003   3.768  -0.761  0.00  0.00    +0.142 A 
ENDBRANCH  11  20
BRANCH  10  18
ATOM     18  C   UNL     1       9.207   6.466   5.060  0.00  0.00    +0.144 C 
BRANCH  18  21
ATOM     21  C   UNL     1       9.303   6.022   6.491  0.00  0.00    -0.030 A 
ATOM     25  C   UNL     1       9.804   4.759   6.786  0.00  0.00    +0.005 A 
ATOM     26  C   UNL     1       8.891   6.877   7.506  0.00  0.00    +0.005 A 
ATOM     29  C   UNL     1       9.893   4.347   8.115  0.00  0.00    +0.000 A 
ATOM     30  C   UNL     1       8.981   6.465   8.835  0.00  0.00    +0.000 A 
ATOM     32  C   UNL     1       9.481   5.199   9.140  0.00  0.00    +0.000 A 
ENDBRANCH  18  21
ENDBRANCH  10  18
BRANCH  19  22
ATOM     22  C   UNL     1      15.259  10.205   5.350  0.00  0.00    +0.256 C 
BRANCH  22   6
ATOM      6  O   UNL     1      15.672  10.334   6.689  0.00  0.00    -0.359 OA
BRANCH   6  33
ATOM     33  C   UNL     1      15.341  11.611   7.231  0.00  0.00    +0.280 C 
BRANCH  33  34
ATOM      8  O   UNL     1      13.249  12.627   6.530  0.00  0.00    -0.248 OA
ATOM     34  C   UNL     1      13.851  11.804   7.204  0.00  0.00    +0.331 C 
BRANCH  34   7
ATOM      7  O   UNL     1      13.249  10.926   8.045  0.00  0.00    -0.479 OA
ATOM     35  H   UNL     1      12.274  11.044   8.061  0.00  0.00    +0.295 HD
ENDBRANCH  34   7
ENDBRANCH  33  34
ENDBRANCH   6  33
ENDBRANCH  22   6
ENDBRANCH  19  22
TORSDOF 8
ENDMDL
MODEL 7
REMARK VINA RESULT:      -6.3     27.701     29.868
REMARK  Name = 11884513
REMARK  8 active torsions:
REMARK  status: ('A' for Active; 'I' for Inactive)
REMARK    1  A    between atoms: O_6  and  C_22
REMARK    2  A    between atoms: O_6  and  C_33
REMARK    3  A    between atoms: O_7  and  C_34
REMARK    4  A    between atoms: N_10  and  C_18
REMARK    5  A    between atoms: N_11  and  C_20
REMARK    6  A    between atoms: C_18  and  C_21
REMARK    7  A    between atoms: C_19  and  C_22
REMARK    8  A    between atoms: C_33  and  C_34
REMARK                            x       y       z     vdW  Elec       q    Type
REMARK                         _______ _______ _______ _____ _____    ______ ____
ROOT
ATOM      3  O   UNL     1      -4.900 -10.398  14.612  0.00  0.00    -0.273 OA
ATOM      4  O   UNL     1      -3.446 -13.821  11.752  0.00  0.00    -0.252 OA
ATOM      5  O   UNL     1      -4.074 -10.567  17.609  0.00  0.00    -0.273 OA
ATOM      9  N   UNL     1      -5.335 -12.205  16.571  0.00  0.00    -0.286 N 
ATOM     10  N   UNL     1      -4.245 -14.346  13.844  0.00  0.00    -0.275 N 
ATOM     11  N   UNL     1      -4.190 -12.067  13.116  0.00  0.00    -0.192 N 
ATOM     12  C   UNL     1      -4.768 -13.943  15.130  0.00  0.00    +0.109 C 
ATOM     13  C   UNL     1      -4.359 -12.542  15.534  0.00  0.00    +0.183 C 
ATOM     14  C   UNL     1      -6.295 -13.897  15.219  0.00  0.00    +0.044 C 
ATOM     15  C   UNL     1      -6.520 -13.059  16.473  0.00  0.00    +0.110 C 
ATOM     16  C   UNL     1      -4.522 -11.551  14.392  0.00  0.00    +0.250 C 
ATOM     17  C   UNL     1      -3.940 -13.442  12.820  0.00  0.00    +0.316 C 
ATOM     19  C   UNL     1      -5.086 -11.268  17.561  0.00  0.00    +0.242 C 
ENDROOT
BRANCH  11  20
ATOM      1 CL   UNL     1      -6.523  -9.663   9.205  0.00  0.00    -0.081 Cl
ATOM      2  F   UNL     1      -3.837  -8.443   8.906  0.00  0.00    -0.204 F 
ATOM     20  C   UNL     1      -4.103 -11.123  12.019  0.00  0.00    +0.047 A 
ATOM     23  C   UNL     1      -5.223 -10.879  11.237  0.00  0.00    +0.047 A 
ATOM     24  C   UNL     1      -2.901 -10.478  11.767  0.00  0.00    +0.027 A 
ATOM     27  C   UNL     1      -5.139  -9.972  10.181  0.00  0.00    +0.078 A 
ATOM     28  C   UNL     1      -2.815  -9.571  10.710  0.00  0.00    +0.041 A 
ATOM     31  C   UNL     1      -3.935  -9.318   9.918  0.00  0.00    +0.142 A 
ENDBRANCH  11  20
BRANCH  10  18
ATOM     18  C   UNL     1      -4.088 -15.781  13.631  0.00  0.00    +0.144 C 
BRANCH  18  21
ATOM     21  C   UNL     1      -2.837 -16.310  14.269  0.00  0.00    -0.030 A 
ATOM     25  C   UNL     1      -2.908 -16.930  15.511  0.00  0.00    +0.005 A 
ATOM     26  C   UNL     1      -1.619 -16.175  13.612  0.00  0.00    +0.005 A 
ATOM     29  C   UNL     1      -1.745 -17.422  16.104  0.00  0.00    +0.000 A 
ATOM     30  C   UNL     1      -0.457 -16.666  14.204  0.00  0.00    +0.000 A 
ATOM     32  C   UNL     1      -0.519 -17.290  15.451  0.00  0.00    +0.000 A 
ENDBRANCH  18  21
ENDBRANCH  10  18
BRANCH  19  22
ATOM     22  C   UNL     1      -6.156 -11.136  18.614  0.00  0.00    +0.256 C 
BRANCH  22   6
ATOM      6  O   UNL     1      -6.792  -9.901  18.389  0.00  0.00    -0.359 OA
BRANCH   6  33
ATOM     33  C   UNL     1      -8.092 -10.062  17.824  0.00  0.00    +0.280 C 
BRANCH  33  34
ATOM      8  O   UNL     1      -9.207  -8.251  16.649  0.00  0.00    -0.248 OA
ATOM     34  C   UNL     1      -8.295  -9.060  16.721  0.00  0.00    +0.331 C 
BRANCH  34   7
ATOM      7  O   UNL     1      -7.310  -9.178  15.795  0.00  0.00    -0.479 OA
ATOM     35  H   UNL     1      -6.559  -9.716  16.126  0.00  0.00    +0.295 HD
ENDBRANCH  34   7
ENDBRANCH  33  34
ENDBRANCH   6  33
ENDBRANCH  22   6
ENDBRANCH  19  22
TORSDOF 8
ENDMDL
MODEL 8
REMARK VINA RESULT:      -6.3     27.250     30.382
REMARK  Name = 11884513
REMARK  8 active torsions:
REMARK  status: ('A' for Active; 'I' for Inactive)
REMARK    1  A    between atoms: O_6  and  C_22
REMARK    2  A    between atoms: O_6  and  C_33
REMARK    3  A    between atoms: O_7  and  C_34
REMARK    4  A    between atoms: N_10  and  C_18
REMARK    5  A    between atoms: N_11  and  C_20
REMARK    6  A    between atoms: C_18  and  C_21
REMARK    7  A    between atoms: C_19  and  C_22
REMARK    8  A    between atoms: C_33  and  C_34
REMARK                            x       y       z     vdW  Elec       q    Type
REMARK                         _______ _______ _______ _____ _____    ______ ____
ROOT
ATOM      3  O   UNL     1      -5.556  -8.919  10.351  0.00  0.00    -0.273 OA
ATOM      4  O   UNL     1      -7.652 -10.386   6.418  0.00  0.00    -0.252 OA
ATOM      5  O   UNL     1      -2.458  -9.164  10.518  0.00  0.00    -0.273 OA
ATOM      9  N   UNL     1      -3.837 -10.998  10.223  0.00  0.00    -0.286 N 
ATOM     10  N   UNL     1      -5.963 -11.641   7.346  0.00  0.00    -0.275 N 
ATOM     11  N   UNL     1      -6.673  -9.615   8.402  0.00  0.00    -0.192 N 
ATOM     12  C   UNL     1      -4.951 -11.837   8.359  0.00  0.00    +0.109 C 
ATOM     13  C   UNL     1      -4.459 -10.546   8.976  0.00  0.00    +0.183 C 
ATOM     14  C   UNL     1      -5.405 -12.652   9.573  0.00  0.00    +0.044 C 
ATOM     15  C   UNL     1      -4.327 -12.325  10.601  0.00  0.00    +0.110 C 
ATOM     16  C   UNL     1      -5.606  -9.613   9.332  0.00  0.00    +0.250 C 
ATOM     17  C   UNL     1      -6.834 -10.545   7.331  0.00  0.00    +0.316 C 
ATOM     19  C   UNL     1      -2.843 -10.281  10.869  0.00  0.00    +0.242 C 
ENDROOT
BRANCH  11  20
ATOM      1 CL   UNL     1     -11.271  -8.247  10.274  0.00  0.00    -0.081 Cl
ATOM      2  F   UNL     1     -10.567  -5.678   8.972  0.00  0.00    -0.204 F 
ATOM     20  C   UNL     1      -7.690  -8.592   8.554  0.00  0.00    +0.047 A 
ATOM     23  C   UNL     1      -8.850  -8.881   9.258  0.00  0.00    +0.047 A 
ATOM     24  C   UNL     1      -7.487  -7.339   7.992  0.00  0.00    +0.027 A 
ATOM     27  C   UNL     1      -9.828  -7.898   9.403  0.00  0.00    +0.078 A 
ATOM     28  C   UNL     1      -8.465  -6.356   8.136  0.00  0.00    +0.041 A 
ATOM     31  C   UNL     1      -9.636  -6.635   8.842  0.00  0.00    +0.142 A 
ENDBRANCH  11  20
BRANCH  10  18
ATOM     18  C   UNL     1      -6.077 -12.687   6.334  0.00  0.00    +0.144 C 
BRANCH  18  21
ATOM     21  C   UNL     1      -4.753 -13.005   5.703  0.00  0.00    -0.030 A 
ATOM     25  C   UNL     1      -4.191 -12.113   4.797  0.00  0.00    +0.005 A 
ATOM     26  C   UNL     1      -4.101 -14.189   6.031  0.00  0.00    +0.005 A 
ATOM     29  C   UNL     1      -2.960 -12.409   4.211  0.00  0.00    +0.000 A 
ATOM     30  C   UNL     1      -2.871 -14.484   5.446  0.00  0.00    +0.000 A 
ATOM     32  C   UNL     1      -2.300 -13.595   4.535  0.00  0.00    +0.000 A 
ENDBRANCH  18  21
ENDBRANCH  10  18
BRANCH  19  22
ATOM     22  C   UNL     1      -2.236 -10.955  12.072  0.00  0.00    +0.256 C 
BRANCH  22   6
ATOM      6  O   UNL     1      -2.707 -10.261  13.202  0.00  0.00    -0.359 OA
BRANCH   6  33
ATOM     33  C   UNL     1      -1.733 -10.208  14.243  0.00  0.00    +0.280 C 
BRANCH  33  34
ATOM      8  O   UNL     1      -3.518 -10.830  15.769  0.00  0.00    -0.248 OA
ATOM     34  C   UNL     1      -2.326 -10.731  15.522  0.00  0.00    +0.331 C 
BRANCH  34   7
ATOM      7  O   UNL     1      -1.341 -11.085  16.385  0.00  0.00    -0.479 OA
ATOM     35  H   UNL     1      -0.987 -11.979  16.190  0.00  0.00    +0.295 HD
ENDBRANCH  34   7
ENDBRANCH  33  34
ENDBRANCH   6  33
ENDBRANCH  22   6
ENDBRANCH  19  22
TORSDOF 8
ENDMDL
MODEL 9
REMARK VINA RESULT:      -6.2     13.480     17.348
REMARK  Name = 11884513
REMARK  8 active torsions:
REMARK  status: ('A' for Active; 'I' for Inactive)
REMARK    1  A    between atoms: O_6  and  C_22
REMARK    2  A    between atoms: O_6  and  C_33
REMARK    3  A    between atoms: O_7  and  C_34
REMARK    4  A    between atoms: N_10  and  C_18
REMARK    5  A    between atoms: N_11  and  C_20
REMARK    6  A    between atoms: C_18  and  C_21
REMARK    7  A    between atoms: C_19  and  C_22
REMARK    8  A    between atoms: C_33  and  C_34
REMARK                            x       y       z     vdW  Elec       q    Type
REMARK                         _______ _______ _______ _____ _____    ______ ____
ROOT
ATOM      3  O   UNL     1      13.920   6.360   2.338  0.00  0.00    -0.273 OA
ATOM      4  O   UNL     1      11.259   8.292   5.685  0.00  0.00    -0.252 OA
ATOM      5  O   UNL     1      12.619   5.878  -0.448  0.00  0.00    -0.273 OA
ATOM      9  N   UNL     1      11.812   4.903   1.488  0.00  0.00    -0.286 N 
ATOM     10  N   UNL     1      10.380   6.651   4.335  0.00  0.00    -0.275 N 
ATOM     11  N   UNL     1      12.653   7.344   4.058  0.00  0.00    -0.192 N 
ATOM     12  C   UNL     1      10.507   5.726   3.232  0.00  0.00    +0.109 C 
ATOM     13  C   UNL     1      11.538   6.149   2.207  0.00  0.00    +0.183 C 
ATOM     14  C   UNL     1      10.964   4.318   3.622  0.00  0.00    +0.044 C 
ATOM     15  C   UNL     1      11.410   3.740   2.282  0.00  0.00    +0.110 C 
ATOM     16  C   UNL     1      12.830   6.612   2.858  0.00  0.00    +0.250 C 
ATOM     17  C   UNL     1      11.423   7.476   4.770  0.00  0.00    +0.316 C 
ATOM     19  C   UNL     1      12.290   4.876   0.188  0.00  0.00    +0.242 C 
ENDROOT
BRANCH  11  20
ATOM      1 CL   UNL     1      15.819  11.406   4.010  0.00  0.00    -0.081 Cl
ATOM      2  F   UNL     1      17.130   9.877   6.186  0.00  0.00    -0.204 F 
ATOM     20  C   UNL     1      13.818   8.008   4.610  0.00  0.00    +0.047 A 
ATOM     23  C   UNL     1      14.207   9.239   4.103  0.00  0.00    +0.047 A 
ATOM     24  C   UNL     1      14.527   7.401   5.637  0.00  0.00    +0.027 A 
ATOM     27  C   UNL     1      15.328   9.877   4.633  0.00  0.00    +0.078 A 
ATOM     28  C   UNL     1      15.649   8.038   6.167  0.00  0.00    +0.041 A 
ATOM     31  C   UNL     1      16.049   9.276   5.665  0.00  0.00    +0.142 A 
ENDBRANCH  11  20
BRANCH  10  18
ATOM     18  C   UNL     1       9.096   6.657   5.029  0.00  0.00    +0.144 C 
BRANCH  18  21
ATOM     21  C   UNL     1       9.219   6.163   6.441  0.00  0.00    -0.030 A 
ATOM     25  C   UNL     1       8.840   6.988   7.493  0.00  0.00    +0.005 A 
ATOM     26  C   UNL     1       9.710   4.885   6.682  0.00  0.00    +0.005 A 
ATOM     29  C   UNL     1       8.954   6.528   8.805  0.00  0.00    +0.000 A 
ATOM     30  C   UNL     1       9.823   4.425   7.994  0.00  0.00    +0.000 A 
ATOM     32  C   UNL     1       9.445   5.247   9.055  0.00  0.00    +0.000 A 
ENDBRANCH  18  21
ENDBRANCH  10  18
BRANCH  19  22
ATOM     22  C   UNL     1      12.400   3.507  -0.433  0.00  0.00    +0.256 C 
BRANCH  22   6
ATOM      6  O   UNL     1      12.695   3.706  -1.795  0.00  0.00    -0.359 OA
BRANCH   6  33
ATOM     33  C   UNL     1      11.742   3.073  -2.647  0.00  0.00    +0.280 C 
BRANCH  33  34
ATOM      8  O   UNL     1      11.035   4.941  -4.030  0.00  0.00    -0.248 OA
ATOM     34  C   UNL     1      10.781   4.096  -3.185  0.00  0.00    +0.331 C 
BRANCH  34   7
ATOM      7  O   UNL     1       9.567   3.955  -2.595  0.00  0.00    -0.479 OA
ATOM     35  H   UNL     1       9.227   3.038  -2.672  0.00  0.00    +0.295 HD
ENDBRANCH  34   7
ENDBRANCH  33  34
ENDBRANCH   6  33
ENDBRANCH  22   6
ENDBRANCH  19  22
TORSDOF 8
ENDMDL
MODEL 10
REMARK VINA RESULT:      -6.1     27.148     30.737
REMARK  Name = 11884513
REMARK  8 active torsions:
REMARK  status: ('A' for Active; 'I' for Inactive)
REMARK    1  A    between atoms: O_6  and  C_22
REMARK    2  A    between atoms: O_6  and  C_33
REMARK    3  A    between atoms: O_7  and  C_34
REMARK    4  A    between atoms: N_10  and  C_18
REMARK    5  A    between atoms: N_11  and  C_20
REMARK    6  A    between atoms: C_18  and  C_21
REMARK    7  A    between atoms: C_19  and  C_22
REMARK    8  A    between atoms: C_33  and  C_34
REMARK                            x       y       z     vdW  Elec       q    Type
REMARK                         _______ _______ _______ _____ _____    ______ ____
ROOT
ATOM      3  O   UNL     1      -7.204  -9.451  16.014  0.00  0.00    -0.273 OA
ATOM      4  O   UNL     1     -11.113 -10.592  18.345  0.00  0.00    -0.252 OA
ATOM      5  O   UNL     1      -5.157 -11.720  15.422  0.00  0.00    -0.273 OA
ATOM      9  N   UNL     1      -5.772 -11.129  17.572  0.00  0.00    -0.286 N 
ATOM     10  N   UNL     1      -9.090 -11.455  19.020  0.00  0.00    -0.275 N 
ATOM     11  N   UNL     1      -9.195  -9.953  17.160  0.00  0.00    -0.192 N 
ATOM     12  C   UNL     1      -7.663 -11.600  18.847  0.00  0.00    +0.109 C 
ATOM     13  C   UNL     1      -7.205 -11.392  17.419  0.00  0.00    +0.183 C 
ATOM     14  C   UNL     1      -6.814 -10.597  19.633  0.00  0.00    +0.044 C 
ATOM     15  C   UNL     1      -5.460 -10.707  18.939  0.00  0.00    +0.110 C 
ATOM     16  C   UNL     1      -7.845 -10.165  16.790  0.00  0.00    +0.250 C 
ATOM     17  C   UNL     1      -9.886 -10.650  18.197  0.00  0.00    +0.316 C 
ATOM     19  C   UNL     1      -4.854 -11.365  16.562  0.00  0.00    +0.242 C 
ENDROOT
BRANCH  11  20
ATOM      1 CL   UNL     1     -11.848  -8.650  12.943  0.00  0.00    -0.081 Cl
ATOM      2  F   UNL     1     -12.024  -6.056  14.368  0.00  0.00    -0.204 F 
ATOM     20  C   UNL     1      -9.934  -8.941  16.430  0.00  0.00    +0.047 A 
ATOM     23  C   UNL     1     -10.470  -9.250  15.188  0.00  0.00    +0.047 A 
ATOM     24  C   UNL     1     -10.093  -7.678  16.984  0.00  0.00    +0.027 A 
ATOM     27  C   UNL     1     -11.179  -8.276  14.485  0.00  0.00    +0.078 A 
ATOM     28  C   UNL     1     -10.802  -6.704  16.281  0.00  0.00    +0.041 A 
ATOM     31  C   UNL     1     -11.345  -7.004  15.032  0.00  0.00    +0.142 A 
ENDBRANCH  11  20
BRANCH  10  18
ATOM     18  C   UNL     1      -9.680 -12.165  20.150  0.00  0.00    +0.144 C 
BRANCH  18  21
ATOM     21  C   UNL     1      -9.689 -13.651  19.937  0.00  0.00    -0.030 A 
ATOM     25  C   UNL     1     -10.150 -14.170  18.733  0.00  0.00    +0.005 A 
ATOM     26  C   UNL     1      -9.236 -14.493  20.946  0.00  0.00    +0.005 A 
ATOM     29  C   UNL     1     -10.157 -15.551  18.536  0.00  0.00    +0.000 A 
ATOM     30  C   UNL     1      -9.243 -15.873  20.749  0.00  0.00    +0.000 A 
ATOM     32  C   UNL     1      -9.704 -16.402  19.544  0.00  0.00    +0.000 A 
ENDBRANCH  18  21
ENDBRANCH  10  18
BRANCH  19  22
ATOM     22  C   UNL     1      -3.410 -11.151  16.936  0.00  0.00    +0.256 C 
BRANCH  22   6
ATOM      6  O   UNL     1      -2.790 -10.554  15.822  0.00  0.00    -0.359 OA
BRANCH   6  33
ATOM     33  C   UNL     1      -1.613 -11.256  15.425  0.00  0.00    +0.280 C 
BRANCH  33  34
ATOM      8  O   UNL     1      -1.728 -11.854  13.073  0.00  0.00    -0.248 OA
ATOM     34  C   UNL     1      -1.919 -12.136  14.246  0.00  0.00    +0.331 C 
BRANCH  34   7
ATOM      7  O   UNL     1      -2.450 -13.313  14.666  0.00  0.00    -0.479 OA
ATOM     35  H   UNL     1      -3.337 -13.192  15.067  0.00  0.00    +0.295 HD
ENDBRANCH  34   7
ENDBRANCH  33  34
ENDBRANCH   6  33
ENDBRANCH  22   6
ENDBRANCH  19  22
TORSDOF 8
ENDMDL
