REMARK  Name = 26742338
REMARK  5 active torsions:
REMARK  status: ('A' for Active; 'I' for Inactive)
REMARK    1  A    between atoms: O_3  and  C_14
REMARK    2  A    between atoms: O_3  and  C_17
REMARK    3  A    between atoms: N_6  and  C_18
REMARK    4  A    between atoms: C_8  and  C_14
REMARK    5  A    between atoms: C_10  and  C_15
REMARK                            x       y       z     vdW  Elec       q    Type
REMARK                         _______ _______ _______ _____ _____    ______ ____
ROOT
ATOM      3  O   UNL     1       0.274  -0.610   0.339  0.00  0.00    -0.449 OA
ENDROOT
BRANCH   3  17
ATOM      4  O   UNL     1      -1.032   0.703   1.680  0.00  0.00    -0.226 OA
ATOM      6  N   UNL     1      -1.930  -0.510  -0.110  0.00  0.00    -0.248 N 
ATOM     17  C   UNL     1      -0.928  -0.061   0.728  0.00  0.00    +0.405 C 
ATOM     24  H   UNL     1      -1.648  -1.146  -0.852  0.00  0.00    +0.158 HD
BRANCH   6  18
ATOM      1  F   UNL     1      -3.729  -1.578  -1.950  0.00  0.00    -0.203 F 
ATOM      2  F   UNL     1      -7.329   0.733   0.071  0.00  0.00    -0.205 F 
ATOM     18  C   UNL     1      -3.307  -0.195  -0.066  0.00  0.00    +0.072 A 
ATOM     19  C   UNL     1      -4.182  -0.746  -1.002  0.00  0.00    +0.147 A 
ATOM     20  C   UNL     1      -3.791   0.670   0.916  0.00  0.00    +0.029 A 
ATOM     21  C   UNL     1      -5.541  -0.433  -0.956  0.00  0.00    +0.078 A 
ATOM     22  C   UNL     1      -5.149   0.983   0.962  0.00  0.00    +0.040 A 
ATOM     23  C   UNL     1      -6.024   0.431   0.026  0.00  0.00    +0.126 A 
ENDBRANCH   6  18
ENDBRANCH   3  17
BRANCH   3  14
ATOM     14  C   UNL     1       1.413  -0.251   1.097  0.00  0.00    +0.252 C 
BRANCH  14   8
ATOM      5  N   UNL     1       3.862  -0.742   1.308  0.00  0.00    -0.295 NA
ATOM      7  C   UNL     1       4.367  -0.351  -1.214  0.00  0.00    +0.008 C 
ATOM      8  C   UNL     1       2.631  -0.962   0.504  0.00  0.00    +0.095 C 
ATOM      9  C   UNL     1       2.860  -0.574  -0.974  0.00  0.00    +0.027 C 
ATOM     10  C   UNL     1       4.840   0.848  -0.364  0.00  0.00    +0.081 C 
ATOM     11  C   UNL     1       5.106  -1.594  -0.685  0.00  0.00    +0.020 C 
ATOM     12  C   UNL     1       4.378   0.633   1.094  0.00  0.00    +0.101 C 
ATOM     13  C   UNL     1       4.892  -1.700   0.836  0.00  0.00    +0.085 C 
BRANCH  10  15
ATOM     15  C   UNL     1       4.357   2.131  -0.900  0.00  0.00    -0.101 C 
ATOM     16  C   UNL     1       3.963   3.177  -1.338  0.00  0.00    +0.004 C 
ENDBRANCH  10  15
ENDBRANCH  14   8
ENDBRANCH   3  14
TORSDOF 5
