REMARK  Name = 45360575
REMARK  6 active torsions:
REMARK  status: ('A' for Active; 'I' for Inactive)
REMARK    1  A    between atoms: O_6  and  C_13
REMARK    2  A    between atoms: N_8  and  C_12
REMARK    3  A    between atoms: N_9  and  C_14
REMARK    4  A    between atoms: N_10  and  C_23
REMARK    5  A    between atoms: N_11  and  C_24
REMARK    6  A    between atoms: C_27  and  C_30
REMARK                            x       y       z     vdW  Elec       q    Type
REMARK                         _______ _______ _______ _____ _____    ______ ____
ROOT
ATOM      4  O   UNL     1      -3.317  -0.842  -1.813  0.00  0.00    -0.342 OA
ATOM      5  O   UNL     1      -5.060  -1.853  -0.663  0.00  0.00    -0.347 OA
ATOM     12  C   UNL     1      -3.748  -0.159   0.459  0.00  0.00    +0.144 C 
ATOM     13  C   UNL     1      -2.773  -1.234   0.988  0.00  0.00    +0.159 C 
ATOM     14  C   UNL     1      -2.032  -1.997  -0.132  0.00  0.00    +0.136 C 
ATOM     15  C   UNL     1      -4.375  -0.607  -0.874  0.00  0.00    +0.270 C 
ATOM     16  C   UNL     1      -2.865  -2.142  -1.422  0.00  0.00    +0.170 C 
ATOM     17  C   UNL     1      -4.193  -2.849  -1.226  0.00  0.00    +0.196 C 
ENDROOT
BRANCH  12   8
ATOM      8  N   UNL     1      -3.047   1.110   0.274  0.00  0.00    -0.290 NA
ATOM     10  N   UNL     1      -2.834   3.986   0.469  0.00  0.00    -0.303 NA
ATOM     18  C   UNL     1      -2.817   1.772   1.564  0.00  0.00    +0.100 C 
ATOM     19  C   UNL     1      -3.796   1.993  -0.629  0.00  0.00    +0.100 C 
ATOM     20  C   UNL     1      -2.084   3.104   1.370  0.00  0.00    +0.099 C 
ATOM     21  C   UNL     1      -3.064   3.325  -0.821  0.00  0.00    +0.099 C 
ATOM     23  C   UNL     1      -2.134   5.256   0.284  0.00  0.00    +0.105 C 
ENDBRANCH  12   8
BRANCH  14   9
ATOM      7  O   UNL     1       0.490  -2.472   1.141  0.00  0.00    -0.252 OA
ATOM      9  N   UNL     1      -0.775  -1.345  -0.431  0.00  0.00    -0.291 N 
ATOM     11  N   UNL     1       1.458  -0.856  -0.259  0.00  0.00    -0.269 N 
ATOM     22  C   UNL     1       0.414  -1.638   0.242  0.00  0.00    +0.304 C 
ATOM     31  H   UNL     1      -0.775  -0.587  -1.107  0.00  0.00    +0.151 HD
ATOM     33  H   UNL     1       1.225  -0.210  -1.010  0.00  0.00    +0.156 HD
BRANCH  11  24
ATOM     24  C   UNL     1       2.812  -0.850   0.150  0.00  0.00    +0.035 A 
ATOM     25  C   UNL     1       3.724   0.005  -0.468  0.00  0.00    +0.035 A 
ATOM     26  C   UNL     1       3.234  -1.701   1.171  0.00  0.00    +0.023 A 
ATOM     27  C   UNL     1       5.059   0.011  -0.063  0.00  0.00    +0.057 A 
ATOM     28  C   UNL     1       4.570  -1.695   1.576  0.00  0.00    +0.002 A 
ATOM     29  C   UNL     1       5.482  -0.840   0.958  0.00  0.00    +0.012 A 
BRANCH  27  30
ATOM      1  F   UNL     1       7.295   0.807  -0.212  0.00  0.00    -0.166 F 
ATOM      2  F   UNL     1       6.163   0.712  -2.067  0.00  0.00    -0.166 F 
ATOM      3  F   UNL     1       5.713   2.248  -0.602  0.00  0.00    -0.166 F 
ATOM     30  C   UNL     1       6.035   0.925  -0.724  0.00  0.00    +0.417 C 
ENDBRANCH  27  30
ENDBRANCH  11  24
ENDBRANCH  14   9
BRANCH  13   6
ATOM      6  O   UNL     1      -3.534  -2.173   1.759  0.00  0.00    -0.388 OA
ATOM     32  H   UNL     1      -2.910  -2.815   2.140  0.00  0.00    +0.210 HD
ENDBRANCH  13   6
TORSDOF 5
