MODEL 1
REMARK VINA RESULT:      -6.7      0.000      0.000
REMARK  Name = 75536717
REMARK  10 active torsions:
REMARK  status: ('A' for Active; 'I' for Inactive)
REMARK    1  A    between atoms: S_1  and  N_7
REMARK    2  A    between atoms: S_1  and  C_17
REMARK    3  A    between atoms: O_3  and  C_11
REMARK    4  A    between atoms: N_6  and  C_10
REMARK    5  A    between atoms: N_6  and  C_15
REMARK    6  A    between atoms: N_7  and  C_14
REMARK    7  A    between atoms: N_8  and  C_21
REMARK    8  A    between atoms: C_12  and  C_14
REMARK    9  A    between atoms: C_15  and  C_16
REMARK   10  A    between atoms: C_25  and  C_26
REMARK                            x       y       z     vdW  Elec       q    Type
REMARK                         _______ _______ _______ _____ _____    ______ ____
ROOT
ATOM      2  O   UNL     1      16.820   8.494  21.773  0.00  0.00    -0.371 OA
ATOM     10  C   UNL     1      17.838   7.010  20.223  0.00  0.00    +0.111 C 
ATOM     11  C   UNL     1      16.424   6.538  20.505  0.00  0.00    +0.164 C 
ATOM     12  C   UNL     1      15.789   7.815  21.038  0.00  0.00    +0.164 C 
ATOM     13  C   UNL     1      18.091   7.927  21.410  0.00  0.00    +0.181 C 
ENDROOT
BRANCH  11   3
ATOM      3  O   UNL     1      15.765   6.065  19.346  0.00  0.00    -0.388 OA
ATOM     28  H   UNL     1      14.925   6.546  19.254  0.00  0.00    +0.210 HD
ENDBRANCH  11   3
BRANCH  10   6
ATOM      6  N   UNL     1      18.806   5.929  20.127  0.00  0.00    -0.302 NA
ATOM     27  H   UNL     1      18.818   5.576  19.171  0.00  0.00    +0.123 HD
BRANCH   6  15
ATOM     15  C   UNL     1      20.144   6.390  20.477  0.00  0.00    +0.156 C 
BRANCH  15  16
ATOM      8  N   UNL     1      21.374   5.494  22.482  0.00  0.00    -0.336 N 
ATOM      9  N   UNL     1      21.278   4.158  20.710  0.00  0.00    -0.239 NA
ATOM     16  C   UNL     1      20.931   5.329  21.199  0.00  0.00    +0.123 A 
ATOM     18  C   UNL     1      22.045   4.358  22.833  0.00  0.00    +0.106 A 
ATOM     21  C   UNL     1      21.177   6.650  23.325  0.00  0.00    +0.150 C 
ATOM     22  C   UNL     1      21.973   3.548  21.724  0.00  0.00    +0.130 A 
ENDBRANCH  15  16
ENDBRANCH   6  15
ENDBRANCH  10   6
BRANCH  12  14
ATOM     14  C   UNL     1      14.596   7.559  21.942  0.00  0.00    +0.140 C 
BRANCH  14   7
ATOM      7  N   UNL     1      13.744   6.507  21.353  0.00  0.00    -0.187 NA
ATOM     29  H   UNL     1      14.197   5.597  21.203  0.00  0.00    +0.148 HD
BRANCH   7   1
ATOM      1  S   UNL     1      12.433   6.931  20.355  0.00  0.00    +0.058 S 
ATOM      4  O   UNL     1      11.309   6.061  20.643  0.00  0.00    -0.153 OA
ATOM      5  O   UNL     1      12.906   7.084  18.992  0.00  0.00    -0.153 OA
BRANCH   1  17
ATOM     17  C   UNL     1      12.036   8.548  20.947  0.00  0.00    +0.105 A 
ATOM     19  C   UNL     1      12.540   9.674  20.295  0.00  0.00    +0.029 A 
ATOM     20  C   UNL     1      11.221   8.700  22.069  0.00  0.00    +0.029 A 
ATOM     23  C   UNL     1      12.230  10.950  20.764  0.00  0.00    +0.005 A 
ATOM     24  C   UNL     1      10.912   9.976  22.538  0.00  0.00    +0.005 A 
ATOM     25  C   UNL     1      11.415  11.102  21.885  0.00  0.00    -0.050 A 
ATOM     26  C   UNL     1      11.083  12.467  22.386  0.00  0.00    +0.044 C 
ENDBRANCH   1  17
ENDBRANCH   7   1
ENDBRANCH  14   7
ENDBRANCH  12  14
TORSDOF 8
ENDMDL
MODEL 2
REMARK VINA RESULT:      -6.7     29.376     32.223
REMARK  Name = 75536717
REMARK  10 active torsions:
REMARK  status: ('A' for Active; 'I' for Inactive)
REMARK    1  A    between atoms: S_1  and  N_7
REMARK    2  A    between atoms: S_1  and  C_17
REMARK    3  A    between atoms: O_3  and  C_11
REMARK    4  A    between atoms: N_6  and  C_10
REMARK    5  A    between atoms: N_6  and  C_15
REMARK    6  A    between atoms: N_7  and  C_14
REMARK    7  A    between atoms: N_8  and  C_21
REMARK    8  A    between atoms: C_12  and  C_14
REMARK    9  A    between atoms: C_15  and  C_16
REMARK   10  A    between atoms: C_25  and  C_26
REMARK                            x       y       z     vdW  Elec       q    Type
REMARK                         _______ _______ _______ _____ _____    ______ ____
ROOT
ATOM      2  O   UNL     1     -18.051   2.176  25.535  0.00  0.00    -0.371 OA
ATOM     10  C   UNL     1     -16.574   3.458  26.882  0.00  0.00    +0.111 C 
ATOM     11  C   UNL     1     -16.179   3.617  25.426  0.00  0.00    +0.164 C 
ATOM     12  C   UNL     1     -17.469   3.212  24.726  0.00  0.00    +0.164 C 
ATOM     13  C   UNL     1     -17.423   2.198  26.828  0.00  0.00    +0.181 C 
ENDROOT
BRANCH  11   3
ATOM      3  O   UNL     1     -15.797   4.940  25.104  0.00  0.00    -0.388 OA
ATOM     28  H   UNL     1     -16.569   5.399  24.732  0.00  0.00    +0.210 HD
ENDBRANCH  11   3
BRANCH  10   6
ATOM      6  N   UNL     1     -15.441   3.339  27.785  0.00  0.00    -0.302 NA
ATOM     27  H   UNL     1     -15.018   4.258  27.914  0.00  0.00    +0.123 HD
BRANCH   6  15
ATOM     15  C   UNL     1     -15.856   2.824  29.084  0.00  0.00    +0.156 C 
BRANCH  15  16
ATOM      8  N   UNL     1     -13.957   1.660  30.255  0.00  0.00    -0.336 N 
ATOM      9  N   UNL     1     -15.362   0.359  29.131  0.00  0.00    -0.239 NA
ATOM     16  C   UNL     1     -15.077   1.596  29.475  0.00  0.00    +0.123 A 
ATOM     18  C   UNL     1     -13.499   0.384  30.420  0.00  0.00    +0.106 A 
ATOM     21  C   UNL     1     -13.356   2.849  30.813  0.00  0.00    +0.150 C 
ATOM     22  C   UNL     1     -14.382  -0.401  29.717  0.00  0.00    +0.130 A 
ENDBRANCH  15  16
ENDBRANCH   6  15
ENDBRANCH  10   6
BRANCH  12  14
ATOM     14  C   UNL     1     -17.250   2.699  23.314  0.00  0.00    +0.140 C 
BRANCH  14   7
ATOM      7  N   UNL     1     -16.240   3.535  22.634  0.00  0.00    -0.187 NA
ATOM     29  H   UNL     1     -15.306   3.544  23.062  0.00  0.00    +0.148 HD
BRANCH   7   1
ATOM      1  S   UNL     1     -16.726   4.888  21.725  0.00  0.00    +0.058 S 
ATOM      4  O   UNL     1     -17.495   5.783  22.569  0.00  0.00    -0.153 OA
ATOM      5  O   UNL     1     -17.267   4.437  20.458  0.00  0.00    -0.153 OA
BRANCH   1  17
ATOM     17  C   UNL     1     -15.177   5.665  21.377  0.00  0.00    +0.105 A 
ATOM     19  C   UNL     1     -15.118   6.733  20.481  0.00  0.00    +0.029 A 
ATOM     20  C   UNL     1     -14.013   5.208  21.994  0.00  0.00    +0.029 A 
ATOM     23  C   UNL     1     -13.896   7.343  20.203  0.00  0.00    +0.005 A 
ATOM     24  C   UNL     1     -12.791   5.819  21.716  0.00  0.00    +0.005 A 
ATOM     25  C   UNL     1     -12.731   6.887  20.820  0.00  0.00    -0.050 A 
ATOM     26  C   UNL     1     -11.425   7.541  20.523  0.00  0.00    +0.044 C 
ENDBRANCH   1  17
ENDBRANCH   7   1
ENDBRANCH  14   7
ENDBRANCH  12  14
TORSDOF 8
ENDMDL
MODEL 3
REMARK VINA RESULT:      -6.5      3.840      8.584
REMARK  Name = 75536717
REMARK  10 active torsions:
REMARK  status: ('A' for Active; 'I' for Inactive)
REMARK    1  A    between atoms: S_1  and  N_7
REMARK    2  A    between atoms: S_1  and  C_17
REMARK    3  A    between atoms: O_3  and  C_11
REMARK    4  A    between atoms: N_6  and  C_10
REMARK    5  A    between atoms: N_6  and  C_15
REMARK    6  A    between atoms: N_7  and  C_14
REMARK    7  A    between atoms: N_8  and  C_21
REMARK    8  A    between atoms: C_12  and  C_14
REMARK    9  A    between atoms: C_15  and  C_16
REMARK   10  A    between atoms: C_25  and  C_26
REMARK                            x       y       z     vdW  Elec       q    Type
REMARK                         _______ _______ _______ _____ _____    ______ ____
ROOT
ATOM      2  O   UNL     1      12.200  12.089  20.491  0.00  0.00    -0.371 OA
ATOM     10  C   UNL     1      11.705  11.492  22.736  0.00  0.00    +0.111 C 
ATOM     11  C   UNL     1      12.121  10.249  21.974  0.00  0.00    +0.164 C 
ATOM     12  C   UNL     1      12.877  10.861  20.804  0.00  0.00    +0.164 C 
ATOM     13  C   UNL     1      11.352  12.438  21.599  0.00  0.00    +0.181 C 
ENDROOT
BRANCH  11   3
ATOM      3  O   UNL     1      12.941   9.388  22.740  0.00  0.00    -0.388 OA
ATOM     28  H   UNL     1      12.490   8.531  22.825  0.00  0.00    +0.210 HD
ENDBRANCH  11   3
BRANCH  10   6
ATOM      6  N   UNL     1      10.598  11.273  23.654  0.00  0.00    -0.302 NA
ATOM     27  H   UNL     1      10.188  10.358  23.470  0.00  0.00    +0.123 HD
BRANCH   6  15
ATOM     15  C   UNL     1      11.048  11.321  25.040  0.00  0.00    +0.156 C 
BRANCH  15  16
ATOM      8  N   UNL     1      12.567  13.162  25.837  0.00  0.00    -0.336 N 
ATOM      9  N   UNL     1      10.422  13.688  25.612  0.00  0.00    -0.239 NA
ATOM     16  C   UNL     1      11.316  12.731  25.494  0.00  0.00    +0.123 A 
ATOM     18  C   UNL     1      12.464  14.475  26.197  0.00  0.00    +0.106 A 
ATOM     21  C   UNL     1      13.785  12.385  25.826  0.00  0.00    +0.150 C 
ATOM     22  C   UNL     1      11.131  14.778  26.051  0.00  0.00    +0.130 A 
ENDBRANCH  15  16
ENDBRANCH   6  15
ENDBRANCH  10   6
BRANCH  12  14
ATOM     14  C   UNL     1      12.911   9.966  19.577  0.00  0.00    +0.140 C 
BRANCH  14   7
ATOM      7  N   UNL     1      12.255   8.680  19.885  0.00  0.00    -0.187 NA
ATOM     29  H   UNL     1      11.876   8.588  20.836  0.00  0.00    +0.148 HD
BRANCH   7   1
ATOM      1  S   UNL     1      12.718   7.267  19.059  0.00  0.00    +0.058 S 
ATOM      4  O   UNL     1      12.798   7.545  17.638  0.00  0.00    -0.153 OA
ATOM      5  O   UNL     1      11.922   6.155  19.541  0.00  0.00    -0.153 OA
BRANCH   1  17
ATOM     17  C   UNL     1      14.363   7.020  19.658  0.00  0.00    +0.105 A 
ATOM     19  C   UNL     1      14.630   7.119  21.024  0.00  0.00    +0.029 A 
ATOM     20  C   UNL     1      15.395   6.731  18.766  0.00  0.00    +0.029 A 
ATOM     23  C   UNL     1      15.928   6.929  21.497  0.00  0.00    +0.005 A 
ATOM     24  C   UNL     1      16.693   6.540  19.239  0.00  0.00    +0.005 A 
ATOM     25  C   UNL     1      16.960   6.638  20.606  0.00  0.00    -0.050 A 
ATOM     26  C   UNL     1      18.347   6.434  21.112  0.00  0.00    +0.044 C 
ENDBRANCH   1  17
ENDBRANCH   7   1
ENDBRANCH  14   7
ENDBRANCH  12  14
TORSDOF 8
ENDMDL
MODEL 4
REMARK VINA RESULT:      -6.4      1.462      2.394
REMARK  Name = 75536717
REMARK  10 active torsions:
REMARK  status: ('A' for Active; 'I' for Inactive)
REMARK    1  A    between atoms: S_1  and  N_7
REMARK    2  A    between atoms: S_1  and  C_17
REMARK    3  A    between atoms: O_3  and  C_11
REMARK    4  A    between atoms: N_6  and  C_10
REMARK    5  A    between atoms: N_6  and  C_15
REMARK    6  A    between atoms: N_7  and  C_14
REMARK    7  A    between atoms: N_8  and  C_21
REMARK    8  A    between atoms: C_12  and  C_14
REMARK    9  A    between atoms: C_15  and  C_16
REMARK   10  A    between atoms: C_25  and  C_26
REMARK                            x       y       z     vdW  Elec       q    Type
REMARK                         _______ _______ _______ _____ _____    ______ ____
ROOT
ATOM      2  O   UNL     1      16.226   5.892  18.810  0.00  0.00    -0.371 OA
ATOM     10  C   UNL     1      18.248   5.875  20.056  0.00  0.00    +0.111 C 
ATOM     11  C   UNL     1      17.377   7.017  20.544  0.00  0.00    +0.164 C 
ATOM     12  C   UNL     1      16.005   6.566  20.060  0.00  0.00    +0.164 C 
ATOM     13  C   UNL     1      17.625   5.578  18.701  0.00  0.00    +0.181 C 
ENDROOT
BRANCH  11   3
ATOM      3  O   UNL     1      17.416   7.172  21.949  0.00  0.00    -0.388 OA
ATOM     28  H   UNL     1      18.239   7.633  22.183  0.00  0.00    +0.210 HD
ENDBRANCH  11   3
BRANCH  10   6
ATOM      6  N   UNL     1      19.660   6.213  19.968  0.00  0.00    -0.302 NA
ATOM     27  H   UNL     1      19.783   7.197  20.202  0.00  0.00    +0.123 HD
BRANCH   6  15
ATOM     15  C   UNL     1      20.452   5.405  20.887  0.00  0.00    +0.156 C 
BRANCH  15  16
ATOM      8  N   UNL     1      22.000   6.841  22.256  0.00  0.00    -0.336 N 
ATOM      9  N   UNL     1      20.076   6.283  23.213  0.00  0.00    -0.239 NA
ATOM     16  C   UNL     1      20.816   6.169  22.133  0.00  0.00    +0.123 A 
ATOM     18  C   UNL     1      22.015   7.420  23.493  0.00  0.00    +0.106 A 
ATOM     21  C   UNL     1      23.052   6.933  21.271  0.00  0.00    +0.150 C 
ATOM     22  C   UNL     1      20.817   7.061  24.065  0.00  0.00    +0.130 A 
ENDBRANCH  15  16
ENDBRANCH   6  15
ENDBRANCH  10   6
BRANCH  12  14
ATOM     14  C   UNL     1      15.033   7.715  19.860  0.00  0.00    +0.140 C 
BRANCH  14   7
ATOM      7  N   UNL     1      14.204   7.460  18.665  0.00  0.00    -0.187 NA
ATOM     29  H   UNL     1      14.618   7.738  17.767  0.00  0.00    +0.148 HD
BRANCH   7   1
ATOM      1  S   UNL     1      12.509   7.418  18.797  0.00  0.00    +0.058 S 
ATOM      4  O   UNL     1      12.113   6.245  19.552  0.00  0.00    -0.153 OA
ATOM      5  O   UNL     1      11.927   7.676  17.493  0.00  0.00    -0.153 OA
BRANCH   1  17
ATOM     17  C   UNL     1      12.188   8.842  19.794  0.00  0.00    +0.105 A 
ATOM     19  C   UNL     1      11.360   8.739  20.912  0.00  0.00    +0.029 A 
ATOM     20  C   UNL     1      12.760  10.070  19.461  0.00  0.00    +0.029 A 
ATOM     23  C   UNL     1      11.104   9.863  21.697  0.00  0.00    +0.005 A 
ATOM     24  C   UNL     1      12.504  11.194  20.246  0.00  0.00    +0.005 A 
ATOM     25  C   UNL     1      11.676  11.091  21.365  0.00  0.00    -0.050 A 
ATOM     26  C   UNL     1      11.403  12.292  22.205  0.00  0.00    +0.044 C 
ENDBRANCH   1  17
ENDBRANCH   7   1
ENDBRANCH  14   7
ENDBRANCH  12  14
TORSDOF 8
ENDMDL
MODEL 5
REMARK VINA RESULT:      -6.4      2.551      3.582
REMARK  Name = 75536717
REMARK  10 active torsions:
REMARK  status: ('A' for Active; 'I' for Inactive)
REMARK    1  A    between atoms: S_1  and  N_7
REMARK    2  A    between atoms: S_1  and  C_17
REMARK    3  A    between atoms: O_3  and  C_11
REMARK    4  A    between atoms: N_6  and  C_10
REMARK    5  A    between atoms: N_6  and  C_15
REMARK    6  A    between atoms: N_7  and  C_14
REMARK    7  A    between atoms: N_8  and  C_21
REMARK    8  A    between atoms: C_12  and  C_14
REMARK    9  A    between atoms: C_15  and  C_16
REMARK   10  A    between atoms: C_25  and  C_26
REMARK                            x       y       z     vdW  Elec       q    Type
REMARK                         _______ _______ _______ _____ _____    ______ ____
ROOT
ATOM      2  O   UNL     1      18.030   7.152  21.510  0.00  0.00    -0.371 OA
ATOM     10  C   UNL     1      19.482   5.948  20.066  0.00  0.00    +0.111 C 
ATOM     11  C   UNL     1      18.048   5.557  19.765  0.00  0.00    +0.164 C 
ATOM     12  C   UNL     1      17.291   6.742  20.348  0.00  0.00    +0.164 C 
ATOM     13  C   UNL     1      19.341   6.564  21.450  0.00  0.00    +0.181 C 
ENDROOT
BRANCH  11   3
ATOM      3  O   UNL     1      17.802   5.405  18.380  0.00  0.00    -0.388 OA
ATOM     28  H   UNL     1      17.662   4.460  18.196  0.00  0.00    +0.210 HD
ENDBRANCH  11   3
BRANCH  10   6
ATOM      6  N   UNL     1      20.411   4.831  20.036  0.00  0.00    -0.302 NA
ATOM     27  H   UNL     1      20.457   4.460  19.087  0.00  0.00    +0.123 HD
BRANCH   6  15
ATOM     15  C   UNL     1      21.747   5.246  20.447  0.00  0.00    +0.156 C 
BRANCH  15  16
ATOM      8  N   UNL     1      23.540   3.680  21.260  0.00  0.00    -0.336 N 
ATOM      9  N   UNL     1      21.806   3.976  22.615  0.00  0.00    -0.239 NA
ATOM     16  C   UNL     1      22.341   4.304  21.459  0.00  0.00    +0.123 A 
ATOM     18  C   UNL     1      23.786   2.905  22.357  0.00  0.00    +0.106 A 
ATOM     21  C   UNL     1      24.402   3.805  20.108  0.00  0.00    +0.150 C 
ATOM     22  C   UNL     1      22.702   3.103  23.180  0.00  0.00    +0.130 A 
ENDBRANCH  15  16
ENDBRANCH   6  15
ENDBRANCH  10   6
BRANCH  12  14
ATOM     14  C   UNL     1      15.862   6.408  20.740  0.00  0.00    +0.140 C 
BRANCH  14   7
ATOM      7  N   UNL     1      14.994   6.475  19.548  0.00  0.00    -0.187 NA
ATOM     29  H   UNL     1      15.467   6.360  18.643  0.00  0.00    +0.148 HD
BRANCH   7   1
ATOM      1  S   UNL     1      13.548   7.370  19.596  0.00  0.00    +0.058 S 
ATOM      4  O   UNL     1      13.504   8.147  20.819  0.00  0.00    -0.153 OA
ATOM      5  O   UNL     1      12.442   6.501  19.244  0.00  0.00    -0.153 OA
BRANCH   1  17
ATOM     17  C   UNL     1      13.772   8.491  18.247  0.00  0.00    +0.105 A 
ATOM     19  C   UNL     1      13.761   9.867  18.475  0.00  0.00    +0.029 A 
ATOM     20  C   UNL     1      13.955   7.999  16.954  0.00  0.00    +0.029 A 
ATOM     23  C   UNL     1      13.934  10.752  17.410  0.00  0.00    +0.005 A 
ATOM     24  C   UNL     1      14.128   8.885  15.891  0.00  0.00    +0.005 A 
ATOM     25  C   UNL     1      14.118  10.261  16.118  0.00  0.00    -0.050 A 
ATOM     26  C   UNL     1      14.303  11.207  14.981  0.00  0.00    +0.044 C 
ENDBRANCH   1  17
ENDBRANCH   7   1
ENDBRANCH  14   7
ENDBRANCH  12  14
TORSDOF 8
ENDMDL
MODEL 6
REMARK VINA RESULT:      -6.3      2.646      3.707
REMARK  Name = 75536717
REMARK  10 active torsions:
REMARK  status: ('A' for Active; 'I' for Inactive)
REMARK    1  A    between atoms: S_1  and  N_7
REMARK    2  A    between atoms: S_1  and  C_17
REMARK    3  A    between atoms: O_3  and  C_11
REMARK    4  A    between atoms: N_6  and  C_10
REMARK    5  A    between atoms: N_6  and  C_15
REMARK    6  A    between atoms: N_7  and  C_14
REMARK    7  A    between atoms: N_8  and  C_21
REMARK    8  A    between atoms: C_12  and  C_14
REMARK    9  A    between atoms: C_15  and  C_16
REMARK   10  A    between atoms: C_25  and  C_26
REMARK                            x       y       z     vdW  Elec       q    Type
REMARK                         _______ _______ _______ _____ _____    ______ ____
ROOT
ATOM      2  O   UNL     1      16.180   6.059  19.169  0.00  0.00    -0.371 OA
ATOM     10  C   UNL     1      17.134   6.602  21.275  0.00  0.00    +0.111 C 
ATOM     11  C   UNL     1      15.746   7.209  21.190  0.00  0.00    +0.164 C 
ATOM     12  C   UNL     1      15.121   6.357  20.094  0.00  0.00    +0.164 C 
ATOM     13  C   UNL     1      17.437   6.337  19.809  0.00  0.00    +0.181 C 
ENDROOT
BRANCH  11   3
ATOM      3  O   UNL     1      15.031   7.111  22.406  0.00  0.00    -0.388 OA
ATOM     28  H   UNL     1      15.668   7.146  23.139  0.00  0.00    +0.210 HD
ENDBRANCH  11   3
BRANCH  10   6
ATOM      6  N   UNL     1      18.113   7.471  21.908  0.00  0.00    -0.302 NA
ATOM     27  H   UNL     1      18.220   7.198  22.885  0.00  0.00    +0.123 HD
BRANCH   6  15
ATOM     15  C   UNL     1      19.408   7.373  21.246  0.00  0.00    +0.156 C 
BRANCH  15  16
ATOM      8  N   UNL     1      21.028   5.508  21.722  0.00  0.00    -0.336 N 
ATOM      9  N   UNL     1      20.850   7.077  23.284  0.00  0.00    -0.239 NA
ATOM     16  C   UNL     1      20.426   6.674  22.106  0.00  0.00    +0.123 A 
ATOM     18  C   UNL     1      21.889   5.145  22.718  0.00  0.00    +0.106 A 
ATOM     21  C   UNL     1      20.807   4.781  20.494  0.00  0.00    +0.150 C 
ATOM     22  C   UNL     1      21.762   6.127  23.671  0.00  0.00    +0.130 A 
ENDBRANCH  15  16
ENDBRANCH   6  15
ENDBRANCH  10   6
BRANCH  12  14
ATOM     14  C   UNL     1      13.985   7.055  19.366  0.00  0.00    +0.140 C 
BRANCH  14   7
ATOM      7  N   UNL     1      13.417   8.109  20.230  0.00  0.00    -0.187 NA
ATOM     29  H   UNL     1      13.490   7.944  21.242  0.00  0.00    +0.148 HD
BRANCH   7   1
ATOM      1  S   UNL     1      12.148   9.087  19.660  0.00  0.00    +0.058 S 
ATOM      4  O   UNL     1      11.922  10.174  20.592  0.00  0.00    -0.153 OA
ATOM      5  O   UNL     1      11.046   8.239  19.248  0.00  0.00    -0.153 OA
BRANCH   1  17
ATOM     17  C   UNL     1      12.850   9.769  18.188  0.00  0.00    +0.105 A 
ATOM     19  C   UNL     1      12.441   9.302  16.938  0.00  0.00    +0.029 A 
ATOM     20  C   UNL     1      13.817  10.771  18.276  0.00  0.00    +0.029 A 
ATOM     23  C   UNL     1      12.998   9.838  15.777  0.00  0.00    +0.005 A 
ATOM     24  C   UNL     1      14.373  11.306  17.114  0.00  0.00    +0.005 A 
ATOM     25  C   UNL     1      13.963  10.840  15.864  0.00  0.00    -0.050 A 
ATOM     26  C   UNL     1      14.558  11.412  14.622  0.00  0.00    +0.044 C 
ENDBRANCH   1  17
ENDBRANCH   7   1
ENDBRANCH  14   7
ENDBRANCH  12  14
TORSDOF 8
ENDMDL
MODEL 7
REMARK VINA RESULT:      -6.3     29.112     31.704
REMARK  Name = 75536717
REMARK  10 active torsions:
REMARK  status: ('A' for Active; 'I' for Inactive)
REMARK    1  A    between atoms: S_1  and  N_7
REMARK    2  A    between atoms: S_1  and  C_17
REMARK    3  A    between atoms: O_3  and  C_11
REMARK    4  A    between atoms: N_6  and  C_10
REMARK    5  A    between atoms: N_6  and  C_15
REMARK    6  A    between atoms: N_7  and  C_14
REMARK    7  A    between atoms: N_8  and  C_21
REMARK    8  A    between atoms: C_12  and  C_14
REMARK    9  A    between atoms: C_15  and  C_16
REMARK   10  A    between atoms: C_25  and  C_26
REMARK                            x       y       z     vdW  Elec       q    Type
REMARK                         _______ _______ _______ _____ _____    ______ ____
ROOT
ATOM      2  O   UNL     1     -17.000   3.190  24.265  0.00  0.00    -0.371 OA
ATOM     10  C   UNL     1     -16.548   3.443  26.583  0.00  0.00    +0.111 C 
ATOM     11  C   UNL     1     -16.608   4.815  25.938  0.00  0.00    +0.164 C 
ATOM     12  C   UNL     1     -17.397   4.510  24.673  0.00  0.00    +0.164 C 
ATOM     13  C   UNL     1     -16.339   2.550  25.370  0.00  0.00    +0.181 C 
ENDROOT
BRANCH  11   3
ATOM      3  O   UNL     1     -17.262   5.772  26.749  0.00  0.00    -0.388 OA
ATOM     28  H   UNL     1     -16.660   6.024  27.470  0.00  0.00    +0.210 HD
ENDBRANCH  11   3
BRANCH  10   6
ATOM      6  N   UNL     1     -15.491   3.309  27.573  0.00  0.00    -0.302 NA
ATOM     27  H   UNL     1     -15.074   4.224  27.743  0.00  0.00    +0.123 HD
BRANCH   6  15
ATOM     15  C   UNL     1     -16.013   2.786  28.830  0.00  0.00    +0.156 C 
BRANCH  15  16
ATOM      8  N   UNL     1     -14.131   1.781  30.165  0.00  0.00    -0.336 N 
ATOM      9  N   UNL     1     -15.412   0.354  29.045  0.00  0.00    -0.239 NA
ATOM     16  C   UNL     1     -15.202   1.620  29.331  0.00  0.00    +0.123 A 
ATOM     18  C   UNL     1     -13.626   0.540  30.427  0.00  0.00    +0.106 A 
ATOM     21  C   UNL     1     -13.615   3.027  30.684  0.00  0.00    +0.150 C 
ATOM     22  C   UNL     1     -14.432  -0.325  29.725  0.00  0.00    +0.130 A 
ENDBRANCH  15  16
ENDBRANCH   6  15
ENDBRANCH  10   6
BRANCH  12  14
ATOM     14  C   UNL     1     -17.133   5.496  23.549  0.00  0.00    +0.140 C 
BRANCH  14   7
ATOM      7  N   UNL     1     -15.746   5.994  23.643  0.00  0.00    -0.187 NA
ATOM     29  H   UNL     1     -15.644   6.999  23.831  0.00  0.00    +0.148 HD
BRANCH   7   1
ATOM      1  S   UNL     1     -14.495   5.196  22.810  0.00  0.00    +0.058 S 
ATOM      4  O   UNL     1     -15.066   4.364  21.769  0.00  0.00    -0.153 OA
ATOM      5  O   UNL     1     -13.573   4.628  23.774  0.00  0.00    -0.153 OA
BRANCH   1  17
ATOM     17  C   UNL     1     -13.660   6.546  22.032  0.00  0.00    +0.105 A 
ATOM     19  C   UNL     1     -12.504   6.314  21.287  0.00  0.00    +0.029 A 
ATOM     20  C   UNL     1     -14.155   7.843  22.167  0.00  0.00    +0.029 A 
ATOM     23  C   UNL     1     -11.843   7.380  20.676  0.00  0.00    +0.005 A 
ATOM     24  C   UNL     1     -13.493   8.908  21.556  0.00  0.00    +0.005 A 
ATOM     25  C   UNL     1     -12.337   8.677  20.809  0.00  0.00    -0.050 A 
ATOM     26  C   UNL     1     -11.630   9.815  20.156  0.00  0.00    +0.044 C 
ENDBRANCH   1  17
ENDBRANCH   7   1
ENDBRANCH  14   7
ENDBRANCH  12  14
TORSDOF 8
ENDMDL
MODEL 8
REMARK VINA RESULT:      -6.3      1.530      1.934
REMARK  Name = 75536717
REMARK  10 active torsions:
REMARK  status: ('A' for Active; 'I' for Inactive)
REMARK    1  A    between atoms: S_1  and  N_7
REMARK    2  A    between atoms: S_1  and  C_17
REMARK    3  A    between atoms: O_3  and  C_11
REMARK    4  A    between atoms: N_6  and  C_10
REMARK    5  A    between atoms: N_6  and  C_15
REMARK    6  A    between atoms: N_7  and  C_14
REMARK    7  A    between atoms: N_8  and  C_21
REMARK    8  A    between atoms: C_12  and  C_14
REMARK    9  A    between atoms: C_15  and  C_16
REMARK   10  A    between atoms: C_25  and  C_26
REMARK                            x       y       z     vdW  Elec       q    Type
REMARK                         _______ _______ _______ _____ _____    ______ ____
ROOT
ATOM      2  O   UNL     1      16.315   6.184  18.981  0.00  0.00    -0.371 OA
ATOM     10  C   UNL     1      17.185   6.385  21.182  0.00  0.00    +0.111 C 
ATOM     11  C   UNL     1      15.919   7.214  21.072  0.00  0.00    +0.164 C 
ATOM     12  C   UNL     1      15.251   6.571  19.865  0.00  0.00    +0.164 C 
ATOM     13  C   UNL     1      17.550   6.199  19.717  0.00  0.00    +0.181 C 
ENDROOT
BRANCH  11   3
ATOM      3  O   UNL     1      15.110   7.131  22.230  0.00  0.00    -0.388 OA
ATOM     28  H   UNL     1      15.005   6.193  22.463  0.00  0.00    +0.210 HD
ENDBRANCH  11   3
BRANCH  10   6
ATOM      6  N   UNL     1      18.239   7.027  21.951  0.00  0.00    -0.302 NA
ATOM     27  H   UNL     1      18.410   6.486  22.798  0.00  0.00    +0.123 HD
BRANCH   6  15
ATOM     15  C   UNL     1      19.475   7.107  21.183  0.00  0.00    +0.156 C 
BRANCH  15  16
ATOM      8  N   UNL     1      21.223   6.241  22.773  0.00  0.00    -0.336 N 
ATOM      9  N   UNL     1      20.768   4.957  21.019  0.00  0.00    -0.239 NA
ATOM     16  C   UNL     1      20.483   6.084  21.634  0.00  0.00    +0.123 A 
ATOM     18  C   UNL     1      22.030   5.145  22.891  0.00  0.00    +0.106 A 
ATOM     21  C   UNL     1      21.173   7.353  23.693  0.00  0.00    +0.150 C 
ATOM     22  C   UNL     1      21.732   4.367  21.798  0.00  0.00    +0.130 A 
ENDBRANCH  15  16
ENDBRANCH   6  15
ENDBRANCH  10   6
BRANCH  12  14
ATOM     14  C   UNL     1      14.294   7.503  19.142  0.00  0.00    +0.140 C 
BRANCH  14   7
ATOM      7  N   UNL     1      13.207   7.904  20.056  0.00  0.00    -0.187 NA
ATOM     29  H   UNL     1      12.951   7.216  20.775  0.00  0.00    +0.148 HD
BRANCH   7   1
ATOM      1  S   UNL     1      12.025   9.013  19.541  0.00  0.00    +0.058 S 
ATOM      4  O   UNL     1      10.829   8.294  19.150  0.00  0.00    -0.153 OA
ATOM      5  O   UNL     1      12.634   9.964  18.631  0.00  0.00    -0.153 OA
BRANCH   1  17
ATOM     17  C   UNL     1      11.672   9.886  21.037  0.00  0.00    +0.105 A 
ATOM     19  C   UNL     1      11.911  11.259  21.117  0.00  0.00    +0.029 A 
ATOM     20  C   UNL     1      11.157   9.203  22.138  0.00  0.00    +0.029 A 
ATOM     23  C   UNL     1      11.636  11.947  22.298  0.00  0.00    +0.005 A 
ATOM     24  C   UNL     1      10.882   9.892  23.319  0.00  0.00    +0.005 A 
ATOM     25  C   UNL     1      11.120  11.265  23.399  0.00  0.00    -0.050 A 
ATOM     26  C   UNL     1      10.825  12.001  24.662  0.00  0.00    +0.044 C 
ENDBRANCH   1  17
ENDBRANCH   7   1
ENDBRANCH  14   7
ENDBRANCH  12  14
TORSDOF 8
ENDMDL
MODEL 9
REMARK VINA RESULT:      -6.3     26.735     29.542
REMARK  Name = 75536717
REMARK  10 active torsions:
REMARK  status: ('A' for Active; 'I' for Inactive)
REMARK    1  A    between atoms: S_1  and  N_7
REMARK    2  A    between atoms: S_1  and  C_17
REMARK    3  A    between atoms: O_3  and  C_11
REMARK    4  A    between atoms: N_6  and  C_10
REMARK    5  A    between atoms: N_6  and  C_15
REMARK    6  A    between atoms: N_7  and  C_14
REMARK    7  A    between atoms: N_8  and  C_21
REMARK    8  A    between atoms: C_12  and  C_14
REMARK    9  A    between atoms: C_15  and  C_16
REMARK   10  A    between atoms: C_25  and  C_26
REMARK                            x       y       z     vdW  Elec       q    Type
REMARK                         _______ _______ _______ _____ _____    ______ ____
ROOT
ATOM      2  O   UNL     1      -4.702 -12.178  18.635  0.00  0.00    -0.371 OA
ATOM     10  C   UNL     1      -6.833 -11.159  18.387  0.00  0.00    +0.111 C 
ATOM     11  C   UNL     1      -5.860 -10.511  17.421  0.00  0.00    +0.164 C 
ATOM     12  C   UNL     1      -4.781 -11.581  17.330  0.00  0.00    +0.164 C 
ATOM     13  C   UNL     1      -5.883 -11.820  19.374  0.00  0.00    +0.181 C 
ENDROOT
BRANCH  11   3
ATOM      3  O   UNL     1      -6.441 -10.240  16.160  0.00  0.00    -0.388 OA
ATOM     28  H   UNL     1      -6.066  -9.410  15.822  0.00  0.00    +0.210 HD
ENDBRANCH  11   3
BRANCH  10   6
ATOM      6  N   UNL     1      -7.742 -10.218  19.021  0.00  0.00    -0.302 NA
ATOM     27  H   UNL     1      -7.474  -9.269  18.763  0.00  0.00    +0.123 HD
BRANCH   6  15
ATOM     15  C   UNL     1      -9.118 -10.451  18.601  0.00  0.00    +0.156 C 
BRANCH  15  16
ATOM      8  N   UNL     1     -10.969  -8.956  17.783  0.00  0.00    -0.336 N 
ATOM      9  N   UNL     1      -8.947  -8.557  16.957  0.00  0.00    -0.239 NA
ATOM     16  C   UNL     1      -9.650  -9.316  17.769  0.00  0.00    +0.123 A 
ATOM     18  C   UNL     1     -11.115  -7.901  16.927  0.00  0.00    +0.106 A 
ATOM     21  C   UNL     1     -12.026  -9.566  18.556  0.00  0.00    +0.150 C 
ATOM     22  C   UNL     1      -9.854  -7.674  16.429  0.00  0.00    +0.130 A 
ENDBRANCH  15  16
ENDBRANCH   6  15
ENDBRANCH  10   6
BRANCH  12  14
ATOM     14  C   UNL     1      -3.422 -11.030  16.934  0.00  0.00    +0.140 C 
BRANCH  14   7
ATOM      7  N   UNL     1      -3.447 -10.625  15.515  0.00  0.00    -0.187 NA
ATOM     29  H   UNL     1      -4.363 -10.674  15.052  0.00  0.00    +0.148 HD
BRANCH   7   1
ATOM      1  S   UNL     1      -2.049 -10.782  14.559  0.00  0.00    +0.058 S 
ATOM      4  O   UNL     1      -1.667 -12.180  14.491  0.00  0.00    -0.153 OA
ATOM      5  O   UNL     1      -1.082  -9.781  14.967  0.00  0.00    -0.153 OA
BRANCH   1  17
ATOM     17  C   UNL     1      -2.644 -10.303  12.965  0.00  0.00    +0.105 A 
ATOM     19  C   UNL     1      -1.744  -9.921  11.970  0.00  0.00    +0.029 A 
ATOM     20  C   UNL     1      -4.014 -10.302  12.703  0.00  0.00    +0.029 A 
ATOM     23  C   UNL     1      -2.214  -9.539  10.713  0.00  0.00    +0.005 A 
ATOM     24  C   UNL     1      -4.484  -9.920  11.447  0.00  0.00    +0.005 A 
ATOM     25  C   UNL     1      -3.583  -9.539  10.451  0.00  0.00    -0.050 A 
ATOM     26  C   UNL     1      -4.085  -9.131   9.107  0.00  0.00    +0.044 C 
ENDBRANCH   1  17
ENDBRANCH   7   1
ENDBRANCH  14   7
ENDBRANCH  12  14
TORSDOF 8
ENDMDL
MODEL 10
REMARK VINA RESULT:      -6.1     27.034     29.161
REMARK  Name = 75536717
REMARK  10 active torsions:
REMARK  status: ('A' for Active; 'I' for Inactive)
REMARK    1  A    between atoms: S_1  and  N_7
REMARK    2  A    between atoms: S_1  and  C_17
REMARK    3  A    between atoms: O_3  and  C_11
REMARK    4  A    between atoms: N_6  and  C_10
REMARK    5  A    between atoms: N_6  and  C_15
REMARK    6  A    between atoms: N_7  and  C_14
REMARK    7  A    between atoms: N_8  and  C_21
REMARK    8  A    between atoms: C_12  and  C_14
REMARK    9  A    between atoms: C_15  and  C_16
REMARK   10  A    between atoms: C_25  and  C_26
REMARK                            x       y       z     vdW  Elec       q    Type
REMARK                         _______ _______ _______ _____ _____    ______ ____
ROOT
ATOM      2  O   UNL     1      -6.387 -10.502  16.835  0.00  0.00    -0.371 OA
ATOM     10  C   UNL     1      -4.079 -10.842  16.387  0.00  0.00    +0.111 C 
ATOM     11  C   UNL     1      -4.334 -11.068  17.865  0.00  0.00    +0.164 C 
ATOM     12  C   UNL     1      -5.833 -11.336  17.867  0.00  0.00    +0.164 C 
ATOM     13  C   UNL     1      -5.317 -10.055  15.984  0.00  0.00    +0.181 C 
ENDROOT
BRANCH  11   3
ATOM      3  O   UNL     1      -3.603 -12.161  18.385  0.00  0.00    -0.388 OA
ATOM     28  H   UNL     1      -4.046 -12.982  18.113  0.00  0.00    +0.210 HD
ENDBRANCH  11   3
BRANCH  10   6
ATOM      6  N   UNL     1      -2.842 -10.131  16.109  0.00  0.00    -0.302 NA
ATOM     27  H   UNL     1      -2.471  -9.752  16.981  0.00  0.00    +0.123 HD
BRANCH   6  15
ATOM     15  C   UNL     1      -1.847 -11.018  15.518  0.00  0.00    +0.156 C 
BRANCH  15  16
ATOM      8  N   UNL     1      -2.433 -12.392  13.493  0.00  0.00    -0.336 N 
ATOM      9  N   UNL     1      -1.928 -10.262  13.122  0.00  0.00    -0.239 NA
ATOM     16  C   UNL     1      -2.062 -11.194  14.039  0.00  0.00    +0.123 A 
ATOM     18  C   UNL     1      -2.542 -12.210  12.144  0.00  0.00    +0.106 A 
ATOM     21  C   UNL     1      -2.671 -13.629  14.198  0.00  0.00    +0.150 C 
ATOM     22  C   UNL     1      -2.225 -10.889  11.938  0.00  0.00    +0.130 A 
ENDBRANCH  15  16
ENDBRANCH   6  15
ENDBRANCH  10   6
BRANCH  12  14
ATOM     14  C   UNL     1      -6.498 -11.020  19.195  0.00  0.00    +0.140 C 
BRANCH  14   7
ATOM      7  N   UNL     1      -7.649 -10.123  18.971  0.00  0.00    -0.187 NA
ATOM     29  H   UNL     1      -7.514  -9.144  19.255  0.00  0.00    +0.148 HD
BRANCH   7   1
ATOM      1  S   UNL     1      -9.229 -10.751  18.959  0.00  0.00    +0.058 S 
ATOM      4  O   UNL     1      -9.757 -10.751  20.310  0.00  0.00    -0.153 OA
ATOM      5  O   UNL     1      -9.249 -11.967  18.169  0.00  0.00    -0.153 OA
BRANCH   1  17
ATOM     17  C   UNL     1     -10.100  -9.521  18.035  0.00  0.00    +0.105 A 
ATOM     19  C   UNL     1     -11.491  -9.577  17.936  0.00  0.00    +0.029 A 
ATOM     20  C   UNL     1      -9.396  -8.498  17.399  0.00  0.00    +0.029 A 
ATOM     23  C   UNL     1     -12.177  -8.609  17.204  0.00  0.00    +0.005 A 
ATOM     24  C   UNL     1     -10.084  -7.531  16.666  0.00  0.00    +0.005 A 
ATOM     25  C   UNL     1     -11.475  -7.585  16.569  0.00  0.00    -0.050 A 
ATOM     26  C   UNL     1     -12.210  -6.550  15.786  0.00  0.00    +0.044 C 
ENDBRANCH   1  17
ENDBRANCH   7   1
ENDBRANCH  14   7
ENDBRANCH  12  14
TORSDOF 8
ENDMDL
