REMARK  Name = 75536966
REMARK  1 active torsions:
REMARK  status: ('A' for Active; 'I' for Inactive)
REMARK    1  A    between atoms: C_12  and  C_13
REMARK                            x       y       z     vdW  Elec       q    Type
REMARK                         _______ _______ _______ _____ _____    ______ ____
ROOT
ATOM      2  O   UNL     1       1.966   1.804  -0.005  0.00  0.00    -0.275 OA
ATOM      3  O   UNL     1      -4.887   0.725   0.671  0.00  0.00    -0.253 OA
ATOM      4  N   UNL     1      -2.603   0.274   0.323  0.00  0.00    -0.278 N 
ATOM      5  N   UNL     1       0.001   0.697  -0.558  0.00  0.00    -0.298 N 
ATOM      6  N   UNL     1      -4.106  -1.328  -0.153  0.00  0.00    -0.297 N 
ATOM      7  C   UNL     1      -1.805  -0.884  -0.037  0.00  0.00    +0.112 C 
ATOM      8  C   UNL     1      -0.724  -0.495  -1.041  0.00  0.00    +0.132 C 
ATOM      9  C   UNL     1      -1.949   1.505   0.725  0.00  0.00    +0.128 C 
ATOM     10  C   UNL     1      -0.852   1.861  -0.276  0.00  0.00    +0.127 C 
ATOM     11  C   UNL     1      -2.835  -1.882  -0.559  0.00  0.00    +0.129 C 
ATOM     13  C   UNL     1       1.381   0.788  -0.388  0.00  0.00    +0.219 C 
ATOM     14  C   UNL     1      -3.973  -0.012   0.328  0.00  0.00    +0.303 C 
ATOM     19  H   UNL     1      -4.998  -1.797  -0.273  0.00  0.00    +0.150 HD
ENDROOT
BRANCH  13  12
ATOM      1  O   UNL     1       4.564  -0.667   0.915  0.00  0.00    -0.380 OA
ATOM     12  C   UNL     1       2.178  -0.447  -0.695  0.00  0.00    +0.079 C 
ATOM     15  C   UNL     1       3.565  -0.085  -1.224  0.00  0.00    +0.041 C 
ATOM     16  C   UNL     1       2.261  -1.340   0.542  0.00  0.00    +0.041 C 
ATOM     17  C   UNL     1       4.524   0.323  -0.110  0.00  0.00    +0.160 C 
ATOM     18  C   UNL     1       3.295  -0.837   1.543  0.00  0.00    +0.160 C 
ENDBRANCH  13  12
TORSDOF 1
