MODEL 1
REMARK VINA RESULT:      -6.2      0.000      0.000
REMARK  Name = 45784077
REMARK  2 active torsions:
REMARK  status: ('A' for Active; 'I' for Inactive)
REMARK    1  A    between atoms: N_1  and  C_5
REMARK    2  A    between atoms: C_9  and  C_13
REMARK                            x       y       z     vdW  Elec       q    Type
REMARK                         _______ _______ _______ _____ _____    ______ ____
ROOT
ATOM      2  N   UNL     1      -0.645   1.655  -6.838  0.00  0.00    -0.340 N 
ATOM      3  N   UNL     1      -0.081  -0.162  -5.680  0.00  0.00    -0.213 NA
ATOM      4  N   UNL     1      -1.771  -1.638  -6.607  0.00  0.00    -0.234 NA
ATOM     13  C   UNL     1       0.194   1.104  -5.906  0.00  0.00    +0.114 A 
ATOM     14  C   UNL     1      -1.517   0.679  -7.237  0.00  0.00    +0.085 A 
ATOM     15  C   UNL     1      -1.144  -0.440  -6.502  0.00  0.00    +0.178 A 
ATOM     16  C   UNL     1      -2.572   0.647  -8.142  0.00  0.00    +0.031 A 
ATOM     17  C   UNL     1      -3.225  -0.576  -8.261  0.00  0.00    +0.022 A 
ATOM     18  C   UNL     1      -2.796  -1.652  -7.491  0.00  0.00    +0.113 A 
ATOM     19  H   UNL     1      -0.626   2.610  -7.171  0.00  0.00    +0.167 HD
ENDROOT
BRANCH  13   9
ATOM      1  N   UNL     1       1.936   4.119  -4.762  0.00  0.00    -0.299 NA
ATOM      8  C   UNL     1       0.773   3.235  -4.652  0.00  0.00    +0.096 C 
ATOM      9  C   UNL     1       1.287   1.921  -5.256  0.00  0.00    +0.070 C 
ATOM     11  C   UNL     1       2.476   3.864  -6.099  0.00  0.00    +0.085 C 
ATOM     12  C   UNL     1       2.425   2.345  -6.200  0.00  0.00    +0.028 C 
BRANCH   1   5
ATOM      5  C   UNL     1       1.538   5.525  -4.622  0.00  0.00    +0.057 C 
ATOM      6  C   UNL     1       0.916   6.022  -5.943  0.00  0.00    +0.019 C 
ATOM      7  C   UNL     1       2.743   6.437  -4.934  0.00  0.00    +0.019 C 
ATOM     10  C   UNL     1       1.778   7.292  -5.782  0.00  0.00    +0.003 C 
ENDBRANCH   1   5
ENDBRANCH  13   9
TORSDOF 2
ENDMDL
MODEL 2
REMARK VINA RESULT:      -6.2     24.255     25.740
REMARK  Name = 45784077
REMARK  2 active torsions:
REMARK  status: ('A' for Active; 'I' for Inactive)
REMARK    1  A    between atoms: N_1  and  C_5
REMARK    2  A    between atoms: C_9  and  C_13
REMARK                            x       y       z     vdW  Elec       q    Type
REMARK                         _______ _______ _______ _____ _____    ______ ____
ROOT
ATOM      2  N   UNL     1      -3.155 -11.669  17.134  0.00  0.00    -0.340 N 
ATOM      3  N   UNL     1      -4.535 -10.425  15.907  0.00  0.00    -0.213 NA
ATOM      4  N   UNL     1      -6.288 -10.199  17.572  0.00  0.00    -0.234 NA
ATOM     13  C   UNL     1      -3.378 -11.048  15.934  0.00  0.00    +0.114 A 
ATOM     14  C   UNL     1      -4.242 -11.431  17.931  0.00  0.00    +0.085 A 
ATOM     15  C   UNL     1      -5.084 -10.654  17.144  0.00  0.00    +0.178 A 
ATOM     16  C   UNL     1      -4.578 -11.798  19.229  0.00  0.00    +0.031 A 
ATOM     17  C   UNL     1      -5.811 -11.338  19.683  0.00  0.00    +0.022 A 
ATOM     18  C   UNL     1      -6.601 -10.566  18.837  0.00  0.00    +0.113 A 
ATOM     19  H   UNL     1      -2.337 -12.208  17.387  0.00  0.00    +0.167 HD
ENDROOT
BRANCH  13   9
ATOM      1  N   UNL     1      -2.147 -11.123  12.483  0.00  0.00    -0.299 NA
ATOM      8  C   UNL     1      -2.815 -10.375  13.551  0.00  0.00    +0.096 C 
ATOM      9  C   UNL     1      -2.362 -11.115  14.817  0.00  0.00    +0.070 C 
ATOM     11  C   UNL     1      -2.322 -12.531  12.844  0.00  0.00    +0.085 C 
ATOM     12  C   UNL     1      -2.022 -12.536  14.338  0.00  0.00    +0.028 C 
BRANCH   1   5
ATOM      5  C   UNL     1      -2.766 -10.840  11.182  0.00  0.00    +0.057 C 
ATOM      6  C   UNL     1      -2.350  -9.433  10.705  0.00  0.00    +0.019 C 
ATOM      7  C   UNL     1      -4.181 -10.266  11.397  0.00  0.00    +0.019 C 
ATOM     10  C   UNL     1      -3.830  -9.207  10.332  0.00  0.00    +0.003 C 
ENDBRANCH   1   5
ENDBRANCH  13   9
TORSDOF 2
ENDMDL
MODEL 3
REMARK VINA RESULT:      -6.0     14.338     16.219
REMARK  Name = 45784077
REMARK  2 active torsions:
REMARK  status: ('A' for Active; 'I' for Inactive)
REMARK    1  A    between atoms: N_1  and  C_5
REMARK    2  A    between atoms: C_9  and  C_13
REMARK                            x       y       z     vdW  Elec       q    Type
REMARK                         _______ _______ _______ _____ _____    ______ ____
ROOT
ATOM      2  N   UNL     1      10.179   4.317   5.425  0.00  0.00    -0.340 N 
ATOM      3  N   UNL     1       9.566   6.391   4.891  0.00  0.00    -0.213 NA
ATOM      4  N   UNL     1       9.076   7.143   7.148  0.00  0.00    -0.234 NA
ATOM     13  C   UNL     1       9.990   5.236   4.427  0.00  0.00    +0.114 A 
ATOM     14  C   UNL     1       9.854   4.921   6.609  0.00  0.00    +0.085 A 
ATOM     15  C   UNL     1       9.477   6.209   6.249  0.00  0.00    +0.178 A 
ATOM     16  C   UNL     1       9.848   4.494   7.933  0.00  0.00    +0.031 A 
ATOM     17  C   UNL     1       9.438   5.442   8.867  0.00  0.00    +0.022 A 
ATOM     18  C   UNL     1       9.075   6.712   8.431  0.00  0.00    +0.113 A 
ATOM     19  H   UNL     1      10.500   3.364   5.309  0.00  0.00    +0.167 HD
ENDROOT
BRANCH  13   9
ATOM      1  N   UNL     1      11.925   4.110   1.525  0.00  0.00    -0.299 NA
ATOM      8  C   UNL     1      11.317   3.787   2.818  0.00  0.00    +0.096 C 
ATOM      9  C   UNL     1      10.261   4.888   2.982  0.00  0.00    +0.070 C 
ATOM     11  C   UNL     1      12.099   5.564   1.545  0.00  0.00    +0.085 C 
ATOM     12  C   UNL     1      10.777   6.054   2.122  0.00  0.00    +0.028 C 
BRANCH   1   5
ATOM      5  C   UNL     1      13.219   3.435   1.372  0.00  0.00    +0.057 C 
ATOM      6  C   UNL     1      14.359   4.412   1.727  0.00  0.00    +0.019 C 
ATOM      7  C   UNL     1      13.688   3.539  -0.094  0.00  0.00    +0.019 C 
ATOM     10  C   UNL     1      15.080   3.910   0.459  0.00  0.00    +0.003 C 
ENDBRANCH   1   5
ENDBRANCH  13   9
TORSDOF 2
ENDMDL
MODEL 4
REMARK VINA RESULT:      -5.9     29.939     32.173
REMARK  Name = 45784077
REMARK  2 active torsions:
REMARK  status: ('A' for Active; 'I' for Inactive)
REMARK    1  A    between atoms: N_1  and  C_5
REMARK    2  A    between atoms: C_9  and  C_13
REMARK                            x       y       z     vdW  Elec       q    Type
REMARK                         _______ _______ _______ _____ _____    ______ ____
ROOT
ATOM      2  N   UNL     1      17.376   6.312  19.767  0.00  0.00    -0.340 N 
ATOM      3  N   UNL     1      17.879   8.054  21.060  0.00  0.00    -0.213 NA
ATOM      4  N   UNL     1      20.104   7.318  21.695  0.00  0.00    -0.234 NA
ATOM     13  C   UNL     1      16.964   7.509  20.289  0.00  0.00    +0.114 A 
ATOM     14  C   UNL     1      18.640   6.071  20.235  0.00  0.00    +0.085 A 
ATOM     15  C   UNL     1      18.928   7.170  21.036  0.00  0.00    +0.178 A 
ATOM     16  C   UNL     1      19.549   5.035  20.051  0.00  0.00    +0.031 A 
ATOM     17  C   UNL     1      20.760   5.173  20.722  0.00  0.00    +0.022 A 
ATOM     18  C   UNL     1      20.977   6.301  21.507  0.00  0.00    +0.113 A 
ATOM     19  H   UNL     1      16.845   5.712  19.149  0.00  0.00    +0.167 HD
ENDROOT
BRANCH  13   9
ATOM      1  N   UNL     1      13.368   8.095  20.685  0.00  0.00    -0.299 NA
ATOM      8  C   UNL     1      14.724   8.267  21.213  0.00  0.00    +0.096 C 
ATOM      9  C   UNL     1      15.600   8.074  19.968  0.00  0.00    +0.070 C 
ATOM     11  C   UNL     1      13.459   6.942  19.787  0.00  0.00    +0.085 C 
ATOM     12  C   UNL     1      14.748   7.210  19.022  0.00  0.00    +0.028 C 
BRANCH   1   5
ATOM      5  C   UNL     1      12.414   7.834  21.770  0.00  0.00    +0.057 C 
ATOM      6  C   UNL     1      11.658   6.518  21.490  0.00  0.00    +0.019 C 
ATOM      7  C   UNL     1      11.089   8.568  21.482  0.00  0.00    +0.019 C 
ATOM     10  C   UNL     1      10.368   7.266  21.887  0.00  0.00    +0.003 C 
ENDBRANCH   1   5
ENDBRANCH  13   9
TORSDOF 2
ENDMDL
MODEL 5
REMARK VINA RESULT:      -5.6     37.308     38.278
REMARK  Name = 45784077
REMARK  2 active torsions:
REMARK  status: ('A' for Active; 'I' for Inactive)
REMARK    1  A    between atoms: N_1  and  C_5
REMARK    2  A    between atoms: C_9  and  C_13
REMARK                            x       y       z     vdW  Elec       q    Type
REMARK                         _______ _______ _______ _____ _____    ______ ____
ROOT
ATOM      2  N   UNL     1     -16.013   2.786  27.723  0.00  0.00    -0.340 N 
ATOM      3  N   UNL     1     -16.601   0.770  26.984  0.00  0.00    -0.213 NA
ATOM      4  N   UNL     1     -17.048   1.417  24.686  0.00  0.00    -0.234 NA
ATOM     13  C   UNL     1     -16.201   1.464  28.026  0.00  0.00    +0.114 A 
ATOM     14  C   UNL     1     -16.313   2.953  26.398  0.00  0.00    +0.085 A 
ATOM     15  C   UNL     1     -16.674   1.684  25.962  0.00  0.00    +0.178 A 
ATOM     16  C   UNL     1     -16.307   4.051  25.545  0.00  0.00    +0.031 A 
ATOM     17  C   UNL     1     -16.688   3.792  24.231  0.00  0.00    +0.022 A 
ATOM     18  C   UNL     1     -17.039   2.496  23.869  0.00  0.00    +0.113 A 
ATOM     19  H   UNL     1     -15.709   3.510  28.361  0.00  0.00    +0.167 HD
ENDROOT
BRANCH  13   9
ATOM      1  N   UNL     1     -15.089   1.530  31.518  0.00  0.00    -0.299 NA
ATOM      8  C   UNL     1     -16.004   2.037  30.492  0.00  0.00    +0.096 C 
ATOM      9  C   UNL     1     -15.956   0.939  29.421  0.00  0.00    +0.070 C 
ATOM     11  C   UNL     1     -13.939   1.015  30.772  0.00  0.00    +0.085 C 
ATOM     12  C   UNL     1     -14.593   0.256  29.625  0.00  0.00    +0.028 C 
BRANCH   1   5
ATOM      5  C   UNL     1     -14.678   2.606  32.428  0.00  0.00    +0.057 C 
ATOM      6  C   UNL     1     -15.084   3.971  31.834  0.00  0.00    +0.019 C 
ATOM      7  C   UNL     1     -13.215   3.000  32.135  0.00  0.00    +0.019 C 
ATOM     10  C   UNL     1     -13.675   4.470  32.217  0.00  0.00    +0.003 C 
ENDBRANCH   1   5
ENDBRANCH  13   9
TORSDOF 2
ENDMDL
MODEL 6
REMARK VINA RESULT:      -5.6     13.560     16.168
REMARK  Name = 45784077
REMARK  2 active torsions:
REMARK  status: ('A' for Active; 'I' for Inactive)
REMARK    1  A    between atoms: N_1  and  C_5
REMARK    2  A    between atoms: C_9  and  C_13
REMARK                            x       y       z     vdW  Elec       q    Type
REMARK                         _______ _______ _______ _____ _____    ______ ____
ROOT
ATOM      2  N   UNL     1      11.643   5.716   4.071  0.00  0.00    -0.340 N 
ATOM      3  N   UNL     1       9.835   4.566   4.676  0.00  0.00    -0.213 NA
ATOM      4  N   UNL     1       9.503   5.648   6.824  0.00  0.00    -0.234 NA
ATOM     13  C   UNL     1      10.742   4.741   3.740  0.00  0.00    +0.114 A 
ATOM     14  C   UNL     1      11.294   6.201   5.303  0.00  0.00    +0.085 A 
ATOM     15  C   UNL     1      10.166   5.469   5.655  0.00  0.00    +0.178 A 
ATOM     16  C   UNL     1      11.826   7.180   6.134  0.00  0.00    +0.031 A 
ATOM     17  C   UNL     1      11.156   7.375   7.338  0.00  0.00    +0.022 A 
ATOM     18  C   UNL     1      10.034   6.604   7.622  0.00  0.00    +0.113 A 
ATOM     19  H   UNL     1      12.427   6.024   3.510  0.00  0.00    +0.167 HD
ENDROOT
BRANCH  13   9
ATOM      1  N   UNL     1      12.277   3.566   0.626  0.00  0.00    -0.299 NA
ATOM      8  C   UNL     1      12.277   3.569   2.091  0.00  0.00    +0.096 C 
ATOM      9  C   UNL     1      10.842   3.994   2.430  0.00  0.00    +0.070 C 
ATOM     11  C   UNL     1      11.560   4.785   0.249  0.00  0.00    +0.085 C 
ATOM     12  C   UNL     1      10.369   4.784   1.198  0.00  0.00    +0.028 C 
BRANCH   1   5
ATOM      5  C   UNL     1      13.649   3.588   0.104  0.00  0.00    +0.057 C 
ATOM      6  C   UNL     1      14.650   3.578   1.278  0.00  0.00    +0.019 C 
ATOM      7  C   UNL     1      14.082   5.046  -0.153  0.00  0.00    +0.019 C 
ATOM     10  C   UNL     1      15.417   4.690   0.532  0.00  0.00    +0.003 C 
ENDBRANCH   1   5
ENDBRANCH  13   9
TORSDOF 2
ENDMDL
MODEL 7
REMARK VINA RESULT:      -5.6     14.972     16.858
REMARK  Name = 45784077
REMARK  2 active torsions:
REMARK  status: ('A' for Active; 'I' for Inactive)
REMARK    1  A    between atoms: N_1  and  C_5
REMARK    2  A    between atoms: C_9  and  C_13
REMARK                            x       y       z     vdW  Elec       q    Type
REMARK                         _______ _______ _______ _____ _____    ______ ____
ROOT
ATOM      2  N   UNL     1      12.552   4.512   2.555  0.00  0.00    -0.340 N 
ATOM      3  N   UNL     1      13.076   6.669   2.384  0.00  0.00    -0.213 NA
ATOM      4  N   UNL     1      15.034   6.386   0.976  0.00  0.00    -0.234 NA
ATOM     13  C   UNL     1      12.235   5.799   2.898  0.00  0.00    +0.114 A 
ATOM     14  C   UNL     1      13.672   4.557   1.769  0.00  0.00    +0.085 A 
ATOM     15  C   UNL     1      13.976   5.910   1.678  0.00  0.00    +0.178 A 
ATOM     16  C   UNL     1      14.439   3.585   1.137  0.00  0.00    +0.031 A 
ATOM     17  C   UNL     1      15.529   4.059   0.412  0.00  0.00    +0.022 A 
ATOM     18  C   UNL     1      15.771   5.428   0.367  0.00  0.00    +0.113 A 
ATOM     19  H   UNL     1      12.051   3.677   2.832  0.00  0.00    +0.167 HD
ENDROOT
BRANCH  13   9
ATOM      1  N   UNL     1      10.237   5.942   5.967  0.00  0.00    -0.299 NA
ATOM      8  C   UNL     1      11.421   6.390   5.230  0.00  0.00    +0.096 C 
ATOM      9  C   UNL     1      11.040   6.105   3.771  0.00  0.00    +0.070 C 
ATOM     11  C   UNL     1       9.862   4.673   5.340  0.00  0.00    +0.085 C 
ATOM     12  C   UNL     1       9.995   4.979   3.854  0.00  0.00    +0.028 C 
BRANCH   1   5
ATOM      5  C   UNL     1      10.550   5.746   7.388  0.00  0.00    +0.057 C 
ATOM      6  C   UNL     1       9.965   4.402   7.868  0.00  0.00    +0.019 C 
ATOM      7  C   UNL     1       9.476   6.436   8.255  0.00  0.00    +0.019 C 
ATOM     10  C   UNL     1       9.458   5.155   9.115  0.00  0.00    +0.003 C 
ENDBRANCH   1   5
ENDBRANCH  13   9
TORSDOF 2
ENDMDL
MODEL 8
REMARK VINA RESULT:      -5.6     23.294     24.786
REMARK  Name = 45784077
REMARK  2 active torsions:
REMARK  status: ('A' for Active; 'I' for Inactive)
REMARK    1  A    between atoms: N_1  and  C_5
REMARK    2  A    between atoms: C_9  and  C_13
REMARK                            x       y       z     vdW  Elec       q    Type
REMARK                         _______ _______ _______ _____ _____    ______ ____
ROOT
ATOM      2  N   UNL     1      -3.149 -10.613  12.201  0.00  0.00    -0.340 N 
ATOM      3  N   UNL     1      -5.206 -10.183  12.937  0.00  0.00    -0.213 NA
ATOM      4  N   UNL     1      -5.952  -8.916  11.004  0.00  0.00    -0.234 NA
ATOM     13  C   UNL     1      -4.060 -10.767  13.210  0.00  0.00    +0.114 A 
ATOM     14  C   UNL     1      -3.747  -9.880  11.212  0.00  0.00    +0.085 A 
ATOM     15  C   UNL     1      -5.026  -9.627  11.694  0.00  0.00    +0.178 A 
ATOM     16  C   UNL     1      -3.324  -9.418   9.970  0.00  0.00    +0.031 A 
ATOM     17  C   UNL     1      -4.264  -8.687   9.249  0.00  0.00    +0.022 A 
ATOM     18  C   UNL     1      -5.524  -8.473   9.798  0.00  0.00    +0.113 A 
ATOM     19  H   UNL     1      -2.203 -10.973  12.186  0.00  0.00    +0.167 HD
ENDROOT
BRANCH  13   9
ATOM      1  N   UNL     1      -3.811 -11.434  16.806  0.00  0.00    -0.299 NA
ATOM      8  C   UNL     1      -4.665 -11.232  15.632  0.00  0.00    +0.096 C 
ATOM      9  C   UNL     1      -3.716 -11.535  14.465  0.00  0.00    +0.070 C 
ATOM     11  C   UNL     1      -2.539 -10.797  16.458  0.00  0.00    +0.085 C 
ATOM     12  C   UNL     1      -2.310 -11.261  15.025  0.00  0.00    +0.028 C 
BRANCH   1   5
ATOM      5  C   UNL     1      -4.399 -10.804  17.994  0.00  0.00    +0.057 C 
ATOM      6  C   UNL     1      -4.505 -11.840  19.132  0.00  0.00    +0.019 C 
ATOM      7  C   UNL     1      -5.938 -10.860  17.902  0.00  0.00    +0.019 C 
ATOM     10  C   UNL     1      -5.933 -11.310  19.377  0.00  0.00    +0.003 C 
ENDBRANCH   1   5
ENDBRANCH  13   9
TORSDOF 2
ENDMDL
MODEL 9
REMARK VINA RESULT:      -5.5     40.411     41.429
REMARK  Name = 45784077
REMARK  2 active torsions:
REMARK  status: ('A' for Active; 'I' for Inactive)
REMARK    1  A    between atoms: N_1  and  C_5
REMARK    2  A    between atoms: C_9  and  C_13
REMARK                            x       y       z     vdW  Elec       q    Type
REMARK                         _______ _______ _______ _____ _____    ______ ____
ROOT
ATOM      2  N   UNL     1     -15.346   2.212  33.077  0.00  0.00    -0.340 N 
ATOM      3  N   UNL     1     -14.215   3.542  31.694  0.00  0.00    -0.213 NA
ATOM      4  N   UNL     1     -13.580   1.831  30.093  0.00  0.00    -0.234 NA
ATOM     13  C   UNL     1     -14.915   3.483  32.806  0.00  0.00    +0.114 A 
ATOM     14  C   UNL     1     -14.893   1.399  32.073  0.00  0.00    +0.085 A 
ATOM     15  C   UNL     1     -14.194   2.252  31.226  0.00  0.00    +0.178 A 
ATOM     16  C   UNL     1     -15.014   0.039  31.813  0.00  0.00    +0.031 A 
ATOM     17  C   UNL     1     -14.389  -0.408  30.652  0.00  0.00    +0.022 A 
ATOM     18  C   UNL     1     -13.707   0.504  29.854  0.00  0.00    +0.113 A 
ATOM     19  H   UNL     1     -15.898   1.924  33.875  0.00  0.00    +0.167 HD
ENDROOT
BRANCH  13   9
ATOM      1  N   UNL     1     -14.771   6.894  34.141  0.00  0.00    -0.299 NA
ATOM      8  C   UNL     1     -15.137   6.002  33.037  0.00  0.00    +0.096 C 
ATOM      9  C   UNL     1     -15.245   4.635  33.726  0.00  0.00    +0.070 C 
ATOM     11  C   UNL     1     -13.757   6.156  34.898  0.00  0.00    +0.085 C 
ATOM     12  C   UNL     1     -14.342   4.752  34.966  0.00  0.00    +0.028 C 
BRANCH   1   5
ATOM      5  C   UNL     1     -14.223   8.156  33.632  0.00  0.00    +0.057 C 
ATOM      6  C   UNL     1     -13.997   8.048  32.110  0.00  0.00    +0.019 C 
ATOM      7  C   UNL     1     -12.688   8.152  33.783  0.00  0.00    +0.019 C 
ATOM     10  C   UNL     1     -12.621   8.705  32.345  0.00  0.00    +0.003 C 
ENDBRANCH   1   5
ENDBRANCH  13   9
TORSDOF 2
ENDMDL
MODEL 10
REMARK VINA RESULT:      -5.5     38.685     39.638
REMARK  Name = 45784077
REMARK  2 active torsions:
REMARK  status: ('A' for Active; 'I' for Inactive)
REMARK    1  A    between atoms: N_1  and  C_5
REMARK    2  A    between atoms: C_9  and  C_13
REMARK                            x       y       z     vdW  Elec       q    Type
REMARK                         _______ _______ _______ _____ _____    ______ ____
ROOT
ATOM      2  N   UNL     1     -15.035   3.076  28.794  0.00  0.00    -0.340 N 
ATOM      3  N   UNL     1     -15.789   1.037  29.280  0.00  0.00    -0.213 NA
ATOM      4  N   UNL     1     -17.085   0.711  27.252  0.00  0.00    -0.234 NA
ATOM     13  C   UNL     1     -15.052   2.044  29.694  0.00  0.00    +0.114 A 
ATOM     14  C   UNL     1     -15.815   2.708  27.730  0.00  0.00    +0.085 A 
ATOM     15  C   UNL     1     -16.270   1.436  28.058  0.00  0.00    +0.178 A 
ATOM     16  C   UNL     1     -16.166   3.332  26.539  0.00  0.00    +0.031 A 
ATOM     17  C   UNL     1     -17.003   2.600  25.702  0.00  0.00    +0.022 A 
ATOM     18  C   UNL     1     -17.419   1.333  26.097  0.00  0.00    +0.113 A 
ATOM     19  H   UNL     1     -14.539   3.952  28.895  0.00  0.00    +0.167 HD
ENDROOT
BRANCH  13   9
ATOM      1  N   UNL     1     -14.173   3.283  33.030  0.00  0.00    -0.299 NA
ATOM      8  C   UNL     1     -15.147   2.606  32.168  0.00  0.00    +0.096 C 
ATOM      9  C   UNL     1     -14.284   2.126  30.993  0.00  0.00    +0.070 C 
ATOM     11  C   UNL     1     -13.341   4.064  32.113  0.00  0.00    +0.085 C 
ATOM     12  C   UNL     1     -13.083   3.086  30.975  0.00  0.00    +0.028 C 
BRANCH   1   5
ATOM      5  C   UNL     1     -14.850   4.160  33.993  0.00  0.00    +0.057 C 
ATOM      6  C   UNL     1     -16.301   4.411  33.535  0.00  0.00    +0.019 C 
ATOM      7  C   UNL     1     -14.564   5.634  33.640  0.00  0.00    +0.019 C 
ATOM     10  C   UNL     1     -16.067   5.900  33.866  0.00  0.00    +0.003 C 
ENDBRANCH   1   5
ENDBRANCH  13   9
TORSDOF 2
ENDMDL
