MODEL 1
REMARK VINA RESULT:      -7.1      0.000      0.000
REMARK  Name = 40777850
REMARK  9 active torsions:
REMARK  status: ('A' for Active; 'I' for Inactive)
REMARK    1  A    between atoms: O_2  and  C_10
REMARK    2  A    between atoms: O_3  and  C_11
REMARK    3  A    between atoms: O_6  and  C_25
REMARK    4  A    between atoms: O_6  and  C_26
REMARK    5  A    between atoms: N_8  and  C_14
REMARK    6  A    between atoms: C_9  and  C_13
REMARK    7  A    between atoms: C_12  and  C_14
REMARK    8  A    between atoms: C_13  and  C_15
REMARK    9  A    between atoms: C_22  and  C_25
REMARK                            x       y       z     vdW  Elec       q    Type
REMARK                         _______ _______ _______ _____ _____    ______ ____
ROOT
ATOM      1  O   UNL     1      13.262   7.299  17.671  0.00  0.00    -0.366 OA
ATOM      9  C   UNL     1      13.758   6.926  18.977  0.00  0.00    +0.159 C 
ATOM     10  C   UNL     1      12.625   7.194  19.960  0.00  0.00    +0.175 C 
ATOM     11  C   UNL     1      11.881   8.326  19.283  0.00  0.00    +0.176 C 
ATOM     12  C   UNL     1      11.973   7.920  17.822  0.00  0.00    +0.167 C 
ENDROOT
BRANCH  10   2
ATOM      2  O   UNL     1      11.804   6.028  20.019  0.00  0.00    -0.387 OA
ATOM     27  H   UNL     1      11.265   6.011  19.210  0.00  0.00    +0.210 HD
ENDBRANCH  10   2
BRANCH  11   3
ATOM      3  O   UNL     1      10.543   8.453  19.714  0.00  0.00    -0.387 OA
ATOM     28  H   UNL     1       9.972   8.139  18.991  0.00  0.00    +0.210 HD
ENDBRANCH  11   3
BRANCH   9  13
ATOM     13  C   UNL     1      15.001   7.759  19.258  0.00  0.00    +0.130 C 
BRANCH  13  15
ATOM      4  O   UNL     1      16.256   5.828  18.695  0.00  0.00    -0.275 OA
ATOM      7  N   UNL     1      17.187   7.300  20.248  0.00  0.00    -0.271 N 
ATOM     15  C   UNL     1      16.209   6.859  19.368  0.00  0.00    +0.222 C 
ATOM     16  C   UNL     1      17.130   8.538  21.055  0.00  0.00    +0.118 C 
ATOM     17  C   UNL     1      18.422   8.624  21.873  0.00  0.00    +0.056 C 
ATOM     18  C   UNL     1      18.403   6.645  20.530  0.00  0.00    +0.039 A 
ATOM     19  C   UNL     1      19.138   7.380  21.462  0.00  0.00    -0.024 A 
ATOM     20  C   UNL     1      18.901   5.453  20.020  0.00  0.00    +0.024 A 
ATOM     21  C   UNL     1      20.379   6.946  21.906  0.00  0.00    +0.005 A 
ATOM     23  C   UNL     1      20.150   5.009  20.464  0.00  0.00    +0.002 A 
ATOM     24  C   UNL     1      20.885   5.750  21.399  0.00  0.00    +0.000 A 
ENDBRANCH  13  15
ENDBRANCH   9  13
BRANCH  12  14
ATOM     14  C   UNL     1      11.853   9.091  16.862  0.00  0.00    +0.138 C 
BRANCH  14   8
ATOM      5  O   UNL     1      14.078   9.749  15.134  0.00  0.00    -0.273 OA
ATOM      8  N   UNL     1      12.878  10.064  17.103  0.00  0.00    -0.311 N 
ATOM     22  C   UNL     1      13.916  10.317  16.211  0.00  0.00    +0.239 C 
ATOM     29  H   UNL     1      12.833  10.597  17.966  0.00  0.00    +0.149 HD
BRANCH  22  25
ATOM     25  C   UNL     1      14.853  11.392  16.718  0.00  0.00    +0.255 C 
BRANCH  25   6
ATOM      6  O   UNL     1      14.600  11.672  18.079  0.00  0.00    -0.374 OA
ATOM     26  C   UNL     1      15.793  12.011  18.781  0.00  0.00    +0.194 C 
ENDBRANCH  25   6
ENDBRANCH  22  25
ENDBRANCH  14   8
ENDBRANCH  12  14
TORSDOF 8
ENDMDL
MODEL 2
REMARK VINA RESULT:      -6.9      2.560      3.714
REMARK  Name = 40777850
REMARK  9 active torsions:
REMARK  status: ('A' for Active; 'I' for Inactive)
REMARK    1  A    between atoms: O_2  and  C_10
REMARK    2  A    between atoms: O_3  and  C_11
REMARK    3  A    between atoms: O_6  and  C_25
REMARK    4  A    between atoms: O_6  and  C_26
REMARK    5  A    between atoms: N_8  and  C_14
REMARK    6  A    between atoms: C_9  and  C_13
REMARK    7  A    between atoms: C_12  and  C_14
REMARK    8  A    between atoms: C_13  and  C_15
REMARK    9  A    between atoms: C_22  and  C_25
REMARK                            x       y       z     vdW  Elec       q    Type
REMARK                         _______ _______ _______ _____ _____    ______ ____
ROOT
ATOM      1  O   UNL     1      13.009   8.554  22.041  0.00  0.00    -0.366 OA
ATOM      9  C   UNL     1      13.913   9.655  22.287  0.00  0.00    +0.159 C 
ATOM     10  C   UNL     1      13.042  10.861  22.616  0.00  0.00    +0.175 C 
ATOM     11  C   UNL     1      11.773  10.553  21.850  0.00  0.00    +0.176 C 
ATOM     12  C   UNL     1      11.658   9.051  22.043  0.00  0.00    +0.167 C 
ENDROOT
BRANCH  10   2
ATOM      2  O   UNL     1      12.787  10.854  24.020  0.00  0.00    -0.387 OA
ATOM     27  H   UNL     1      12.557  11.763  24.278  0.00  0.00    +0.210 HD
ENDBRANCH  10   2
BRANCH  11   3
ATOM      3  O   UNL     1      10.641  11.238  22.342  0.00  0.00    -0.387 OA
ATOM     28  H   UNL     1       9.886  10.625  22.297  0.00  0.00    +0.210 HD
ENDBRANCH  11   3
BRANCH   9  13
ATOM     13  C   UNL     1      14.756   9.852  21.034  0.00  0.00    +0.130 C 
BRANCH  13  15
ATOM      4  O   UNL     1      16.909  10.048  22.007  0.00  0.00    -0.275 OA
ATOM      7  N   UNL     1      16.505   8.189  20.656  0.00  0.00    -0.271 N 
ATOM     15  C   UNL     1      16.169   9.378  21.286  0.00  0.00    +0.222 C 
ATOM     16  C   UNL     1      15.615   7.386  19.791  0.00  0.00    +0.118 C 
ATOM     17  C   UNL     1      16.402   6.158  19.322  0.00  0.00    +0.056 C 
ATOM     18  C   UNL     1      17.755   7.538  20.730  0.00  0.00    +0.039 A 
ATOM     19  C   UNL     1      17.730   6.366  19.972  0.00  0.00    -0.024 A 
ATOM     20  C   UNL     1      18.902   7.909  21.418  0.00  0.00    +0.024 A 
ATOM     21  C   UNL     1      18.841   5.541  19.882  0.00  0.00    +0.005 A 
ATOM     23  C   UNL     1      20.027   7.084  21.331  0.00  0.00    +0.002 A 
ATOM     24  C   UNL     1      19.997   5.908  20.569  0.00  0.00    +0.000 A 
ENDBRANCH  13  15
ENDBRANCH   9  13
BRANCH  12  14
ATOM     14  C   UNL     1      10.858   8.362  20.951  0.00  0.00    +0.138 C 
BRANCH  14   8
ATOM      5  O   UNL     1      12.250   6.928  18.859  0.00  0.00    -0.273 OA
ATOM      8  N   UNL     1      11.219   8.857  19.655  0.00  0.00    -0.311 N 
ATOM     22  C   UNL     1      11.891   8.093  18.705  0.00  0.00    +0.239 C 
ATOM     29  H   UNL     1      10.961   9.811  19.422  0.00  0.00    +0.149 HD
BRANCH  22  25
ATOM     25  C   UNL     1      12.143   8.865  17.428  0.00  0.00    +0.255 C 
BRANCH  25   6
ATOM      6  O   UNL     1      13.518   9.152  17.282  0.00  0.00    -0.374 OA
ATOM     26  C   UNL     1      14.027   8.690  16.033  0.00  0.00    +0.194 C 
ENDBRANCH  25   6
ENDBRANCH  22  25
ENDBRANCH  14   8
ENDBRANCH  12  14
TORSDOF 8
ENDMDL
MODEL 3
REMARK VINA RESULT:      -6.4      2.454      3.383
REMARK  Name = 40777850
REMARK  9 active torsions:
REMARK  status: ('A' for Active; 'I' for Inactive)
REMARK    1  A    between atoms: O_2  and  C_10
REMARK    2  A    between atoms: O_3  and  C_11
REMARK    3  A    between atoms: O_6  and  C_25
REMARK    4  A    between atoms: O_6  and  C_26
REMARK    5  A    between atoms: N_8  and  C_14
REMARK    6  A    between atoms: C_9  and  C_13
REMARK    7  A    between atoms: C_12  and  C_14
REMARK    8  A    between atoms: C_13  and  C_15
REMARK    9  A    between atoms: C_22  and  C_25
REMARK                            x       y       z     vdW  Elec       q    Type
REMARK                         _______ _______ _______ _____ _____    ______ ____
ROOT
ATOM      1  O   UNL     1      11.406   8.586  19.490  0.00  0.00    -0.366 OA
ATOM      9  C   UNL     1      12.430   7.718  18.953  0.00  0.00    +0.159 C 
ATOM     10  C   UNL     1      12.611   6.591  19.963  0.00  0.00    +0.175 C 
ATOM     11  C   UNL     1      12.230   7.268  21.263  0.00  0.00    +0.176 C 
ATOM     12  C   UNL     1      11.075   8.149  20.820  0.00  0.00    +0.167 C 
ENDROOT
BRANCH  10   2
ATOM      2  O   UNL     1      11.675   5.560  19.649  0.00  0.00    -0.387 OA
ATOM     27  H   UNL     1      12.174   4.828  19.246  0.00  0.00    +0.210 HD
ENDBRANCH  10   2
BRANCH  11   3
ATOM      3  O   UNL     1      11.847   6.362  22.275  0.00  0.00    -0.387 OA
ATOM     28  H   UNL     1      11.832   6.852  23.116  0.00  0.00    +0.210 HD
ENDBRANCH  11   3
BRANCH   9  13
ATOM     13  C   UNL     1      13.689   8.550  18.756  0.00  0.00    +0.130 C 
BRANCH  13  15
ATOM      4  O   UNL     1      15.035   6.761  17.975  0.00  0.00    -0.275 OA
ATOM      7  N   UNL     1      15.800   7.951  19.830  0.00  0.00    -0.271 N 
ATOM     15  C   UNL     1      14.908   7.658  18.809  0.00  0.00    +0.222 C 
ATOM     16  C   UNL     1      15.647   9.029  20.830  0.00  0.00    +0.118 C 
ATOM     17  C   UNL     1      16.868   8.986  21.755  0.00  0.00    +0.056 C 
ATOM     18  C   UNL     1      17.008   7.271  20.094  0.00  0.00    +0.039 A 
ATOM     19  C   UNL     1      17.647   7.841  21.197  0.00  0.00    -0.024 A 
ATOM     20  C   UNL     1      17.574   6.192  19.430  0.00  0.00    +0.024 A 
ATOM     21  C   UNL     1      18.859   7.352  21.660  0.00  0.00    +0.005 A 
ATOM     23  C   UNL     1      18.796   5.692  19.892  0.00  0.00    +0.002 A 
ATOM     24  C   UNL     1      19.434   6.268  20.999  0.00  0.00    +0.000 A 
ENDBRANCH  13  15
ENDBRANCH   9  13
BRANCH  12  14
ATOM     14  C   UNL     1      10.860   9.356  21.716  0.00  0.00    +0.138 C 
BRANCH  14   8
ATOM      5  O   UNL     1      10.899  12.018  22.847  0.00  0.00    -0.273 OA
ATOM      8  N   UNL     1      11.672  10.461  21.300  0.00  0.00    -0.311 N 
ATOM     22  C   UNL     1      11.626  11.714  21.904  0.00  0.00    +0.239 C 
ATOM     29  H   UNL     1      12.317  10.313  20.529  0.00  0.00    +0.149 HD
BRANCH  22  25
ATOM     25  C   UNL     1      12.589  12.690  21.265  0.00  0.00    +0.255 C 
BRANCH  25   6
ATOM      6  O   UNL     1      12.029  13.249  20.095  0.00  0.00    -0.374 OA
ATOM     26  C   UNL     1      11.332  14.462  20.367  0.00  0.00    +0.194 C 
ENDBRANCH  25   6
ENDBRANCH  22  25
ENDBRANCH  14   8
ENDBRANCH  12  14
TORSDOF 8
ENDMDL
MODEL 4
REMARK VINA RESULT:      -6.4      3.957      7.285
REMARK  Name = 40777850
REMARK  9 active torsions:
REMARK  status: ('A' for Active; 'I' for Inactive)
REMARK    1  A    between atoms: O_2  and  C_10
REMARK    2  A    between atoms: O_3  and  C_11
REMARK    3  A    between atoms: O_6  and  C_25
REMARK    4  A    between atoms: O_6  and  C_26
REMARK    5  A    between atoms: N_8  and  C_14
REMARK    6  A    between atoms: C_9  and  C_13
REMARK    7  A    between atoms: C_12  and  C_14
REMARK    8  A    between atoms: C_13  and  C_15
REMARK    9  A    between atoms: C_22  and  C_25
REMARK                            x       y       z     vdW  Elec       q    Type
REMARK                         _______ _______ _______ _____ _____    ______ ____
ROOT
ATOM      1  O   UNL     1      12.602   7.828  21.847  0.00  0.00    -0.366 OA
ATOM      9  C   UNL     1      11.678   7.902  20.737  0.00  0.00    +0.159 C 
ATOM     10  C   UNL     1      12.394   7.291  19.539  0.00  0.00    +0.175 C 
ATOM     11  C   UNL     1      13.846   7.580  19.859  0.00  0.00    +0.176 C 
ATOM     12  C   UNL     1      13.875   7.363  21.362  0.00  0.00    +0.167 C 
ENDROOT
BRANCH  10   2
ATOM      2  O   UNL     1      12.154   5.885  19.548  0.00  0.00    -0.387 OA
ATOM     27  H   UNL     1      13.014   5.445  19.666  0.00  0.00    +0.210 HD
ENDBRANCH  10   2
BRANCH  11   3
ATOM      3  O   UNL     1      14.747   6.728  19.184  0.00  0.00    -0.387 OA
ATOM     28  H   UNL     1      14.439   6.647  18.265  0.00  0.00    +0.210 HD
ENDBRANCH  11   3
BRANCH   9  13
ATOM     13  C   UNL     1      11.314   9.367  20.532  0.00  0.00    +0.130 C 
BRANCH  13  15
ATOM      4  O   UNL     1      10.204   9.452  22.625  0.00  0.00    -0.275 OA
ATOM      7  N   UNL     1      11.653  11.206  22.105  0.00  0.00    -0.271 N 
ATOM     15  C   UNL     1      10.995  10.008  21.863  0.00  0.00    +0.222 C 
ATOM     16  C   UNL     1      12.603  11.871  21.189  0.00  0.00    +0.118 C 
ATOM     17  C   UNL     1      13.084  13.158  21.867  0.00  0.00    +0.056 C 
ATOM     18  C   UNL     1      11.528  11.998  23.265  0.00  0.00    +0.039 A 
ATOM     19  C   UNL     1      12.338  13.130  23.161  0.00  0.00    -0.024 A 
ATOM     20  C   UNL     1      10.754  11.786  24.398  0.00  0.00    +0.024 A 
ATOM     21  C   UNL     1      12.396  14.073  24.177  0.00  0.00    +0.005 A 
ATOM     23  C   UNL     1      10.806  12.732  25.426  0.00  0.00    +0.002 A 
ATOM     24  C   UNL     1      11.620  13.867  25.317  0.00  0.00    +0.000 A 
ENDBRANCH  13  15
ENDBRANCH   9  13
BRANCH  12  14
ATOM     14  C   UNL     1      14.993   8.119  22.058  0.00  0.00    +0.138 C 
BRANCH  14   8
ATOM      5  O   UNL     1      17.263   9.349  20.753  0.00  0.00    -0.273 OA
ATOM      8  N   UNL     1      16.268   7.519  21.791  0.00  0.00    -0.311 N 
ATOM     22  C   UNL     1      17.309   8.189  21.154  0.00  0.00    +0.239 C 
ATOM     29  H   UNL     1      16.413   6.560  22.090  0.00  0.00    +0.149 HD
BRANCH  22  25
ATOM     25  C   UNL     1      18.537   7.318  21.003  0.00  0.00    +0.255 C 
BRANCH  25   6
ATOM      6  O   UNL     1      18.171   5.988  20.700  0.00  0.00    -0.374 OA
ATOM     26  C   UNL     1      18.053   5.777  19.295  0.00  0.00    +0.194 C 
ENDBRANCH  25   6
ENDBRANCH  22  25
ENDBRANCH  14   8
ENDBRANCH  12  14
TORSDOF 8
ENDMDL
MODEL 5
REMARK VINA RESULT:      -6.3      2.196      2.839
REMARK  Name = 40777850
REMARK  9 active torsions:
REMARK  status: ('A' for Active; 'I' for Inactive)
REMARK    1  A    between atoms: O_2  and  C_10
REMARK    2  A    between atoms: O_3  and  C_11
REMARK    3  A    between atoms: O_6  and  C_25
REMARK    4  A    between atoms: O_6  and  C_26
REMARK    5  A    between atoms: N_8  and  C_14
REMARK    6  A    between atoms: C_9  and  C_13
REMARK    7  A    between atoms: C_12  and  C_14
REMARK    8  A    between atoms: C_13  and  C_15
REMARK    9  A    between atoms: C_22  and  C_25
REMARK                            x       y       z     vdW  Elec       q    Type
REMARK                         _______ _______ _______ _____ _____    ______ ____
ROOT
ATOM      1  O   UNL     1      14.352   8.981  18.229  0.00  0.00    -0.366 OA
ATOM      9  C   UNL     1      14.315   7.624  18.727  0.00  0.00    +0.159 C 
ATOM     10  C   UNL     1      12.843   7.269  18.901  0.00  0.00    +0.175 C 
ATOM     11  C   UNL     1      12.223   8.624  19.179  0.00  0.00    +0.176 C 
ATOM     12  C   UNL     1      13.017   9.519  18.243  0.00  0.00    +0.167 C 
ENDROOT
BRANCH  10   2
ATOM      2  O   UNL     1      12.362   6.750  17.662  0.00  0.00    -0.387 OA
ATOM     27  H   UNL     1      11.468   6.400  17.821  0.00  0.00    +0.210 HD
ENDBRANCH  10   2
BRANCH  11   3
ATOM      3  O   UNL     1      10.838   8.672  18.908  0.00  0.00    -0.387 OA
ATOM     28  H   UNL     1      10.446   9.327  19.511  0.00  0.00    +0.210 HD
ENDBRANCH  11   3
BRANCH   9  13
ATOM     13  C   UNL     1      15.095   7.587  20.034  0.00  0.00    +0.130 C 
BRANCH  13  15
ATOM      4  O   UNL     1      16.256   5.719  19.147  0.00  0.00    -0.275 OA
ATOM      7  N   UNL     1      17.424   7.118  20.604  0.00  0.00    -0.271 N 
ATOM     15  C   UNL     1      16.314   6.708  19.879  0.00  0.00    +0.222 C 
ATOM     16  C   UNL     1      17.494   8.304  21.482  0.00  0.00    +0.118 C 
ATOM     17  C   UNL     1      18.907   8.370  22.070  0.00  0.00    +0.056 C 
ATOM     18  C   UNL     1      18.678   6.473  20.631  0.00  0.00    +0.039 A 
ATOM     19  C   UNL     1      19.555   7.168  21.466  0.00  0.00    -0.024 A 
ATOM     20  C   UNL     1      19.093   5.324  19.972  0.00  0.00    +0.024 A 
ATOM     21  C   UNL     1      20.859   6.736  21.663  0.00  0.00    +0.005 A 
ATOM     23  C   UNL     1      20.406   4.882  20.165  0.00  0.00    +0.002 A 
ATOM     24  C   UNL     1      21.283   5.583  21.005  0.00  0.00    +0.000 A 
ENDBRANCH  13  15
ENDBRANCH   9  13
BRANCH  12  14
ATOM     14  C   UNL     1      13.056  10.970  18.688  0.00  0.00    +0.138 C 
BRANCH  14   8
ATOM      5  O   UNL     1      14.498  11.152  21.189  0.00  0.00    -0.273 OA
ATOM      8  N   UNL     1      12.499  11.126  19.999  0.00  0.00    -0.311 N 
ATOM     22  C   UNL     1      13.271  11.205  21.154  0.00  0.00    +0.239 C 
ATOM     29  H   UNL     1      11.488  11.187  20.081  0.00  0.00    +0.149 HD
BRANCH  22  25
ATOM     25  C   UNL     1      12.423  11.367  22.397  0.00  0.00    +0.255 C 
BRANCH  25   6
ATOM      6  O   UNL     1      11.120  11.794  22.058  0.00  0.00    -0.374 OA
ATOM     26  C   UNL     1      10.835  13.091  22.577  0.00  0.00    +0.194 C 
ENDBRANCH  25   6
ENDBRANCH  22  25
ENDBRANCH  14   8
ENDBRANCH  12  14
TORSDOF 8
ENDMDL
MODEL 6
REMARK VINA RESULT:      -6.2      2.061      2.997
REMARK  Name = 40777850
REMARK  9 active torsions:
REMARK  status: ('A' for Active; 'I' for Inactive)
REMARK    1  A    between atoms: O_2  and  C_10
REMARK    2  A    between atoms: O_3  and  C_11
REMARK    3  A    between atoms: O_6  and  C_25
REMARK    4  A    between atoms: O_6  and  C_26
REMARK    5  A    between atoms: N_8  and  C_14
REMARK    6  A    between atoms: C_9  and  C_13
REMARK    7  A    between atoms: C_12  and  C_14
REMARK    8  A    between atoms: C_13  and  C_15
REMARK    9  A    between atoms: C_22  and  C_25
REMARK                            x       y       z     vdW  Elec       q    Type
REMARK                         _______ _______ _______ _____ _____    ______ ____
ROOT
ATOM      1  O   UNL     1      14.295   8.091  17.331  0.00  0.00    -0.366 OA
ATOM      9  C   UNL     1      13.362   7.608  18.325  0.00  0.00    +0.159 C 
ATOM     10  C   UNL     1      11.976   8.040  17.861  0.00  0.00    +0.175 C 
ATOM     11  C   UNL     1      12.285   9.298  17.074  0.00  0.00    +0.176 C 
ATOM     12  C   UNL     1      13.586   8.916  16.389  0.00  0.00    +0.167 C 
ENDROOT
BRANCH  10   2
ATOM      2  O   UNL     1      11.464   7.028  16.995  0.00  0.00    -0.387 OA
ATOM     27  H   UNL     1      11.968   6.214  17.169  0.00  0.00    +0.210 HD
ENDBRANCH  10   2
BRANCH  11   3
ATOM      3  O   UNL     1      11.278   9.638  16.146  0.00  0.00    -0.387 OA
ATOM     28  H   UNL     1      10.471   9.840  16.651  0.00  0.00    +0.210 HD
ENDBRANCH  11   3
BRANCH   9  13
ATOM     13  C   UNL     1      13.757   8.213  19.666  0.00  0.00    +0.130 C 
BRANCH  13  15
ATOM      4  O   UNL     1      15.071   6.336  20.273  0.00  0.00    -0.275 OA
ATOM      7  N   UNL     1      16.050   8.445  20.477  0.00  0.00    -0.271 N 
ATOM     15  C   UNL     1      15.024   7.562  20.170  0.00  0.00    +0.222 C 
ATOM     16  C   UNL     1      15.991   9.916  20.352  0.00  0.00    +0.118 C 
ATOM     17  C   UNL     1      17.347  10.478  20.795  0.00  0.00    +0.056 C 
ATOM     18  C   UNL     1      17.326   8.092  20.964  0.00  0.00    +0.039 A 
ATOM     19  C   UNL     1      18.098   9.239  21.159  0.00  0.00    -0.024 A 
ATOM     20  C   UNL     1      17.846   6.836  21.243  0.00  0.00    +0.024 A 
ATOM     21  C   UNL     1      19.399   9.162  21.633  0.00  0.00    +0.005 A 
ATOM     23  C   UNL     1      19.157   6.749  21.723  0.00  0.00    +0.002 A 
ATOM     24  C   UNL     1      19.928   7.904  21.916  0.00  0.00    +0.000 A 
ENDBRANCH  13  15
ENDBRANCH   9  13
BRANCH  12  14
ATOM     14  C   UNL     1      14.441  10.113  16.013  0.00  0.00    +0.138 C 
BRANCH  14   8
ATOM      5  O   UNL     1      15.059  11.239  13.421  0.00  0.00    -0.273 OA
ATOM      8  N   UNL     1      13.679  11.087  15.288  0.00  0.00    -0.311 N 
ATOM     22  C   UNL     1      14.053  11.576  14.040  0.00  0.00    +0.239 C 
ATOM     29  H   UNL     1      12.821  11.428  15.711  0.00  0.00    +0.149 HD
BRANCH  22  25
ATOM     25  C   UNL     1      13.066  12.592  13.508  0.00  0.00    +0.255 C 
BRANCH  25   6
ATOM      6  O   UNL     1      12.296  12.039  12.461  0.00  0.00    -0.374 OA
ATOM     26  C   UNL     1      10.905  12.031  12.771  0.00  0.00    +0.194 C 
ENDBRANCH  25   6
ENDBRANCH  22  25
ENDBRANCH  14   8
ENDBRANCH  12  14
TORSDOF 8
ENDMDL
MODEL 7
REMARK VINA RESULT:      -6.0     27.284     28.997
REMARK  Name = 40777850
REMARK  9 active torsions:
REMARK  status: ('A' for Active; 'I' for Inactive)
REMARK    1  A    between atoms: O_2  and  C_10
REMARK    2  A    between atoms: O_3  and  C_11
REMARK    3  A    between atoms: O_6  and  C_25
REMARK    4  A    between atoms: O_6  and  C_26
REMARK    5  A    between atoms: N_8  and  C_14
REMARK    6  A    between atoms: C_9  and  C_13
REMARK    7  A    between atoms: C_12  and  C_14
REMARK    8  A    between atoms: C_13  and  C_15
REMARK    9  A    between atoms: C_22  and  C_25
REMARK                            x       y       z     vdW  Elec       q    Type
REMARK                         _______ _______ _______ _____ _____    ______ ____
ROOT
ATOM      1  O   UNL     1      -6.688 -11.758  17.376  0.00  0.00    -0.366 OA
ATOM      9  C   UNL     1      -5.653 -11.177  18.200  0.00  0.00    +0.159 C 
ATOM     10  C   UNL     1      -6.330 -10.733  19.491  0.00  0.00    +0.175 C 
ATOM     11  C   UNL     1      -7.741 -10.439  19.023  0.00  0.00    +0.176 C 
ATOM     12  C   UNL     1      -7.962 -11.550  18.012  0.00  0.00    +0.167 C 
ENDROOT
BRANCH  10   2
ATOM      2  O   UNL     1      -6.328 -11.836  20.396  0.00  0.00    -0.387 OA
ATOM     27  H   UNL     1      -5.649 -11.659  21.069  0.00  0.00    +0.210 HD
ENDBRANCH  10   2
BRANCH  11   3
ATOM      3  O   UNL     1      -8.694 -10.472  20.064  0.00  0.00    -0.387 OA
ATOM     28  H   UNL     1      -8.211 -10.605  20.898  0.00  0.00    +0.210 HD
ENDBRANCH  11   3
BRANCH   9  13
ATOM     13  C   UNL     1      -5.034 -10.022  17.424  0.00  0.00    +0.130 C 
BRANCH  13  15
ATOM      4  O   UNL     1      -3.001 -11.039  16.750  0.00  0.00    -0.275 OA
ATOM      7  N   UNL     1      -4.515 -10.450  15.075  0.00  0.00    -0.271 N 
ATOM     15  C   UNL     1      -4.074 -10.557  16.387  0.00  0.00    +0.222 C 
ATOM     16  C   UNL     1      -5.804  -9.872  14.640  0.00  0.00    +0.118 C 
ATOM     17  C   UNL     1      -5.868  -9.968  13.113  0.00  0.00    +0.056 C 
ATOM     18  C   UNL     1      -3.810 -10.873  13.929  0.00  0.00    +0.039 A 
ATOM     19  C   UNL     1      -4.560 -10.609  12.782  0.00  0.00    -0.024 A 
ATOM     20  C   UNL     1      -2.561 -11.470  13.833  0.00  0.00    +0.024 A 
ATOM     21  C   UNL     1      -4.086 -10.933  11.519  0.00  0.00    +0.005 A 
ATOM     23  C   UNL     1      -2.075 -11.799  12.564  0.00  0.00    +0.002 A 
ATOM     24  C   UNL     1      -2.832 -11.532  11.415  0.00  0.00    +0.000 A 
ENDBRANCH  13  15
ENDBRANCH   9  13
BRANCH  12  14
ATOM     14  C   UNL     1      -9.008 -11.211  16.964  0.00  0.00    +0.138 C 
BRANCH  14   8
ATOM      5  O   UNL     1      -9.166  -9.067  15.028  0.00  0.00    -0.273 OA
ATOM      8  N   UNL     1      -9.540  -9.896  17.170  0.00  0.00    -0.311 N 
ATOM     22  C   UNL     1      -9.577  -8.922  16.177  0.00  0.00    +0.239 C 
ATOM     29  H   UNL     1      -9.914  -9.674  18.088  0.00  0.00    +0.149 HD
BRANCH  22  25
ATOM     25  C   UNL     1     -10.191  -7.630  16.669  0.00  0.00    +0.255 C 
BRANCH  25   6
ATOM      6  O   UNL     1     -10.112  -6.629  15.675  0.00  0.00    -0.374 OA
ATOM     26  C   UNL     1     -11.342  -5.923  15.534  0.00  0.00    +0.194 C 
ENDBRANCH  25   6
ENDBRANCH  22  25
ENDBRANCH  14   8
ENDBRANCH  12  14
TORSDOF 8
ENDMDL
MODEL 8
REMARK VINA RESULT:      -5.9     27.344     29.261
REMARK  Name = 40777850
REMARK  9 active torsions:
REMARK  status: ('A' for Active; 'I' for Inactive)
REMARK    1  A    between atoms: O_2  and  C_10
REMARK    2  A    between atoms: O_3  and  C_11
REMARK    3  A    between atoms: O_6  and  C_25
REMARK    4  A    between atoms: O_6  and  C_26
REMARK    5  A    between atoms: N_8  and  C_14
REMARK    6  A    between atoms: C_9  and  C_13
REMARK    7  A    between atoms: C_12  and  C_14
REMARK    8  A    between atoms: C_13  and  C_15
REMARK    9  A    between atoms: C_22  and  C_25
REMARK                            x       y       z     vdW  Elec       q    Type
REMARK                         _______ _______ _______ _____ _____    ______ ____
ROOT
ATOM      1  O   UNL     1      -7.587 -12.235  17.582  0.00  0.00    -0.366 OA
ATOM      9  C   UNL     1      -6.308 -11.866  17.019  0.00  0.00    +0.159 C 
ATOM     10  C   UNL     1      -5.610 -11.005  18.065  0.00  0.00    +0.175 C 
ATOM     11  C   UNL     1      -6.782 -10.376  18.789  0.00  0.00    +0.176 C 
ATOM     12  C   UNL     1      -7.773 -11.527  18.821  0.00  0.00    +0.167 C 
ENDROOT
BRANCH  10   2
ATOM      2  O   UNL     1      -4.892 -11.870  18.944  0.00  0.00    -0.387 OA
ATOM     27  H   UNL     1      -4.042 -11.441  19.143  0.00  0.00    +0.210 HD
ENDBRANCH  10   2
BRANCH  11   3
ATOM      3  O   UNL     1      -6.460  -9.919  20.085  0.00  0.00    -0.387 OA
ATOM     28  H   UNL     1      -5.547 -10.199  20.275  0.00  0.00    +0.210 HD
ENDBRANCH  11   3
BRANCH   9  13
ATOM     13  C   UNL     1      -6.569 -11.125  15.715  0.00  0.00    +0.130 C 
BRANCH  13  15
ATOM      4  O   UNL     1      -4.283 -11.613  15.319  0.00  0.00    -0.275 OA
ATOM      7  N   UNL     1      -5.425 -10.410  13.678  0.00  0.00    -0.271 N 
ATOM     15  C   UNL     1      -5.305 -11.077  14.889  0.00  0.00    +0.222 C 
ATOM     16  C   UNL     1      -6.652  -9.768  13.162  0.00  0.00    +0.118 C 
ATOM     17  C   UNL     1      -6.324  -9.162  11.794  0.00  0.00    +0.056 C 
ATOM     18  C   UNL     1      -4.398 -10.227  12.729  0.00  0.00    +0.039 A 
ATOM     19  C   UNL     1      -4.881  -9.511  11.632  0.00  0.00    -0.024 A 
ATOM     20  C   UNL     1      -3.076 -10.647  12.770  0.00  0.00    +0.024 A 
ATOM     21  C   UNL     1      -4.063  -9.200  10.556  0.00  0.00    +0.005 A 
ATOM     23  C   UNL     1      -2.244 -10.336  11.689  0.00  0.00    +0.002 A 
ATOM     24  C   UNL     1      -2.734  -9.618  10.590  0.00  0.00    +0.000 A 
ENDBRANCH  13  15
ENDBRANCH   9  13
BRANCH  12  14
ATOM     14  C   UNL     1      -9.218 -11.075  18.940  0.00  0.00    +0.138 C 
BRANCH  14   8
ATOM      5  O   UNL     1     -10.057 -10.088  16.353  0.00  0.00    -0.273 OA
ATOM      8  N   UNL     1      -9.366  -9.706  18.542  0.00  0.00    -0.311 N 
ATOM     22  C   UNL     1      -9.778  -9.319  17.270  0.00  0.00    +0.239 C 
ATOM     29  H   UNL     1      -9.166  -8.987  19.232  0.00  0.00    +0.149 HD
BRANCH  22  25
ATOM     25  C   UNL     1      -9.848  -7.815  17.127  0.00  0.00    +0.255 C 
BRANCH  25   6
ATOM      6  O   UNL     1     -11.191  -7.376  17.129  0.00  0.00    -0.374 OA
ATOM     26  C   UNL     1     -11.386  -6.260  16.263  0.00  0.00    +0.194 C 
ENDBRANCH  25   6
ENDBRANCH  22  25
ENDBRANCH  14   8
ENDBRANCH  12  14
TORSDOF 8
ENDMDL
MODEL 9
REMARK VINA RESULT:      -5.9     26.613     29.800
REMARK  Name = 40777850
REMARK  9 active torsions:
REMARK  status: ('A' for Active; 'I' for Inactive)
REMARK    1  A    between atoms: O_2  and  C_10
REMARK    2  A    between atoms: O_3  and  C_11
REMARK    3  A    between atoms: O_6  and  C_25
REMARK    4  A    between atoms: O_6  and  C_26
REMARK    5  A    between atoms: N_8  and  C_14
REMARK    6  A    between atoms: C_9  and  C_13
REMARK    7  A    between atoms: C_12  and  C_14
REMARK    8  A    between atoms: C_13  and  C_15
REMARK    9  A    between atoms: C_22  and  C_25
REMARK                            x       y       z     vdW  Elec       q    Type
REMARK                         _______ _______ _______ _____ _____    ______ ____
ROOT
ATOM      1  O   UNL     1     -14.060   7.056  22.729  0.00  0.00    -0.366 OA
ATOM      9  C   UNL     1     -14.136   7.646  21.411  0.00  0.00    +0.159 C 
ATOM     10  C   UNL     1     -15.190   6.855  20.646  0.00  0.00    +0.175 C 
ATOM     11  C   UNL     1     -15.101   5.493  21.302  0.00  0.00    +0.176 C 
ATOM     12  C   UNL     1     -14.875   5.870  22.757  0.00  0.00    +0.167 C 
ENDROOT
BRANCH  10   2
ATOM      2  O   UNL     1     -16.463   7.446  20.905  0.00  0.00    -0.387 OA
ATOM     27  H   UNL     1     -16.982   6.805  21.420  0.00  0.00    +0.210 HD
ENDBRANCH  10   2
BRANCH  11   3
ATOM      3  O   UNL     1     -16.264   4.712  21.133  0.00  0.00    -0.387 OA
ATOM     28  H   UNL     1     -16.829   5.167  20.484  0.00  0.00    +0.210 HD
ENDBRANCH  11   3
BRANCH   9  13
ATOM     13  C   UNL     1     -12.752   7.559  20.782  0.00  0.00    +0.130 C 
BRANCH  13  15
ATOM      4  O   UNL     1     -12.568   9.910  21.034  0.00  0.00    -0.275 OA
ATOM      7  N   UNL     1     -11.614   8.954  19.131  0.00  0.00    -0.271 N 
ATOM     15  C   UNL     1     -12.305   8.931  20.334  0.00  0.00    +0.222 C 
ATOM     16  C   UNL     1     -11.298   7.779  18.291  0.00  0.00    +0.118 C 
ATOM     17  C   UNL     1     -10.521   8.273  17.067  0.00  0.00    +0.056 C 
ATOM     18  C   UNL     1     -11.093  10.102  18.499  0.00  0.00    +0.039 A 
ATOM     19  C   UNL     1     -10.458   9.746  17.307  0.00  0.00    -0.024 A 
ATOM     20  C   UNL     1     -11.141  11.429  18.903  0.00  0.00    +0.024 A 
ATOM     21  C   UNL     1      -9.860  10.699  16.495  0.00  0.00    +0.005 A 
ATOM     23  C   UNL     1     -10.541  12.396  18.089  0.00  0.00    +0.002 A 
ATOM     24  C   UNL     1      -9.905  12.034  16.894  0.00  0.00    +0.000 A 
ENDBRANCH  13  15
ENDBRANCH   9  13
BRANCH  12  14
ATOM     14  C   UNL     1     -14.175   4.787  23.558  0.00  0.00    +0.138 C 
BRANCH  14   8
ATOM      5  O   UNL     1     -16.166   2.702  23.317  0.00  0.00    -0.273 OA
ATOM      8  N   UNL     1     -15.026   4.278  24.594  0.00  0.00    -0.311 N 
ATOM     22  C   UNL     1     -15.960   3.267  24.388  0.00  0.00    +0.239 C 
ATOM     29  H   UNL     1     -14.930   4.675  25.524  0.00  0.00    +0.149 HD
BRANCH  22  25
ATOM     25  C   UNL     1     -16.719   2.927  25.652  0.00  0.00    +0.255 C 
BRANCH  25   6
ATOM      6  O   UNL     1     -16.003   3.354  26.793  0.00  0.00    -0.374 OA
ATOM     26  C   UNL     1     -16.827   4.096  27.689  0.00  0.00    +0.194 C 
ENDBRANCH  25   6
ENDBRANCH  22  25
ENDBRANCH  14   8
ENDBRANCH  12  14
TORSDOF 8
ENDMDL
MODEL 10
REMARK VINA RESULT:      -5.9     26.886     30.056
REMARK  Name = 40777850
REMARK  9 active torsions:
REMARK  status: ('A' for Active; 'I' for Inactive)
REMARK    1  A    between atoms: O_2  and  C_10
REMARK    2  A    between atoms: O_3  and  C_11
REMARK    3  A    between atoms: O_6  and  C_25
REMARK    4  A    between atoms: O_6  and  C_26
REMARK    5  A    between atoms: N_8  and  C_14
REMARK    6  A    between atoms: C_9  and  C_13
REMARK    7  A    between atoms: C_12  and  C_14
REMARK    8  A    between atoms: C_13  and  C_15
REMARK    9  A    between atoms: C_22  and  C_25
REMARK                            x       y       z     vdW  Elec       q    Type
REMARK                         _______ _______ _______ _____ _____    ______ ____
ROOT
ATOM      1  O   UNL     1      -5.801 -10.493  18.571  0.00  0.00    -0.366 OA
ATOM      9  C   UNL     1      -5.682 -11.763  19.252  0.00  0.00    +0.159 C 
ATOM     10  C   UNL     1      -4.517 -12.495  18.597  0.00  0.00    +0.175 C 
ATOM     11  C   UNL     1      -4.542 -11.933  17.190  0.00  0.00    +0.176 C 
ATOM     12  C   UNL     1      -4.897 -10.479  17.451  0.00  0.00    +0.167 C 
ENDROOT
BRANCH  10   2
ATOM      2  O   UNL     1      -3.317 -12.107  19.264  0.00  0.00    -0.387 OA
ATOM     27  H   UNL     1      -2.614 -12.060  18.593  0.00  0.00    +0.210 HD
ENDBRANCH  10   2
BRANCH  11   3
ATOM      3  O   UNL     1      -3.310 -12.063  16.514  0.00  0.00    -0.387 OA
ATOM     28  H   UNL     1      -2.634 -11.611  17.048  0.00  0.00    +0.210 HD
ENDBRANCH  11   3
BRANCH   9  13
ATOM     13  C   UNL     1      -7.007 -12.497  19.104  0.00  0.00    +0.130 C 
BRANCH  13  15
ATOM      4  O   UNL     1      -8.442 -10.877  20.072  0.00  0.00    -0.275 OA
ATOM      7  N   UNL     1      -8.760 -11.384  17.816  0.00  0.00    -0.271 N 
ATOM     15  C   UNL     1      -8.143 -11.502  19.053  0.00  0.00    +0.222 C 
ATOM     16  C   UNL     1      -8.399 -12.134  16.595  0.00  0.00    +0.118 C 
ATOM     17  C   UNL     1      -9.338 -11.680  15.472  0.00  0.00    +0.056 C 
ATOM     18  C   UNL     1      -9.839 -10.530  17.508  0.00  0.00    +0.039 A 
ATOM     19  C   UNL     1     -10.198 -10.676  16.167  0.00  0.00    -0.024 A 
ATOM     20  C   UNL     1     -10.519  -9.639  18.327  0.00  0.00    +0.024 A 
ATOM     21  C   UNL     1     -11.236  -9.941  15.613  0.00  0.00    +0.005 A 
ATOM     23  C   UNL     1     -11.568  -8.896  17.777  0.00  0.00    +0.002 A 
ATOM     24  C   UNL     1     -11.924  -9.045  16.430  0.00  0.00    +0.000 A 
ENDBRANCH  13  15
ENDBRANCH   9  13
BRANCH  12  14
ATOM     14  C   UNL     1      -5.561  -9.800  16.266  0.00  0.00    +0.138 C 
BRANCH  14   8
ATOM      5  O   UNL     1      -6.525 -10.628  13.667  0.00  0.00    -0.273 OA
ATOM      8  N   UNL     1      -4.789  -9.971  15.071  0.00  0.00    -0.311 N 
ATOM     22  C   UNL     1      -5.338 -10.374  13.857  0.00  0.00    +0.239 C 
ATOM     29  H   UNL     1      -3.792  -9.779  15.119  0.00  0.00    +0.149 HD
BRANCH  22  25
ATOM     25  C   UNL     1      -4.295 -10.473  12.766  0.00  0.00    +0.255 C 
BRANCH  25   6
ATOM      6  O   UNL     1      -2.994 -10.414  13.312  0.00  0.00    -0.374 OA
ATOM     26  C   UNL     1      -1.993 -10.677  12.331  0.00  0.00    +0.194 C 
ENDBRANCH  25   6
ENDBRANCH  22  25
ENDBRANCH  14   8
ENDBRANCH  12  14
TORSDOF 8
ENDMDL
