MODEL 1
REMARK VINA RESULT:      -7.1      0.000      0.000
REMARK  Name = 45784172
REMARK  3 active torsions:
REMARK  status: ('A' for Active; 'I' for Inactive)
REMARK    1  A    between atoms: N_5  and  C_11
REMARK    2  A    between atoms: C_7  and  C_12
REMARK    3  A    between atoms: C_11  and  C_13
REMARK                            x       y       z     vdW  Elec       q    Type
REMARK                         _______ _______ _______ _____ _____    ______ ____
ROOT
ATOM      5  N   UNL     1      16.588   7.513  20.605  0.00  0.00    -0.297 NA
ATOM      7  C   UNL     1      18.717   6.651  20.131  0.00  0.00    +0.090 C 
ATOM      8  C   UNL     1      17.663   5.909  19.290  0.00  0.00    +0.029 C 
ATOM      9  C   UNL     1      17.909   7.371  21.220  0.00  0.00    +0.097 C 
ATOM     10  C   UNL     1      16.332   6.225  19.961  0.00  0.00    +0.085 C 
ENDROOT
BRANCH   7  12
ATOM      1 CL   UNL     1      24.101   1.773  22.340  0.00  0.00    -0.083 Cl
ATOM      4  O   UNL     1      20.379   6.201  21.856  0.00  0.00    -0.439 OA
ATOM      6  N   UNL     1      20.291   4.650  20.206  0.00  0.00    -0.213 NA
ATOM     12  C   UNL     1      19.813   5.774  20.693  0.00  0.00    +0.201 A 
ATOM     14  C   UNL     1      21.255   4.296  21.116  0.00  0.00    +0.111 A 
ATOM     15  C   UNL     1      21.313   5.242  22.128  0.00  0.00    +0.155 A 
ATOM     18  C   UNL     1      22.126   3.197  21.166  0.00  0.00    +0.051 A 
ATOM     19  C   UNL     1      22.182   5.192  23.212  0.00  0.00    +0.050 A 
ATOM     22  C   UNL     1      23.017   3.110  22.245  0.00  0.00    +0.043 A 
ATOM     23  C   UNL     1      23.042   4.090  23.246  0.00  0.00    +0.024 A 
ENDBRANCH   7  12
BRANCH   5  11
ATOM     11  C   UNL     1      15.560   7.862  21.574  0.00  0.00    +0.119 C 
BRANCH  11  13
ATOM      2  F   UNL     1      10.799   6.853  21.195  0.00  0.00    -0.202 F 
ATOM      3  F   UNL     1      10.541   8.621  19.126  0.00  0.00    -0.202 F 
ATOM     13  C   UNL     1      14.219   8.065  20.919  0.00  0.00    -0.030 A 
ATOM     16  C   UNL     1      13.109   7.351  21.370  0.00  0.00    +0.046 A 
ATOM     17  C   UNL     1      14.087   8.967  19.864  0.00  0.00    +0.008 A 
ATOM     20  C   UNL     1      11.866   7.539  20.763  0.00  0.00    +0.159 A 
ATOM     21  C   UNL     1      12.844   9.155  19.258  0.00  0.00    +0.041 A 
ATOM     24  C   UNL     1      11.734   8.442  19.708  0.00  0.00    +0.158 A 
ENDBRANCH  11  13
ENDBRANCH   5  11
TORSDOF 3
ENDMDL
MODEL 2
REMARK VINA RESULT:      -7.1     27.469     29.412
REMARK  Name = 45784172
REMARK  3 active torsions:
REMARK  status: ('A' for Active; 'I' for Inactive)
REMARK    1  A    between atoms: N_5  and  C_11
REMARK    2  A    between atoms: C_7  and  C_12
REMARK    3  A    between atoms: C_11  and  C_13
REMARK                            x       y       z     vdW  Elec       q    Type
REMARK                         _______ _______ _______ _____ _____    ______ ____
ROOT
ATOM      5  N   UNL     1      -2.142 -11.042  13.676  0.00  0.00    -0.297 NA
ATOM      7  C   UNL     1      -3.236 -10.181  15.563  0.00  0.00    +0.090 C 
ATOM      8  C   UNL     1      -1.926 -10.862  15.995  0.00  0.00    +0.029 C 
ATOM      9  C   UNL     1      -3.487 -10.688  14.136  0.00  0.00    +0.097 C 
ATOM     10  C   UNL     1      -1.526 -11.732  14.810  0.00  0.00    +0.085 C 
ENDROOT
BRANCH   7  12
ATOM      1 CL   UNL     1      -9.515 -10.832  19.784  0.00  0.00    -0.083 Cl
ATOM      4  O   UNL     1      -4.212 -11.332  17.477  0.00  0.00    -0.439 OA
ATOM      6  N   UNL     1      -5.597  -9.854  16.461  0.00  0.00    -0.213 NA
ATOM     12  C   UNL     1      -4.409 -10.417  16.486  0.00  0.00    +0.201 A 
ATOM     14  C   UNL     1      -6.248 -10.438  17.519  0.00  0.00    +0.111 A 
ATOM     15  C   UNL     1      -5.404 -11.344  18.144  0.00  0.00    +0.155 A 
ATOM     18  C   UNL     1      -7.546 -10.264  18.022  0.00  0.00    +0.051 A 
ATOM     19  C   UNL     1      -5.745 -12.111  19.251  0.00  0.00    +0.050 A 
ATOM     22  C   UNL     1      -7.927 -11.021  19.139  0.00  0.00    +0.043 A 
ATOM     23  C   UNL     1      -7.043 -11.926  19.739  0.00  0.00    +0.024 A 
ENDBRANCH   7  12
BRANCH   5  11
ATOM     11  C   UNL     1      -2.165 -11.863  12.475  0.00  0.00    +0.119 C 
BRANCH  11  13
ATOM      2  F   UNL     1      -5.283 -11.848   8.721  0.00  0.00    -0.202 F 
ATOM      3  F   UNL     1      -4.702  -9.230   8.187  0.00  0.00    -0.202 F 
ATOM     13  C   UNL     1      -2.842 -11.159  11.329  0.00  0.00    -0.030 A 
ATOM     16  C   UNL     1      -3.767 -11.843  10.540  0.00  0.00    +0.046 A 
ATOM     17  C   UNL     1      -2.546  -9.824  11.057  0.00  0.00    +0.008 A 
ATOM     20  C   UNL     1      -4.395 -11.191   9.479  0.00  0.00    +0.159 A 
ATOM     21  C   UNL     1      -3.174  -9.172   9.995  0.00  0.00    +0.041 A 
ATOM     24  C   UNL     1      -4.099  -9.856   9.207  0.00  0.00    +0.158 A 
ENDBRANCH  11  13
ENDBRANCH   5  11
TORSDOF 3
ENDMDL
MODEL 3
REMARK VINA RESULT:      -7.0     28.298     30.268
REMARK  Name = 45784172
REMARK  3 active torsions:
REMARK  status: ('A' for Active; 'I' for Inactive)
REMARK    1  A    between atoms: N_5  and  C_11
REMARK    2  A    between atoms: C_7  and  C_12
REMARK    3  A    between atoms: C_11  and  C_13
REMARK                            x       y       z     vdW  Elec       q    Type
REMARK                         _______ _______ _______ _____ _____    ______ ____
ROOT
ATOM      5  N   UNL     1      -3.984 -10.868  14.732  0.00  0.00    -0.297 NA
ATOM      7  C   UNL     1      -5.312  -9.823  16.358  0.00  0.00    +0.090 C 
ATOM      8  C   UNL     1      -4.220 -10.661  17.046  0.00  0.00    +0.029 C 
ATOM      9  C   UNL     1      -5.334 -10.328  14.908  0.00  0.00    +0.097 C 
ATOM     10  C   UNL     1      -3.709 -11.605  15.965  0.00  0.00    +0.085 C 
ENDROOT
BRANCH   7  12
ATOM      1 CL   UNL     1     -12.361  -9.574  19.170  0.00  0.00    -0.083 Cl
ATOM      4  O   UNL     1      -6.774 -10.720  18.089  0.00  0.00    -0.439 OA
ATOM      6  N   UNL     1      -7.761  -9.219  16.706  0.00  0.00    -0.213 NA
ATOM     12  C   UNL     1      -6.668  -9.879  17.022  0.00  0.00    +0.201 A 
ATOM     14  C   UNL     1      -8.673  -9.654  17.637  0.00  0.00    +0.111 A 
ATOM     15  C   UNL     1      -8.073 -10.573  18.484  0.00  0.00    +0.155 A 
ATOM     18  C   UNL     1     -10.022  -9.328  17.837  0.00  0.00    +0.051 A 
ATOM     19  C   UNL     1      -8.712 -11.212  19.540  0.00  0.00    +0.050 A 
ATOM     22  C   UNL     1     -10.702  -9.952  18.893  0.00  0.00    +0.043 A 
ATOM     23  C   UNL     1     -10.057 -10.875  19.725  0.00  0.00    +0.024 A 
ENDBRANCH   7  12
BRANCH   5  11
ATOM     11  C   UNL     1      -3.874 -11.708  13.548  0.00  0.00    +0.119 C 
BRANCH  11  13
ATOM      2  F   UNL     1      -1.368  -8.863  10.475  0.00  0.00    -0.202 F 
ATOM      3  F   UNL     1      -3.539  -8.647   8.829  0.00  0.00    -0.202 F 
ATOM     13  C   UNL     1      -3.785 -10.890  12.288  0.00  0.00    -0.030 A 
ATOM     16  C   UNL     1      -2.593 -10.243  11.959  0.00  0.00    +0.046 A 
ATOM     17  C   UNL     1      -4.893 -10.781  11.447  0.00  0.00    +0.008 A 
ATOM     20  C   UNL     1      -2.511  -9.485  10.791  0.00  0.00    +0.159 A 
ATOM     21  C   UNL     1      -4.809 -10.023  10.279  0.00  0.00    +0.041 A 
ATOM     24  C   UNL     1      -3.619  -9.375   9.950  0.00  0.00    +0.158 A 
ENDBRANCH  11  13
ENDBRANCH   5  11
TORSDOF 3
ENDMDL
MODEL 4
REMARK VINA RESULT:      -6.8     29.449     32.330
REMARK  Name = 45784172
REMARK  3 active torsions:
REMARK  status: ('A' for Active; 'I' for Inactive)
REMARK    1  A    between atoms: N_5  and  C_11
REMARK    2  A    between atoms: C_7  and  C_12
REMARK    3  A    between atoms: C_11  and  C_13
REMARK                            x       y       z     vdW  Elec       q    Type
REMARK                         _______ _______ _______ _____ _____    ______ ____
ROOT
ATOM      5  N   UNL     1     -13.556   6.935  20.999  0.00  0.00    -0.297 NA
ATOM      7  C   UNL     1     -14.981   5.195  21.665  0.00  0.00    +0.090 C 
ATOM      8  C   UNL     1     -15.818   6.430  21.289  0.00  0.00    +0.029 C 
ATOM      9  C   UNL     1     -13.552   5.730  21.832  0.00  0.00    +0.097 C 
ATOM     10  C   UNL     1     -14.831   7.590  21.292  0.00  0.00    +0.085 C 
ENDROOT
BRANCH   7  12
ATOM      1 CL   UNL     1     -17.000   1.876  28.190  0.00  0.00    -0.083 Cl
ATOM      4  O   UNL     1     -16.345   3.423  22.634  0.00  0.00    -0.439 OA
ATOM      6  N   UNL     1     -15.167   4.636  24.143  0.00  0.00    -0.213 NA
ATOM     12  C   UNL     1     -15.473   4.440  22.879  0.00  0.00    +0.201 A 
ATOM     14  C   UNL     1     -15.893   3.671  24.797  0.00  0.00    +0.111 A 
ATOM     15  C   UNL     1     -16.616   2.927  23.876  0.00  0.00    +0.155 A 
ATOM     18  C   UNL     1     -16.002   3.355  26.159  0.00  0.00    +0.051 A 
ATOM     19  C   UNL     1     -17.459   1.870  24.200  0.00  0.00    +0.050 A 
ATOM     22  C   UNL     1     -16.842   2.294  26.524  0.00  0.00    +0.043 A 
ATOM     23  C   UNL     1     -17.555   1.568  25.562  0.00  0.00    +0.024 A 
ENDBRANCH   7  12
BRANCH   5  11
ATOM     11  C   UNL     1     -12.415   7.798  21.265  0.00  0.00    +0.119 C 
BRANCH  11  13
ATOM      2  F   UNL     1      -9.964  11.078  18.610  0.00  0.00    -0.202 F 
ATOM      3  F   UNL     1      -9.783   9.323  16.522  0.00  0.00    -0.202 F 
ATOM     13  C   UNL     1     -11.713   8.205  19.998  0.00  0.00    -0.030 A 
ATOM     16  C   UNL     1     -11.153   9.478  19.889  0.00  0.00    +0.046 A 
ATOM     17  C   UNL     1     -11.620   7.309  18.933  0.00  0.00    +0.008 A 
ATOM     20  C   UNL     1     -10.501   9.855  18.714  0.00  0.00    +0.159 A 
ATOM     21  C   UNL     1     -10.968   7.687  17.758  0.00  0.00    +0.041 A 
ATOM     24  C   UNL     1     -10.408   8.960  17.649  0.00  0.00    +0.158 A 
ENDBRANCH  11  13
ENDBRANCH   5  11
TORSDOF 3
ENDMDL
MODEL 5
REMARK VINA RESULT:      -6.8      2.804      3.345
REMARK  Name = 45784172
REMARK  3 active torsions:
REMARK  status: ('A' for Active; 'I' for Inactive)
REMARK    1  A    between atoms: N_5  and  C_11
REMARK    2  A    between atoms: C_7  and  C_12
REMARK    3  A    between atoms: C_11  and  C_13
REMARK                            x       y       z     vdW  Elec       q    Type
REMARK                         _______ _______ _______ _____ _____    ______ ____
ROOT
ATOM      5  N   UNL     1      13.922   8.291  20.749  0.00  0.00    -0.297 NA
ATOM      7  C   UNL     1      16.089   7.838  19.978  0.00  0.00    +0.090 C 
ATOM      8  C   UNL     1      15.077   6.983  19.196  0.00  0.00    +0.029 C 
ATOM      9  C   UNL     1      15.313   8.338  21.204  0.00  0.00    +0.097 C 
ATOM     10  C   UNL     1      13.803   7.023  20.031  0.00  0.00    +0.085 C 
ENDROOT
BRANCH   7  12
ATOM      1 CL   UNL     1      22.463   3.876  21.134  0.00  0.00    -0.083 Cl
ATOM      4  O   UNL     1      17.931   7.480  21.534  0.00  0.00    -0.439 OA
ATOM      6  N   UNL     1      18.021   6.209  19.659  0.00  0.00    -0.213 NA
ATOM     12  C   UNL     1      17.373   7.127  20.342  0.00  0.00    +0.201 A 
ATOM     14  C   UNL     1      19.101   5.925  20.458  0.00  0.00    +0.111 A 
ATOM     15  C   UNL     1      19.050   6.701  21.607  0.00  0.00    +0.155 A 
ATOM     18  C   UNL     1      20.169   5.031  20.292  0.00  0.00    +0.051 A 
ATOM     19  C   UNL     1      19.990   6.665  22.630  0.00  0.00    +0.050 A 
ATOM     22  C   UNL     1      21.138   4.965  21.304  0.00  0.00    +0.043 A 
ATOM     23  C   UNL     1      21.048   5.768  22.447  0.00  0.00    +0.024 A 
ENDBRANCH   7  12
BRANCH   5  11
ATOM     11  C   UNL     1      12.975   8.396  21.849  0.00  0.00    +0.119 C 
BRANCH  11  13
ATOM      2  F   UNL     1      10.262  11.734  24.155  0.00  0.00    -0.202 F 
ATOM      3  F   UNL     1      10.615  13.507  22.104  0.00  0.00    -0.202 F 
ATOM     13  C   UNL     1      12.344   9.762  21.917  0.00  0.00    -0.030 A 
ATOM     16  C   UNL     1      11.580  10.122  23.027  0.00  0.00    +0.046 A 
ATOM     17  C   UNL     1      12.525  10.666  20.871  0.00  0.00    +0.008 A 
ATOM     20  C   UNL     1      10.996  11.388  23.090  0.00  0.00    +0.159 A 
ATOM     21  C   UNL     1      11.940  11.932  20.934  0.00  0.00    +0.041 A 
ATOM     24  C   UNL     1      11.176  12.293  22.044  0.00  0.00    +0.158 A 
ENDBRANCH  11  13
ENDBRANCH   5  11
TORSDOF 3
ENDMDL
MODEL 6
REMARK VINA RESULT:      -6.8     18.603     20.891
REMARK  Name = 45784172
REMARK  3 active torsions:
REMARK  status: ('A' for Active; 'I' for Inactive)
REMARK    1  A    between atoms: N_5  and  C_11
REMARK    2  A    between atoms: C_7  and  C_12
REMARK    3  A    between atoms: C_11  and  C_13
REMARK                            x       y       z     vdW  Elec       q    Type
REMARK                         _______ _______ _______ _____ _____    ______ ____
ROOT
ATOM      5  N   UNL     1      11.410   5.289   1.116  0.00  0.00    -0.297 NA
ATOM      7  C   UNL     1      10.095   6.010   2.919  0.00  0.00    +0.090 C 
ATOM      8  C   UNL     1      11.043   7.143   2.490  0.00  0.00    +0.029 C 
ATOM      9  C   UNL     1      10.670   4.750   2.259  0.00  0.00    +0.097 C 
ATOM     10  C   UNL     1      12.110   6.462   1.641  0.00  0.00    +0.085 C 
ENDROOT
BRANCH   7  12
ATOM      1 CL   UNL     1       9.441   4.537  10.340  0.00  0.00    -0.083 Cl
ATOM      4  O   UNL     1       9.464   6.969   5.070  0.00  0.00    -0.439 OA
ATOM      6  N   UNL     1      10.140   4.808   5.164  0.00  0.00    -0.213 NA
ATOM     12  C   UNL     1       9.917   5.864   4.413  0.00  0.00    +0.201 A 
ATOM     14  C   UNL     1       9.811   5.240   6.425  0.00  0.00    +0.111 A 
ATOM     15  C   UNL     1       9.397   6.563   6.371  0.00  0.00    +0.155 A 
ATOM     18  C   UNL     1       9.831   4.587   7.665  0.00  0.00    +0.051 A 
ATOM     19  C   UNL     1       8.992   7.311   7.471  0.00  0.00    +0.050 A 
ATOM     22  C   UNL     1       9.429   5.309   8.798  0.00  0.00    +0.043 A 
ATOM     23  C   UNL     1       9.019   6.644   8.700  0.00  0.00    +0.024 A 
ENDBRANCH   7  12
BRANCH   5  11
ATOM     11  C   UNL     1      12.320   4.315   0.534  0.00  0.00    +0.119 C 
BRANCH  11  13
ATOM      2  F   UNL     1       9.280   4.623  -3.271  0.00  0.00    -0.202 F 
ATOM      3  F   UNL     1      10.536   2.531  -4.504  0.00  0.00    -0.202 F 
ATOM     13  C   UNL     1      11.844   3.837  -0.812  0.00  0.00    -0.030 A 
ATOM     16  C   UNL     1      10.761   4.464  -1.430  0.00  0.00    +0.046 A 
ATOM     17  C   UNL     1      12.485   2.771  -1.441  0.00  0.00    +0.008 A 
ATOM     20  C   UNL     1      10.320   4.022  -2.678  0.00  0.00    +0.159 A 
ATOM     21  C   UNL     1      12.042   2.330  -2.689  0.00  0.00    +0.041 A 
ATOM     24  C   UNL     1      10.960   2.955  -3.307  0.00  0.00    +0.158 A 
ENDBRANCH  11  13
ENDBRANCH   5  11
TORSDOF 3
ENDMDL
MODEL 7
REMARK VINA RESULT:      -6.7      5.735      9.835
REMARK  Name = 45784172
REMARK  3 active torsions:
REMARK  status: ('A' for Active; 'I' for Inactive)
REMARK    1  A    between atoms: N_5  and  C_11
REMARK    2  A    between atoms: C_7  and  C_12
REMARK    3  A    between atoms: C_11  and  C_13
REMARK                            x       y       z     vdW  Elec       q    Type
REMARK                         _______ _______ _______ _____ _____    ______ ____
ROOT
ATOM      5  N   UNL     1      21.216   4.876  20.963  0.00  0.00    -0.297 NA
ATOM      7  C   UNL     1      19.533   6.445  20.511  0.00  0.00    +0.090 C 
ATOM      8  C   UNL     1      20.340   6.897  21.740  0.00  0.00    +0.029 C 
ATOM      9  C   UNL     1      19.900   4.967  20.326  0.00  0.00    +0.097 C 
ATOM     10  C   UNL     1      21.091   5.652  22.196  0.00  0.00    +0.085 C 
ENDROOT
BRANCH   7  12
ATOM      1 CL   UNL     1      12.151   7.691  21.784  0.00  0.00    -0.083 Cl
ATOM      4  O   UNL     1      17.346   6.587  19.443  0.00  0.00    -0.439 OA
ATOM      6  N   UNL     1      17.326   6.943  21.681  0.00  0.00    -0.213 NA
ATOM     12  C   UNL     1      18.042   6.674  20.612  0.00  0.00    +0.201 A 
ATOM     14  C   UNL     1      16.048   7.046  21.189  0.00  0.00    +0.111 A 
ATOM     15  C   UNL     1      16.056   6.829  19.819  0.00  0.00    +0.155 A 
ATOM     18  C   UNL     1      14.828   7.319  21.824  0.00  0.00    +0.051 A 
ATOM     19  C   UNL     1      14.930   6.861  19.006  0.00  0.00    +0.050 A 
ATOM     22  C   UNL     1      13.669   7.359  21.037  0.00  0.00    +0.043 A 
ATOM     23  C   UNL     1      13.722   7.135  19.656  0.00  0.00    +0.024 A 
ENDBRANCH   7  12
BRANCH   5  11
ATOM     11  C   UNL     1      21.618   3.500  21.212  0.00  0.00    +0.119 C 
BRANCH  11  13
ATOM      2  F   UNL     1      25.658   0.776  21.497  0.00  0.00    -0.202 F 
ATOM      3  F   UNL     1      27.106   2.704  20.209  0.00  0.00    -0.202 F 
ATOM     13  C   UNL     1      23.084   3.288  20.944  0.00  0.00    -0.030 A 
ATOM     16  C   UNL     1      23.704   2.107  21.353  0.00  0.00    +0.046 A 
ATOM     17  C   UNL     1      23.823   4.272  20.287  0.00  0.00    +0.008 A 
ATOM     20  C   UNL     1      25.063   1.910  21.104  0.00  0.00    +0.159 A 
ATOM     21  C   UNL     1      25.182   4.074  20.039  0.00  0.00    +0.041 A 
ATOM     24  C   UNL     1      25.802   2.893  20.447  0.00  0.00    +0.158 A 
ENDBRANCH  11  13
ENDBRANCH   5  11
TORSDOF 3
ENDMDL
MODEL 8
REMARK VINA RESULT:      -6.7     19.194     21.177
REMARK  Name = 45784172
REMARK  3 active torsions:
REMARK  status: ('A' for Active; 'I' for Inactive)
REMARK    1  A    between atoms: N_5  and  C_11
REMARK    2  A    between atoms: C_7  and  C_12
REMARK    3  A    between atoms: C_11  and  C_13
REMARK                            x       y       z     vdW  Elec       q    Type
REMARK                         _______ _______ _______ _____ _____    ______ ____
ROOT
ATOM      5  N   UNL     1      10.881   5.309   3.243  0.00  0.00    -0.297 NA
ATOM      7  C   UNL     1      11.840   3.975   1.570  0.00  0.00    +0.090 C 
ATOM      8  C   UNL     1      12.889   4.967   2.100  0.00  0.00    +0.029 C 
ATOM      9  C   UNL     1      10.496   4.527   2.066  0.00  0.00    +0.097 C 
ATOM     10  C   UNL     1      12.086   6.032   2.837  0.00  0.00    +0.085 C 
ENDROOT
BRANCH   7  12
ATOM      1 CL   UNL     1      12.753   2.694  -5.859  0.00  0.00    -0.083 Cl
ATOM      4  O   UNL     1      10.701   3.983  -0.585  0.00  0.00    -0.439 OA
ATOM      6  N   UNL     1      12.883   3.378  -0.676  0.00  0.00    -0.213 NA
ATOM     12  C   UNL     1      11.871   3.757   0.074  0.00  0.00    +0.201 A 
ATOM     14  C   UNL     1      12.346   3.349  -1.939  0.00  0.00    +0.111 A 
ATOM     15  C   UNL     1      11.010   3.718  -1.888  0.00  0.00    +0.155 A 
ATOM     18  C   UNL     1      12.911   3.022  -3.181  0.00  0.00    +0.051 A 
ATOM     19  C   UNL     1      10.166   3.794  -2.990  0.00  0.00    +0.050 A 
ATOM     22  C   UNL     1      12.091   3.087  -4.316  0.00  0.00    +0.043 A 
ATOM     23  C   UNL     1      10.747   3.465  -4.219  0.00  0.00    +0.024 A 
ENDBRANCH   7  12
BRANCH   5  11
ATOM     11  C   UNL     1       9.821   6.204   3.684  0.00  0.00    +0.119 C 
BRANCH  11  13
ATOM      2  F   UNL     1       9.952   3.723   7.885  0.00  0.00    -0.202 F 
ATOM      3  F   UNL     1       9.009   5.894   9.252  0.00  0.00    -0.202 F 
ATOM     13  C   UNL     1       9.604   6.122   5.172  0.00  0.00    -0.030 A 
ATOM     16  C   UNL     1       9.884   4.937   5.853  0.00  0.00    +0.046 A 
ATOM     17  C   UNL     1       9.124   7.230   5.870  0.00  0.00    +0.008 A 
ATOM     20  C   UNL     1       9.683   4.860   7.231  0.00  0.00    +0.159 A 
ATOM     21  C   UNL     1       8.923   7.153   7.248  0.00  0.00    +0.041 A 
ATOM     24  C   UNL     1       9.203   5.968   7.929  0.00  0.00    +0.158 A 
ENDBRANCH  11  13
ENDBRANCH   5  11
TORSDOF 3
ENDMDL
MODEL 9
REMARK VINA RESULT:      -6.5     29.380     32.469
REMARK  Name = 45784172
REMARK  3 active torsions:
REMARK  status: ('A' for Active; 'I' for Inactive)
REMARK    1  A    between atoms: N_5  and  C_11
REMARK    2  A    between atoms: C_7  and  C_12
REMARK    3  A    between atoms: C_11  and  C_13
REMARK                            x       y       z     vdW  Elec       q    Type
REMARK                         _______ _______ _______ _____ _____    ______ ____
ROOT
ATOM      5  N   UNL     1      -9.072  -9.777  17.285  0.00  0.00    -0.297 NA
ATOM      7  C   UNL     1     -10.318  -7.801  17.077  0.00  0.00    +0.090 C 
ATOM      8  C   UNL     1     -11.082  -8.799  17.965  0.00  0.00    +0.029 C 
ATOM      9  C   UNL     1      -9.250  -8.647  16.370  0.00  0.00    +0.097 C 
ATOM     10  C   UNL     1     -10.427 -10.148  17.692  0.00  0.00    +0.085 C 
ENDROOT
BRANCH   7  12
ATOM      1 CL   UNL     1     -14.012  -3.461  12.059  0.00  0.00    -0.083 Cl
ATOM      4  O   UNL     1     -12.497  -7.370  16.073  0.00  0.00    -0.439 OA
ATOM      6  N   UNL     1     -10.829  -6.038  15.312  0.00  0.00    -0.213 NA
ATOM     12  C   UNL     1     -11.181  -7.018  16.114  0.00  0.00    +0.201 A 
ATOM     14  C   UNL     1     -12.004  -5.707  14.682  0.00  0.00    +0.111 A 
ATOM     15  C   UNL     1     -13.027  -6.521  15.145  0.00  0.00    +0.155 A 
ATOM     18  C   UNL     1     -12.296  -4.739  13.710  0.00  0.00    +0.051 A 
ATOM     19  C   UNL     1     -14.347  -6.455  14.716  0.00  0.00    +0.050 A 
ATOM     22  C   UNL     1     -13.617  -4.641  13.253  0.00  0.00    +0.043 A 
ATOM     23  C   UNL     1     -14.620  -5.484  13.747  0.00  0.00    +0.024 A 
ENDBRANCH   7  12
BRANCH   5  11
ATOM     11  C   UNL     1      -8.357 -10.884  16.666  0.00  0.00    +0.119 C 
BRANCH  11  13
ATOM      2  F   UNL     1      -3.538 -10.119  16.765  0.00  0.00    -0.202 F 
ATOM      3  F   UNL     1      -3.290 -11.668  19.004  0.00  0.00    -0.202 F 
ATOM     13  C   UNL     1      -7.004 -11.094  17.291  0.00  0.00    -0.030 A 
ATOM     16  C   UNL     1      -5.876 -10.497  16.727  0.00  0.00    +0.046 A 
ATOM     17  C   UNL     1      -6.877 -11.883  18.434  0.00  0.00    +0.008 A 
ATOM     20  C   UNL     1      -4.621 -10.691  17.306  0.00  0.00    +0.159 A 
ATOM     21  C   UNL     1      -5.622 -12.077  19.012  0.00  0.00    +0.041 A 
ATOM     24  C   UNL     1      -4.495 -11.481  18.449  0.00  0.00    +0.158 A 
ENDBRANCH  11  13
ENDBRANCH   5  11
TORSDOF 3
ENDMDL
MODEL 10
REMARK VINA RESULT:      -6.5     15.203     17.496
REMARK  Name = 45784172
REMARK  3 active torsions:
REMARK  status: ('A' for Active; 'I' for Inactive)
REMARK    1  A    between atoms: N_5  and  C_11
REMARK    2  A    between atoms: C_7  and  C_12
REMARK    3  A    between atoms: C_11  and  C_13
REMARK                            x       y       z     vdW  Elec       q    Type
REMARK                         _______ _______ _______ _____ _____    ______ ____
ROOT
ATOM      5  N   UNL     1      16.310   9.279   5.263  0.00  0.00    -0.297 NA
ATOM      7  C   UNL     1      14.336   8.053   4.949  0.00  0.00    +0.090 C 
ATOM      8  C   UNL     1      14.077   9.536   4.630  0.00  0.00    +0.029 C 
ATOM      9  C   UNL     1      15.663   8.047   5.720  0.00  0.00    +0.097 C 
ATOM     10  C   UNL     1      15.247  10.283   5.258  0.00  0.00    +0.085 C 
ENDROOT
BRANCH   7  12
ATOM      1 CL   UNL     1       9.102   4.749   9.349  0.00  0.00    -0.083 Cl
ATOM      4  O   UNL     1      12.232   6.823   4.922  0.00  0.00    -0.439 OA
ATOM      6  N   UNL     1      13.073   7.205   6.992  0.00  0.00    -0.213 NA
ATOM     12  C   UNL     1      13.218   7.360   5.694  0.00  0.00    +0.201 A 
ATOM     14  C   UNL     1      11.894   6.508   7.097  0.00  0.00    +0.111 A 
ATOM     15  C   UNL     1      11.376   6.272   5.833  0.00  0.00    +0.155 A 
ATOM     18  C   UNL     1      11.192   6.036   8.215  0.00  0.00    +0.051 A 
ATOM     19  C   UNL     1      10.191   5.593   5.576  0.00  0.00    +0.050 A 
ATOM     22  C   UNL     1       9.992   5.344   7.997  0.00  0.00    +0.043 A 
ATOM     23  C   UNL     1       9.504   5.129   6.703  0.00  0.00    +0.024 A 
ENDBRANCH   7  12
BRANCH   5  11
ATOM     11  C   UNL     1      17.431   9.663   6.109  0.00  0.00    +0.119 C 
BRANCH  11  13
ATOM      2  F   UNL     1      20.265   7.223   2.973  0.00  0.00    -0.202 F 
ATOM      3  F   UNL     1      22.049   6.645   4.962  0.00  0.00    -0.202 F 
ATOM     13  C   UNL     1      18.665   8.856   5.803  0.00  0.00    -0.030 A 
ATOM     16  C   UNL     1      18.897   8.404   4.504  0.00  0.00    +0.046 A 
ATOM     17  C   UNL     1      19.576   8.562   6.817  0.00  0.00    +0.008 A 
ATOM     20  C   UNL     1      20.041   7.657   4.220  0.00  0.00    +0.159 A 
ATOM     21  C   UNL     1      20.719   7.815   6.533  0.00  0.00    +0.041 A 
ATOM     24  C   UNL     1      20.952   7.363   5.234  0.00  0.00    +0.158 A 
ENDBRANCH  11  13
ENDBRANCH   5  11
TORSDOF 3
ENDMDL
