MODEL 1
REMARK VINA RESULT:      -6.3      0.000      0.000
REMARK  Name = 45783791
REMARK  6 active torsions:
REMARK  status: ('A' for Active; 'I' for Inactive)
REMARK    1  A    between atoms: N_2  and  C_10
REMARK    2  A    between atoms: N_6  and  C_21
REMARK    3  A    between atoms: N_6  and  C_22
REMARK    4  A    between atoms: C_7  and  C_10
REMARK    5  A    between atoms: C_11  and  C_15
REMARK    6  A    between atoms: C_16  and  C_17
REMARK                            x       y       z     vdW  Elec       q    Type
REMARK                         _______ _______ _______ _____ _____    ______ ____
ROOT
ATOM      1  O   UNL     1      11.608   7.309  21.893  0.00  0.00    -0.336 OA
ATOM      3  N   UNL     1      12.595   9.231  21.303  0.00  0.00    -0.190 NA
ATOM      4  N   UNL     1      10.937   8.322  22.589  0.00  0.00    -0.056 NA
ATOM     15  C   UNL     1      12.569   7.930  21.160  0.00  0.00    +0.245 A 
ATOM     16  C   UNL     1      11.577   9.425  22.188  0.00  0.00    +0.204 A 
ENDROOT
BRANCH  16  17
ATOM      5  N   UNL     1      10.438  12.143  24.456  0.00  0.00    -0.240 NA
ATOM     17  C   UNL     1      11.222  10.735  22.655  0.00  0.00    +0.041 A 
ATOM     18  C   UNL     1      11.307  11.841  21.817  0.00  0.00    +0.016 A 
ATOM     19  C   UNL     1      10.786  10.937  23.954  0.00  0.00    +0.124 A 
ATOM     20  C   UNL     1      10.958  13.099  22.297  0.00  0.00    +0.044 A 
ATOM     21  C   UNL     1      10.533  13.195  23.612  0.00  0.00    +0.118 A 
BRANCH  21   6
ATOM      6  N   UNL     1      10.181  14.483  24.086  0.00  0.00    -0.332 N 
ATOM     22  C   UNL     1       9.148  15.267  23.491  0.00  0.00    +0.127 C 
ATOM     23  H   UNL     1      10.833  14.937  24.716  0.00  0.00    +0.147 HD
ENDBRANCH  21   6
ENDBRANCH  16  17
BRANCH  15  11
ATOM      2  N   UNL     1      13.784   7.655  19.006  0.00  0.00    -0.291 NA
ATOM     11  C   UNL     1      13.446   7.039  20.305  0.00  0.00    +0.146 C 
ATOM     12  C   UNL     1      15.089   7.116  18.621  0.00  0.00    +0.085 C 
ATOM     13  C   UNL     1      14.805   6.737  20.961  0.00  0.00    +0.030 C 
ATOM     14  C   UNL     1      15.846   7.159  19.934  0.00  0.00    +0.017 C 
BRANCH   2  10
ATOM     10  C   UNL     1      12.774   7.427  17.982  0.00  0.00    +0.088 C 
BRANCH  10   7
ATOM      7  C   UNL     1      12.164   8.713  17.525  0.00  0.00    +0.003 C 
ATOM      8  C   UNL     1      12.933   9.990  17.695  0.00  0.00    +0.005 C 
ATOM      9  C   UNL     1      12.734   9.410  16.325  0.00  0.00    +0.005 C 
ENDBRANCH  10   7
ENDBRANCH   2  10
ENDBRANCH  15  11
TORSDOF 5
ENDMDL
MODEL 2
REMARK VINA RESULT:      -6.1      3.843      8.306
REMARK  Name = 45783791
REMARK  6 active torsions:
REMARK  status: ('A' for Active; 'I' for Inactive)
REMARK    1  A    between atoms: N_2  and  C_10
REMARK    2  A    between atoms: N_6  and  C_21
REMARK    3  A    between atoms: N_6  and  C_22
REMARK    4  A    between atoms: C_7  and  C_10
REMARK    5  A    between atoms: C_11  and  C_15
REMARK    6  A    between atoms: C_16  and  C_17
REMARK                            x       y       z     vdW  Elec       q    Type
REMARK                         _______ _______ _______ _____ _____    ______ ____
ROOT
ATOM      1  O   UNL     1      15.389   8.491  20.039  0.00  0.00    -0.336 OA
ATOM      3  N   UNL     1      16.137   6.491  19.363  0.00  0.00    -0.190 NA
ATOM      4  N   UNL     1      16.658   8.335  20.613  0.00  0.00    -0.056 NA
ATOM     15  C   UNL     1      15.160   7.361  19.321  0.00  0.00    +0.245 A 
ATOM     16  C   UNL     1      17.034   7.132  20.167  0.00  0.00    +0.204 A 
ENDROOT
BRANCH  16  17
ATOM      5  N   UNL     1      20.265   6.547  21.910  0.00  0.00    -0.240 NA
ATOM     17  C   UNL     1      18.297   6.543  20.508  0.00  0.00    +0.041 A 
ATOM     18  C   UNL     1      18.783   5.441  19.814  0.00  0.00    +0.016 A 
ATOM     19  C   UNL     1      19.069   7.054  21.539  0.00  0.00    +0.124 A 
ATOM     20  C   UNL     1      20.011   4.890  20.168  0.00  0.00    +0.044 A 
ATOM     21  C   UNL     1      20.706   5.476  21.213  0.00  0.00    +0.118 A 
BRANCH  21   6
ATOM      6  N   UNL     1      21.955   4.904  21.561  0.00  0.00    -0.332 N 
ATOM     22  C   UNL     1      22.119   4.037  22.683  0.00  0.00    +0.127 C 
ATOM     23  H   UNL     1      22.783   5.303  21.132  0.00  0.00    +0.147 HD
ENDBRANCH  21   6
ENDBRANCH  16  17
BRANCH  15  11
ATOM      2  N   UNL     1      12.771   8.057  19.265  0.00  0.00    -0.291 NA
ATOM     11  C   UNL     1      13.835   7.282  18.593  0.00  0.00    +0.146 C 
ATOM     12  C   UNL     1      11.848   8.489  18.215  0.00  0.00    +0.085 C 
ATOM     13  C   UNL     1      13.902   7.865  17.170  0.00  0.00    +0.030 C 
ATOM     14  C   UNL     1      12.802   8.915  17.116  0.00  0.00    +0.017 C 
BRANCH   2  10
ATOM     10  C   UNL     1      12.093   7.310  20.316  0.00  0.00    +0.088 C 
BRANCH  10   7
ATOM      7  C   UNL     1      10.910   8.059  20.838  0.00  0.00    +0.003 C 
ATOM      8  C   UNL     1      10.492   7.864  22.266  0.00  0.00    +0.005 C 
ATOM      9  C   UNL     1      11.120   9.158  21.838  0.00  0.00    +0.005 C 
ENDBRANCH  10   7
ENDBRANCH   2  10
ENDBRANCH  15  11
TORSDOF 5
ENDMDL
MODEL 3
REMARK VINA RESULT:      -6.0      3.576      7.638
REMARK  Name = 45783791
REMARK  6 active torsions:
REMARK  status: ('A' for Active; 'I' for Inactive)
REMARK    1  A    between atoms: N_2  and  C_10
REMARK    2  A    between atoms: N_6  and  C_21
REMARK    3  A    between atoms: N_6  and  C_22
REMARK    4  A    between atoms: C_7  and  C_10
REMARK    5  A    between atoms: C_11  and  C_15
REMARK    6  A    between atoms: C_16  and  C_17
REMARK                            x       y       z     vdW  Elec       q    Type
REMARK                         _______ _______ _______ _____ _____    ______ ____
ROOT
ATOM      1  O   UNL     1      15.241   9.849  21.649  0.00  0.00    -0.336 OA
ATOM      3  N   UNL     1      15.132   7.920  20.517  0.00  0.00    -0.190 NA
ATOM      4  N   UNL     1      16.536   9.315  21.664  0.00  0.00    -0.056 NA
ATOM     15  C   UNL     1      14.478   8.966  20.954  0.00  0.00    +0.245 A 
ATOM     16  C   UNL     1      16.390   8.177  20.976  0.00  0.00    +0.204 A 
ENDROOT
BRANCH  16  17
ATOM      5  N   UNL     1      19.703   6.523  21.312  0.00  0.00    -0.240 NA
ATOM     17  C   UNL     1      17.482   7.278  20.733  0.00  0.00    +0.041 A 
ATOM     18  C   UNL     1      17.407   6.318  19.731  0.00  0.00    +0.016 A 
ATOM     19  C   UNL     1      18.641   7.340  21.489  0.00  0.00    +0.124 A 
ATOM     20  C   UNL     1      18.481   5.459  19.518  0.00  0.00    +0.044 A 
ATOM     21  C   UNL     1      19.595   5.602  20.328  0.00  0.00    +0.118 A 
BRANCH  21   6
ATOM      6  N   UNL     1      20.680   4.719  20.099  0.00  0.00    -0.332 N 
ATOM     22  C   UNL     1      22.021   5.034  20.473  0.00  0.00    +0.127 C 
ATOM     23  H   UNL     1      20.523   3.951  19.456  0.00  0.00    +0.147 HD
ENDBRANCH  21   6
ENDBRANCH  16  17
BRANCH  15  11
ATOM      2  N   UNL     1      12.414   8.715  19.587  0.00  0.00    -0.291 NA
ATOM     11  C   UNL     1      13.015   9.320  20.793  0.00  0.00    +0.146 C 
ATOM     12  C   UNL     1      10.997   8.511  19.889  0.00  0.00    +0.085 C 
ATOM     13  C   UNL     1      12.148   8.811  21.959  0.00  0.00    +0.030 C 
ATOM     14  C   UNL     1      11.052   7.979  21.307  0.00  0.00    +0.017 C 
BRANCH   2  10
ATOM     10  C   UNL     1      12.608   9.516  18.385  0.00  0.00    +0.088 C 
BRANCH  10   7
ATOM      7  C   UNL     1      12.856   8.652  17.191  0.00  0.00    +0.003 C 
ATOM      8  C   UNL     1      13.997   8.979  16.274  0.00  0.00    +0.005 C 
ATOM      9  C   UNL     1      14.070   7.771  17.161  0.00  0.00    +0.005 C 
ENDBRANCH  10   7
ENDBRANCH   2  10
ENDBRANCH  15  11
TORSDOF 5
ENDMDL
MODEL 4
REMARK VINA RESULT:      -6.0     14.694     19.384
REMARK  Name = 45783791
REMARK  6 active torsions:
REMARK  status: ('A' for Active; 'I' for Inactive)
REMARK    1  A    between atoms: N_2  and  C_10
REMARK    2  A    between atoms: N_6  and  C_21
REMARK    3  A    between atoms: N_6  and  C_22
REMARK    4  A    between atoms: C_7  and  C_10
REMARK    5  A    between atoms: C_11  and  C_15
REMARK    6  A    between atoms: C_16  and  C_17
REMARK                            x       y       z     vdW  Elec       q    Type
REMARK                         _______ _______ _______ _____ _____    ______ ____
ROOT
ATOM      1  O   UNL     1      11.476   6.551   4.810  0.00  0.00    -0.336 OA
ATOM      3  N   UNL     1      10.095   5.226   3.646  0.00  0.00    -0.190 NA
ATOM      4  N   UNL     1      12.206   6.107   3.699  0.00  0.00    -0.056 NA
ATOM     15  C   UNL     1      10.246   5.986   4.701  0.00  0.00    +0.245 A 
ATOM     16  C   UNL     1      11.323   5.331   3.062  0.00  0.00    +0.204 A 
ENDROOT
BRANCH  16  17
ATOM      5  N   UNL     1      10.956   3.945  -0.369  0.00  0.00    -0.240 NA
ATOM     17  C   UNL     1      11.639   4.647   1.841  0.00  0.00    +0.041 A 
ATOM     18  C   UNL     1      12.876   4.037   1.661  0.00  0.00    +0.016 A 
ATOM     19  C   UNL     1      10.722   4.573   0.805  0.00  0.00    +0.124 A 
ATOM     20  C   UNL     1      13.154   3.382   0.466  0.00  0.00    +0.044 A 
ATOM     21  C   UNL     1      12.169   3.364  -0.508  0.00  0.00    +0.118 A 
BRANCH  21   6
ATOM      6  N   UNL     1      12.468   2.693  -1.719  0.00  0.00    -0.332 N 
ATOM     22  C   UNL     1      11.465   2.075  -2.526  0.00  0.00    +0.127 C 
ATOM     23  H   UNL     1      13.440   2.459  -1.891  0.00  0.00    +0.147 HD
ENDBRANCH  21   6
ENDBRANCH  16  17
BRANCH  15  11
ATOM      2  N   UNL     1       9.884   6.991   6.949  0.00  0.00    -0.291 NA
ATOM     11  C   UNL     1       9.253   6.316   5.796  0.00  0.00    +0.146 C 
ATOM     12  C   UNL     1       8.854   7.844   7.543  0.00  0.00    +0.085 C 
ATOM     13  C   UNL     1       8.153   7.286   5.330  0.00  0.00    +0.030 C 
ATOM     14  C   UNL     1       8.200   8.445   6.315  0.00  0.00    +0.017 C 
BRANCH   2  10
ATOM     10  C   UNL     1      10.451   6.063   7.918  0.00  0.00    +0.088 C 
BRANCH  10   7
ATOM      7  C   UNL     1       9.380   5.355   8.684  0.00  0.00    +0.003 C 
ATOM      8  C   UNL     1       9.460   3.867   8.850  0.00  0.00    +0.005 C 
ATOM      9  C   UNL     1       9.703   4.767  10.026  0.00  0.00    +0.005 C 
ENDBRANCH  10   7
ENDBRANCH   2  10
ENDBRANCH  15  11
TORSDOF 5
ENDMDL
MODEL 5
REMARK VINA RESULT:      -6.0      5.031      8.191
REMARK  Name = 45783791
REMARK  6 active torsions:
REMARK  status: ('A' for Active; 'I' for Inactive)
REMARK    1  A    between atoms: N_2  and  C_10
REMARK    2  A    between atoms: N_6  and  C_21
REMARK    3  A    between atoms: N_6  and  C_22
REMARK    4  A    between atoms: C_7  and  C_10
REMARK    5  A    between atoms: C_11  and  C_15
REMARK    6  A    between atoms: C_16  and  C_17
REMARK                            x       y       z     vdW  Elec       q    Type
REMARK                         _______ _______ _______ _____ _____    ______ ____
ROOT
ATOM      1  O   UNL     1      18.726   5.490  19.323  0.00  0.00    -0.336 OA
ATOM      3  N   UNL     1      17.666   6.940  20.661  0.00  0.00    -0.190 NA
ATOM      4  N   UNL     1      17.400   5.536  18.875  0.00  0.00    -0.056 NA
ATOM     15  C   UNL     1      18.797   6.345  20.376  0.00  0.00    +0.245 A 
ATOM     16  C   UNL     1      16.839   6.413  19.713  0.00  0.00    +0.204 A 
ENDROOT
BRANCH  16  17
ATOM      5  N   UNL     1      13.304   6.987  20.715  0.00  0.00    -0.240 NA
ATOM     17  C   UNL     1      15.455   6.782  19.631  0.00  0.00    +0.041 A 
ATOM     18  C   UNL     1      14.915   7.277  18.449  0.00  0.00    +0.016 A 
ATOM     19  C   UNL     1      14.615   6.657  20.726  0.00  0.00    +0.124 A 
ATOM     20  C   UNL     1      13.570   7.627  18.400  0.00  0.00    +0.044 A 
ATOM     21  C   UNL     1      12.814   7.464  19.549  0.00  0.00    +0.118 A 
BRANCH  21   6
ATOM      6  N   UNL     1      11.446   7.825  19.482  0.00  0.00    -0.332 N 
ATOM     22  C   UNL     1      10.733   8.353  20.600  0.00  0.00    +0.127 C 
ATOM     23  H   UNL     1      10.917   7.488  18.685  0.00  0.00    +0.147 HD
ENDBRANCH  21   6
ENDBRANCH  16  17
BRANCH  15  11
ATOM      2  N   UNL     1      21.189   5.658  20.394  0.00  0.00    -0.291 NA
ATOM     11  C   UNL     1      20.148   6.477  21.048  0.00  0.00    +0.146 C 
ATOM     12  C   UNL     1      22.458   6.352  20.613  0.00  0.00    +0.085 C 
ATOM     13  C   UNL     1      20.696   7.915  21.003  0.00  0.00    +0.030 C 
ATOM     14  C   UNL     1      22.073   7.796  20.364  0.00  0.00    +0.017 C 
BRANCH   2  10
ATOM     10  C   UNL     1      21.226   4.284  20.877  0.00  0.00    +0.088 C 
BRANCH  10   7
ATOM      7  C   UNL     1      22.580   3.929  21.402  0.00  0.00    +0.003 C 
ATOM      8  C   UNL     1      22.694   2.942  22.526  0.00  0.00    +0.005 C 
ATOM      9  C   UNL     1      23.132   2.558  21.143  0.00  0.00    +0.005 C 
ENDBRANCH  10   7
ENDBRANCH   2  10
ENDBRANCH  15  11
TORSDOF 5
ENDMDL
MODEL 6
REMARK VINA RESULT:      -5.8      4.645      7.427
REMARK  Name = 45783791
REMARK  6 active torsions:
REMARK  status: ('A' for Active; 'I' for Inactive)
REMARK    1  A    between atoms: N_2  and  C_10
REMARK    2  A    between atoms: N_6  and  C_21
REMARK    3  A    between atoms: N_6  and  C_22
REMARK    4  A    between atoms: C_7  and  C_10
REMARK    5  A    between atoms: C_11  and  C_15
REMARK    6  A    between atoms: C_16  and  C_17
REMARK                            x       y       z     vdW  Elec       q    Type
REMARK                         _______ _______ _______ _____ _____    ______ ____
ROOT
ATOM      1  O   UNL     1      13.120  10.155  14.724  0.00  0.00    -0.336 OA
ATOM      3  N   UNL     1      14.041  10.464  16.742  0.00  0.00    -0.190 NA
ATOM      4  N   UNL     1      12.664   9.101  15.526  0.00  0.00    -0.056 NA
ATOM     15  C   UNL     1      13.924  10.910  15.517  0.00  0.00    +0.245 A 
ATOM     16  C   UNL     1      13.250   9.354  16.701  0.00  0.00    +0.204 A 
ENDROOT
BRANCH  16  17
ATOM      5  N   UNL     1      11.586   7.618  19.537  0.00  0.00    -0.240 NA
ATOM     17  C   UNL     1      13.067   8.515  17.850  0.00  0.00    +0.041 A 
ATOM     18  C   UNL     1      14.130   7.802  18.393  0.00  0.00    +0.016 A 
ATOM     19  C   UNL     1      11.826   8.390  18.453  0.00  0.00    +0.124 A 
ATOM     20  C   UNL     1      13.922   6.996  19.508  0.00  0.00    +0.044 A 
ATOM     21  C   UNL     1      12.643   6.940  20.037  0.00  0.00    +0.118 A 
BRANCH  21   6
ATOM      6  N   UNL     1      12.447   6.114  21.172  0.00  0.00    -0.332 N 
ATOM     22  C   UNL     1      11.154   5.696  21.607  0.00  0.00    +0.127 C 
ATOM     23  H   UNL     1      13.230   6.011  21.809  0.00  0.00    +0.147 HD
ENDBRANCH  21   6
ENDBRANCH  16  17
BRANCH  15  11
ATOM      2  N   UNL     1      15.832  11.822  14.204  0.00  0.00    -0.291 NA
ATOM     11  C   UNL     1      14.551  12.129  14.874  0.00  0.00    +0.146 C 
ATOM     12  C   UNL     1      15.961  12.778  13.103  0.00  0.00    +0.085 C 
ATOM     13  C   UNL     1      13.669  12.740  13.770  0.00  0.00    +0.030 C 
ATOM     14  C   UNL     1      14.556  12.793  12.535  0.00  0.00    +0.017 C 
BRANCH   2  10
ATOM     10  C   UNL     1      16.976  11.866  15.104  0.00  0.00    +0.088 C 
BRANCH  10   7
ATOM      7  C   UNL     1      18.233  12.202  14.369  0.00  0.00    +0.003 C 
ATOM      8  C   UNL     1      19.430  12.674  15.141  0.00  0.00    +0.005 C 
ATOM      9  C   UNL     1      19.430  11.310  14.516  0.00  0.00    +0.005 C 
ENDBRANCH  10   7
ENDBRANCH   2  10
ENDBRANCH  15  11
TORSDOF 5
ENDMDL
MODEL 7
REMARK VINA RESULT:      -5.6     27.639     29.280
REMARK  Name = 45783791
REMARK  6 active torsions:
REMARK  status: ('A' for Active; 'I' for Inactive)
REMARK    1  A    between atoms: N_2  and  C_10
REMARK    2  A    between atoms: N_6  and  C_21
REMARK    3  A    between atoms: N_6  and  C_22
REMARK    4  A    between atoms: C_7  and  C_10
REMARK    5  A    between atoms: C_11  and  C_15
REMARK    6  A    between atoms: C_16  and  C_17
REMARK                            x       y       z     vdW  Elec       q    Type
REMARK                         _______ _______ _______ _____ _____    ______ ____
ROOT
ATOM      1  O   UNL     1     -16.854   2.803  22.926  0.00  0.00    -0.336 OA
ATOM      3  N   UNL     1     -16.427   4.143  24.669  0.00  0.00    -0.190 NA
ATOM      4  N   UNL     1     -16.767   1.968  24.048  0.00  0.00    -0.056 NA
ATOM     15  C   UNL     1     -16.641   4.066  23.380  0.00  0.00    +0.245 A 
ATOM     16  C   UNL     1     -16.514   2.833  25.036  0.00  0.00    +0.204 A 
ENDROOT
BRANCH  16  17
ATOM      5  N   UNL     1     -16.422   0.649  28.044  0.00  0.00    -0.240 NA
ATOM     17  C   UNL     1     -16.341   2.418  26.398  0.00  0.00    +0.041 A 
ATOM     18  C   UNL     1     -15.942   3.321  27.377  0.00  0.00    +0.016 A 
ATOM     19  C   UNL     1     -16.567   1.105  26.780  0.00  0.00    +0.124 A 
ATOM     20  C   UNL     1     -15.783   2.890  28.690  0.00  0.00    +0.044 A 
ATOM     21  C   UNL     1     -16.034   1.556  28.968  0.00  0.00    +0.118 A 
BRANCH  21   6
ATOM      6  N   UNL     1     -15.866   1.132  30.310  0.00  0.00    -0.332 N 
ATOM     22  C   UNL     1     -15.454  -0.190  30.654  0.00  0.00    +0.127 C 
ATOM     23  H   UNL     1     -16.266   1.720  31.034  0.00  0.00    +0.147 HD
ENDBRANCH  21   6
ENDBRANCH  16  17
BRANCH  15  11
ATOM      2  N   UNL     1     -15.503   5.163  21.458  0.00  0.00    -0.291 NA
ATOM     11  C   UNL     1     -16.685   5.170  22.345  0.00  0.00    +0.146 C 
ATOM     12  C   UNL     1     -15.946   5.713  20.176  0.00  0.00    +0.085 C 
ATOM     13  C   UNL     1     -17.888   5.047  21.394  0.00  0.00    +0.030 C 
ATOM     14  C   UNL     1     -17.291   5.039  19.994  0.00  0.00    +0.017 C 
BRANCH   2  10
ATOM     10  C   UNL     1     -14.369   5.895  22.006  0.00  0.00    +0.088 C 
BRANCH  10   7
ATOM      7  C   UNL     1     -13.638   6.643  20.937  0.00  0.00    +0.003 C 
ATOM      8  C   UNL     1     -12.898   7.897  21.296  0.00  0.00    +0.005 C 
ATOM      9  C   UNL     1     -12.138   6.652  20.943  0.00  0.00    +0.005 C 
ENDBRANCH  10   7
ENDBRANCH   2  10
ENDBRANCH  15  11
TORSDOF 5
ENDMDL
MODEL 8
REMARK VINA RESULT:      -5.6     26.444     27.965
REMARK  Name = 45783791
REMARK  6 active torsions:
REMARK  status: ('A' for Active; 'I' for Inactive)
REMARK    1  A    between atoms: N_2  and  C_10
REMARK    2  A    between atoms: N_6  and  C_21
REMARK    3  A    between atoms: N_6  and  C_22
REMARK    4  A    between atoms: C_7  and  C_10
REMARK    5  A    between atoms: C_11  and  C_15
REMARK    6  A    between atoms: C_16  and  C_17
REMARK                            x       y       z     vdW  Elec       q    Type
REMARK                         _______ _______ _______ _____ _____    ______ ____
ROOT
ATOM      1  O   UNL     1      -5.445  -9.540  15.719  0.00  0.00    -0.336 OA
ATOM      3  N   UNL     1      -5.827 -11.245  17.121  0.00  0.00    -0.190 NA
ATOM      4  N   UNL     1      -6.658  -9.254  16.359  0.00  0.00    -0.056 NA
ATOM     15  C   UNL     1      -5.025 -10.729  16.225  0.00  0.00    +0.245 A 
ATOM     16  C   UNL     1      -6.815 -10.306  17.170  0.00  0.00    +0.204 A 
ENDROOT
BRANCH  16  17
ATOM      5  N   UNL     1      -8.897 -11.373  20.060  0.00  0.00    -0.240 NA
ATOM     17  C   UNL     1      -7.947 -10.447  18.040  0.00  0.00    +0.041 A 
ATOM     18  C   UNL     1      -9.158  -9.830  17.744  0.00  0.00    +0.016 A 
ATOM     19  C   UNL     1      -7.869 -11.201  19.199  0.00  0.00    +0.124 A 
ATOM     20  C   UNL     1     -10.239  -9.984  18.606  0.00  0.00    +0.044 A 
ATOM     21  C   UNL     1     -10.058 -10.759  19.740  0.00  0.00    +0.118 A 
BRANCH  21   6
ATOM      6  N   UNL     1     -11.168 -10.905  20.608  0.00  0.00    -0.332 N 
ATOM     22  C   UNL     1     -12.363 -10.137  20.467  0.00  0.00    +0.127 C 
ATOM     23  H   UNL     1     -11.013 -11.406  21.476  0.00  0.00    +0.147 HD
ENDBRANCH  21   6
ENDBRANCH  16  17
BRANCH  15  11
ATOM      2  N   UNL     1      -3.316 -10.620  14.418  0.00  0.00    -0.291 NA
ATOM     11  C   UNL     1      -3.715 -11.265  15.686  0.00  0.00    +0.146 C 
ATOM     12  C   UNL     1      -1.853 -10.652  14.381  0.00  0.00    +0.085 C 
ATOM     13  C   UNL     1      -2.533 -11.016  16.640  0.00  0.00    +0.030 C 
ATOM     14  C   UNL     1      -1.495 -10.280  15.805  0.00  0.00    +0.017 C 
BRANCH   2  10
ATOM     10  C   UNL     1      -3.908 -11.245  13.244  0.00  0.00    +0.088 C 
BRANCH  10   7
ATOM      7  C   UNL     1      -2.974 -11.205  12.078  0.00  0.00    +0.003 C 
ATOM      8  C   UNL     1      -3.450 -11.692  10.741  0.00  0.00    +0.005 C 
ATOM      9  C   UNL     1      -3.225 -10.226  10.969  0.00  0.00    +0.005 C 
ENDBRANCH  10   7
ENDBRANCH   2  10
ENDBRANCH  15  11
TORSDOF 5
ENDMDL
MODEL 9
REMARK VINA RESULT:      -5.5     25.940     27.482
REMARK  Name = 45783791
REMARK  6 active torsions:
REMARK  status: ('A' for Active; 'I' for Inactive)
REMARK    1  A    between atoms: N_2  and  C_10
REMARK    2  A    between atoms: N_6  and  C_21
REMARK    3  A    between atoms: N_6  and  C_22
REMARK    4  A    between atoms: C_7  and  C_10
REMARK    5  A    between atoms: C_11  and  C_15
REMARK    6  A    between atoms: C_16  and  C_17
REMARK                            x       y       z     vdW  Elec       q    Type
REMARK                         _______ _______ _______ _____ _____    ______ ____
ROOT
ATOM      1  O   UNL     1      -2.480 -10.678  14.554  0.00  0.00    -0.336 OA
ATOM      3  N   UNL     1      -4.702 -10.592  14.283  0.00  0.00    -0.190 NA
ATOM      4  N   UNL     1      -3.029 -10.638  15.843  0.00  0.00    -0.056 NA
ATOM     15  C   UNL     1      -3.533 -10.647  13.696  0.00  0.00    +0.245 A 
ATOM     16  C   UNL     1      -4.343 -10.588  15.599  0.00  0.00    +0.204 A 
ENDROOT
BRANCH  16  17
ATOM      5  N   UNL     1      -7.621 -10.203  17.311  0.00  0.00    -0.240 NA
ATOM     17  C   UNL     1      -5.320 -10.533  16.648  0.00  0.00    +0.041 A 
ATOM     18  C   UNL     1      -4.959 -10.744  17.974  0.00  0.00    +0.016 A 
ATOM     19  C   UNL     1      -6.652 -10.269  16.371  0.00  0.00    +0.124 A 
ATOM     20  C   UNL     1      -5.929 -10.685  18.969  0.00  0.00    +0.044 A 
ATOM     21  C   UNL     1      -7.233 -10.413  18.589  0.00  0.00    +0.118 A 
BRANCH  21   6
ATOM      6  N   UNL     1      -8.209 -10.357  19.615  0.00  0.00    -0.332 N 
ATOM     22  C   UNL     1      -9.366 -11.192  19.624  0.00  0.00    +0.127 C 
ATOM     23  H   UNL     1      -8.188  -9.550  20.229  0.00  0.00    +0.147 HD
ENDBRANCH  21   6
ENDBRANCH  16  17
BRANCH  15  11
ATOM      2  N   UNL     1      -3.946  -9.668  11.446  0.00  0.00    -0.291 NA
ATOM     11  C   UNL     1      -3.200 -10.682  12.219  0.00  0.00    +0.146 C 
ATOM     12  C   UNL     1      -3.100  -9.314  10.305  0.00  0.00    +0.085 C 
ATOM     13  C   UNL     1      -1.718 -10.377  11.936  0.00  0.00    +0.030 C 
ATOM     14  C   UNL     1      -1.731  -9.219  10.948  0.00  0.00    +0.017 C 
BRANCH   2  10
ATOM     10  C   UNL     1      -5.266 -10.121  11.029  0.00  0.00    +0.088 C 
BRANCH  10   7
ATOM      7  C   UNL     1      -6.315  -9.104  11.346  0.00  0.00    +0.003 C 
ATOM      8  C   UNL     1      -7.684  -9.253  10.751  0.00  0.00    +0.005 C 
ATOM      9  C   UNL     1      -7.473  -9.491  12.218  0.00  0.00    +0.005 C 
ENDBRANCH  10   7
ENDBRANCH   2  10
ENDBRANCH  15  11
TORSDOF 5
ENDMDL
MODEL 10
REMARK VINA RESULT:      -5.5     25.045     26.687
REMARK  Name = 45783791
REMARK  6 active torsions:
REMARK  status: ('A' for Active; 'I' for Inactive)
REMARK    1  A    between atoms: N_2  and  C_10
REMARK    2  A    between atoms: N_6  and  C_21
REMARK    3  A    between atoms: N_6  and  C_22
REMARK    4  A    between atoms: C_7  and  C_10
REMARK    5  A    between atoms: C_11  and  C_15
REMARK    6  A    between atoms: C_16  and  C_17
REMARK                            x       y       z     vdW  Elec       q    Type
REMARK                         _______ _______ _______ _____ _____    ______ ____
ROOT
ATOM      1  O   UNL     1     -13.108   5.248  22.194  0.00  0.00    -0.336 OA
ATOM      3  N   UNL     1     -13.877   6.994  21.019  0.00  0.00    -0.190 NA
ATOM      4  N   UNL     1     -12.011   5.754  21.483  0.00  0.00    -0.056 NA
ATOM     15  C   UNL     1     -14.164   6.036  21.863  0.00  0.00    +0.245 A 
ATOM     16  C   UNL     1     -12.545   6.782  20.815  0.00  0.00    +0.204 A 
ENDROOT
BRANCH  16  17
ATOM      5  N   UNL     1     -10.760   7.943  17.767  0.00  0.00    -0.240 NA
ATOM     17  C   UNL     1     -11.774   7.614  19.936  0.00  0.00    +0.041 A 
ATOM     18  C   UNL     1     -11.301   8.852  20.355  0.00  0.00    +0.016 A 
ATOM     19  C   UNL     1     -11.479   7.208  18.644  0.00  0.00    +0.124 A 
ATOM     20  C   UNL     1     -10.557   9.637  19.480  0.00  0.00    +0.044 A 
ATOM     21  C   UNL     1     -10.316   9.141  18.209  0.00  0.00    +0.118 A 
BRANCH  21   6
ATOM      6  N   UNL     1      -9.557   9.953  17.330  0.00  0.00    -0.332 N 
ATOM     22  C   UNL     1     -10.147  10.686  16.257  0.00  0.00    +0.127 C 
ATOM     23  H   UNL     1      -8.551   9.825  17.335  0.00  0.00    +0.147 HD
ENDBRANCH  21   6
ENDBRANCH  16  17
BRANCH  15  11
ATOM      2  N   UNL     1     -16.338   4.843  21.647  0.00  0.00    -0.291 NA
ATOM     11  C   UNL     1     -15.490   5.691  22.510  0.00  0.00    +0.146 C 
ATOM     12  C   UNL     1     -17.164   4.035  22.546  0.00  0.00    +0.085 C 
ATOM     13  C   UNL     1     -15.325   4.884  23.810  0.00  0.00    +0.030 C 
ATOM     14  C   UNL     1     -16.164   3.630  23.610  0.00  0.00    +0.017 C 
BRANCH   2  10
ATOM     10  C   UNL     1     -17.143   5.607  20.704  0.00  0.00    +0.088 C 
BRANCH  10   7
ATOM      7  C   UNL     1     -17.037   5.047  19.322  0.00  0.00    +0.003 C 
ATOM      8  C   UNL     1     -18.267   4.505  18.654  0.00  0.00    +0.005 C 
ATOM      9  C   UNL     1     -17.659   5.792  18.178  0.00  0.00    +0.005 C 
ENDBRANCH  10   7
ENDBRANCH   2  10
ENDBRANCH  15  11
TORSDOF 5
ENDMDL
