REMARK  Name = 11884210
REMARK  2 active torsions:
REMARK  status: ('A' for Active; 'I' for Inactive)
REMARK    1  A    between atoms: C_17  and  C_21
REMARK    2  A    between atoms: C_20  and  C_23
REMARK                            x       y       z     vdW  Elec       q    Type
REMARK                         _______ _______ _______ _____ _____    ______ ____
ROOT
ATOM      3  O   UNL     1       2.192   2.231   0.712  0.00  0.00    -0.273 OA
ATOM      4  O   UNL     1      -0.763  -2.148   0.566  0.00  0.00    -0.270 OA
ATOM      5  O   UNL     1       5.191   1.300  -1.857  0.00  0.00    -0.269 OA
ATOM      6  N   UNL     1       0.858  -0.658  -0.142  0.00  0.00    -0.283 N 
ATOM      7  N   UNL     1       3.621   0.021  -0.736  0.00  0.00    -0.293 N 
ATOM      8  N   UNL     1      -0.063   1.964   0.871  0.00  0.00    -0.283 N 
ATOM      9  C   UNL     1       1.185   0.614  -0.771  0.00  0.00    +0.180 C 
ATOM     10  C   UNL     1       2.519   0.576  -1.526  0.00  0.00    +0.140 C 
ATOM     11  C   UNL     1       1.926  -1.653  -0.045  0.00  0.00    +0.128 C 
ATOM     12  C   UNL     1       3.272  -1.007   0.253  0.00  0.00    +0.127 C 
ATOM     13  C   UNL     1       1.171   1.645   0.347  0.00  0.00    +0.239 C 
ATOM     14  C   UNL     1      -0.440  -1.013   0.211  0.00  0.00    +0.249 C 
ATOM     15  C   UNL     1      -1.501   0.030   0.195  0.00  0.00    +0.059 A 
ATOM     16  C   UNL     1      -1.309   1.361   0.601  0.00  0.00    +0.046 A 
ATOM     17  C   UNL     1       4.939   0.432  -1.018  0.00  0.00    +0.253 C 
ATOM     18  C   UNL     1      -2.804  -0.426  -0.079  0.00  0.00    +0.023 A 
ATOM     19  C   UNL     1      -2.434   2.183   0.790  0.00  0.00    +0.024 A 
ATOM     20  C   UNL     1      -3.904   0.418   0.068  0.00  0.00    -0.014 A 
ATOM     22  C   UNL     1      -3.720   1.720   0.515  0.00  0.00    +0.010 A 
ATOM     32  H   UNL     1      -0.089   2.801   1.450  0.00  0.00    +0.155 HD
ENDROOT
BRANCH  20  23
ATOM      2  F   UNL     1      -5.502  -0.826   2.015  0.00  0.00    -0.205 F 
ATOM     23  C   UNL     1      -5.235  -0.067  -0.223  0.00  0.00    +0.017 A 
ATOM     26  C   UNL     1      -5.993  -0.679   0.776  0.00  0.00    +0.131 A 
ATOM     27  C   UNL     1      -5.762   0.078  -1.507  0.00  0.00    +0.011 A 
ATOM     29  C   UNL     1      -7.277  -1.145   0.491  0.00  0.00    +0.039 A 
ATOM     30  C   UNL     1      -7.045  -0.388  -1.792  0.00  0.00    +0.001 A 
ATOM     31  C   UNL     1      -7.803  -1.000  -0.793  0.00  0.00    +0.003 A 
ENDBRANCH  20  23
BRANCH  17  21
ATOM      1  S   UNL     1       6.532   0.455   1.202  0.00  0.00    -0.092 S 
ATOM     21  C   UNL     1       6.019  -0.220  -0.282  0.00  0.00    +0.074 A 
ATOM     24  C   UNL     1       6.722  -1.351  -0.616  0.00  0.00    +0.021 A 
ATOM     25  C   UNL     1       7.703  -1.674   0.366  0.00  0.00    +0.008 A 
ATOM     28  C   UNL     1       7.707  -0.773   1.408  0.00  0.00    +0.046 A 
ENDBRANCH  17  21
TORSDOF 2
