MODEL 1
REMARK VINA RESULT:      -7.7      0.000      0.000
REMARK  Name = 45360674
REMARK  11 active torsions:
REMARK  status: ('A' for Active; 'I' for Inactive)
REMARK    1  A    between atoms: N_5  and  C_9
REMARK    2  A    between atoms: N_5  and  C_17
REMARK    3  A    between atoms: N_6  and  C_22
REMARK    4  A    between atoms: N_7  and  C_25
REMARK    5  A    between atoms: N_7  and  C_29
REMARK    6  A    between atoms: N_7  and  C_30
REMARK    7  A    between atoms: C_11  and  C_15
REMARK    8  A    between atoms: C_15  and  C_16
REMARK    9  A    between atoms: C_16  and  C_18
REMARK   10  A    between atoms: C_17  and  C_19
REMARK   11  A    between atoms: C_22  and  C_26
REMARK                            x       y       z     vdW  Elec       q    Type
REMARK                         _______ _______ _______ _____ _____    ______ ____
ROOT
ATOM      1  O   UNL     1     -17.734   2.085  21.792  0.00  0.00    -0.274 OA
ATOM      3  N   UNL     1     -17.229   3.466  25.134  0.00  0.00    -0.286 NA
ATOM      4  N   UNL     1     -17.580   1.023  23.797  0.00  0.00    -0.313 N 
ATOM      8  C   UNL     1     -17.626   3.511  23.720  0.00  0.00    +0.145 C 
ATOM      9  C   UNL     1     -15.656   4.850  24.195  0.00  0.00    +0.070 C 
ATOM     10  C   UNL     1     -16.610   4.459  23.065  0.00  0.00    +0.048 C 
ATOM     11  C   UNL     1     -17.759   2.324  25.869  0.00  0.00    +0.075 C 
ATOM     12  C   UNL     1     -15.788   3.699  25.184  0.00  0.00    +0.104 C 
ATOM     13  C   UNL     1     -17.332   1.016  25.221  0.00  0.00    +0.123 C 
ATOM     14  C   UNL     1     -17.627   2.155  23.020  0.00  0.00    +0.230 C 
ATOM     34  H   UNL     1     -17.602   0.126  23.320  0.00  0.00    +0.149 HD
ENDROOT
BRANCH   9   5
ATOM      5  N   UNL     1     -14.294   5.072  23.742  0.00  0.00    -0.308 NA
ATOM     35  H   UNL     1     -13.973   5.978  24.084  0.00  0.00    +0.123 HD
BRANCH   5  17
ATOM     17  C   UNL     1     -14.217   5.059  22.286  0.00  0.00    +0.116 C 
BRANCH  17  19
ATOM     19  C   UNL     1     -13.525   6.278  21.749  0.00  0.00    -0.033 A 
ATOM     20  C   UNL     1     -14.178   7.511  21.754  0.00  0.00    +0.007 A 
ATOM     21  C   UNL     1     -12.228   6.179  21.244  0.00  0.00    +0.007 A 
ATOM     23  C   UNL     1     -13.536   8.643  21.254  0.00  0.00    +0.023 A 
ATOM     24  C   UNL     1     -11.586   7.311  20.744  0.00  0.00    +0.023 A 
ATOM     25  C   UNL     1     -12.239   8.542  20.749  0.00  0.00    +0.029 A 
BRANCH  25   7
ATOM      7  N   UNL     1     -11.589   9.688  20.244  0.00  0.00    -0.336 N 
ATOM     29  C   UNL     1     -12.083  11.013  20.563  0.00  0.00    +0.129 C 
ATOM     30  C   UNL     1     -10.413   9.555  19.408  0.00  0.00    +0.129 C 
ENDBRANCH  25   7
ENDBRANCH  17  19
ENDBRANCH   5  17
ENDBRANCH   9   5
BRANCH  11  15
ATOM     15  C   UNL     1     -17.385   2.348  27.352  0.00  0.00    +0.029 C 
BRANCH  15  16
ATOM     16  C   UNL     1     -17.185   0.938  27.891  0.00  0.00    +0.097 C 
BRANCH  16  18
ATOM      2  O   UNL     1     -16.147  -0.007  29.864  0.00  0.00    -0.276 OA
ATOM      6  N   UNL     1     -15.354   2.008  29.026  0.00  0.00    -0.311 N 
ATOM     18  C   UNL     1     -16.190   0.900  29.038  0.00  0.00    +0.213 C 
ATOM     36  H   UNL     1     -15.475   2.729  28.321  0.00  0.00    +0.149 HD
BRANCH   6  22
ATOM     22  C   UNL     1     -14.322   2.205  30.016  0.00  0.00    +0.139 C 
BRANCH  22  26
ATOM     26  C   UNL     1     -14.519   3.479  30.786  0.00  0.00    -0.030 A 
ATOM     27  C   UNL     1     -13.698   3.768  31.877  0.00  0.00    +0.005 A 
ATOM     28  C   UNL     1     -15.522   4.373  30.412  0.00  0.00    +0.005 A 
ATOM     31  C   UNL     1     -13.880   4.950  32.593  0.00  0.00    +0.000 A 
ATOM     32  C   UNL     1     -15.703   5.557  31.128  0.00  0.00    +0.000 A 
ATOM     33  C   UNL     1     -14.883   5.845  32.218  0.00  0.00    +0.000 A 
ENDBRANCH  22  26
ENDBRANCH   6  22
ENDBRANCH  16  18
ENDBRANCH  15  16
ENDBRANCH  11  15
TORSDOF 9
ENDMDL
MODEL 2
REMARK VINA RESULT:      -7.4     31.328     35.932
REMARK  Name = 45360674
REMARK  11 active torsions:
REMARK  status: ('A' for Active; 'I' for Inactive)
REMARK    1  A    between atoms: N_5  and  C_9
REMARK    2  A    between atoms: N_5  and  C_17
REMARK    3  A    between atoms: N_6  and  C_22
REMARK    4  A    between atoms: N_7  and  C_25
REMARK    5  A    between atoms: N_7  and  C_29
REMARK    6  A    between atoms: N_7  and  C_30
REMARK    7  A    between atoms: C_11  and  C_15
REMARK    8  A    between atoms: C_15  and  C_16
REMARK    9  A    between atoms: C_16  and  C_18
REMARK   10  A    between atoms: C_17  and  C_19
REMARK   11  A    between atoms: C_22  and  C_26
REMARK                            x       y       z     vdW  Elec       q    Type
REMARK                         _______ _______ _______ _____ _____    ______ ____
ROOT
ATOM      1  O   UNL     1       9.423   4.797   8.290  0.00  0.00    -0.274 OA
ATOM      3  N   UNL     1      11.030   7.237   6.100  0.00  0.00    -0.286 NA
ATOM      4  N   UNL     1      11.580   5.517   8.249  0.00  0.00    -0.313 N 
ATOM      8  C   UNL     1       9.891   6.598   6.773  0.00  0.00    +0.145 C 
ATOM      9  C   UNL     1       9.881   6.262   4.368  0.00  0.00    +0.070 C 
ATOM     10  C   UNL     1       9.079   5.961   5.635  0.00  0.00    +0.048 C 
ATOM     11  C   UNL     1      12.155   7.535   6.978  0.00  0.00    +0.075 C 
ATOM     12  C   UNL     1      11.298   6.469   4.886  0.00  0.00    +0.104 C 
ATOM     13  C   UNL     1      12.661   6.273   7.658  0.00  0.00    +0.123 C 
ATOM     14  C   UNL     1      10.278   5.550   7.812  0.00  0.00    +0.230 C 
ATOM     34  H   UNL     1      11.820   4.829   8.956  0.00  0.00    +0.149 HD
ENDROOT
BRANCH   9   5
ATOM      5  N   UNL     1       9.778   5.216   3.365  0.00  0.00    -0.308 NA
ATOM     35  H   UNL     1       8.968   4.631   3.575  0.00  0.00    +0.123 HD
BRANCH   5  17
ATOM     17  C   UNL     1      10.974   4.383   3.352  0.00  0.00    +0.116 C 
BRANCH  17  19
ATOM     19  C   UNL     1      11.459   4.117   1.957  0.00  0.00    -0.033 A 
ATOM     20  C   UNL     1      10.627   4.376   0.867  0.00  0.00    +0.007 A 
ATOM     21  C   UNL     1      12.742   3.611   1.749  0.00  0.00    +0.007 A 
ATOM     23  C   UNL     1      11.077   4.128  -0.430  0.00  0.00    +0.023 A 
ATOM     24  C   UNL     1      13.193   3.364   0.452  0.00  0.00    +0.023 A 
ATOM     25  C   UNL     1      12.361   3.622  -0.636  0.00  0.00    +0.029 A 
BRANCH  25   7
ATOM      7  N   UNL     1      12.817   3.373  -1.948  0.00  0.00    -0.336 N 
ATOM     29  C   UNL     1      12.102   2.456  -2.812  0.00  0.00    +0.129 C 
ATOM     30  C   UNL     1      14.002   4.038  -2.451  0.00  0.00    +0.129 C 
ENDBRANCH  25   7
ENDBRANCH  17  19
ENDBRANCH   5  17
ENDBRANCH   9   5
BRANCH  11  15
ATOM     15  C   UNL     1      13.292   8.262   6.258  0.00  0.00    +0.029 C 
BRANCH  15  16
ATOM     16  C   UNL     1      14.527   7.379   6.148  0.00  0.00    +0.097 C 
BRANCH  16  18
ATOM      2  O   UNL     1      16.190   8.230   4.607  0.00  0.00    -0.276 OA
ATOM      6  N   UNL     1      14.588   6.740   3.831  0.00  0.00    -0.311 N 
ATOM     18  C   UNL     1      15.210   7.516   4.799  0.00  0.00    +0.213 C 
ATOM     36  H   UNL     1      13.762   6.198   4.066  0.00  0.00    +0.149 HD
BRANCH   6  22
ATOM     22  C   UNL     1      15.048   6.699   2.463  0.00  0.00    +0.139 C 
BRANCH  22  26
ATOM     26  C   UNL     1      13.962   7.066   1.493  0.00  0.00    -0.030 A 
ATOM     27  C   UNL     1      14.160   6.886   0.124  0.00  0.00    +0.005 A 
ATOM     28  C   UNL     1      12.755   7.586   1.961  0.00  0.00    +0.005 A 
ATOM     31  C   UNL     1      13.152   7.226  -0.777  0.00  0.00    +0.000 A 
ATOM     32  C   UNL     1      11.746   7.926   1.059  0.00  0.00    +0.000 A 
ATOM     33  C   UNL     1      11.945   7.746  -0.310  0.00  0.00    +0.000 A 
ENDBRANCH  22  26
ENDBRANCH   6  22
ENDBRANCH  16  18
ENDBRANCH  15  16
ENDBRANCH  11  15
TORSDOF 9
ENDMDL
MODEL 3
REMARK VINA RESULT:      -7.2     18.017     20.936
REMARK  Name = 45360674
REMARK  11 active torsions:
REMARK  status: ('A' for Active; 'I' for Inactive)
REMARK    1  A    between atoms: N_5  and  C_9
REMARK    2  A    between atoms: N_5  and  C_17
REMARK    3  A    between atoms: N_6  and  C_22
REMARK    4  A    between atoms: N_7  and  C_25
REMARK    5  A    between atoms: N_7  and  C_29
REMARK    6  A    between atoms: N_7  and  C_30
REMARK    7  A    between atoms: C_11  and  C_15
REMARK    8  A    between atoms: C_15  and  C_16
REMARK    9  A    between atoms: C_16  and  C_18
REMARK   10  A    between atoms: C_17  and  C_19
REMARK   11  A    between atoms: C_22  and  C_26
REMARK                            x       y       z     vdW  Elec       q    Type
REMARK                         _______ _______ _______ _____ _____    ______ ____
ROOT
ATOM      1  O   UNL     1      -7.515 -12.453  19.630  0.00  0.00    -0.274 OA
ATOM      3  N   UNL     1      -5.346 -10.860  17.163  0.00  0.00    -0.286 NA
ATOM      4  N   UNL     1      -6.096 -13.390  18.120  0.00  0.00    -0.313 N 
ATOM      8  C   UNL     1      -6.150 -10.916  18.392  0.00  0.00    +0.145 C 
ATOM      9  C   UNL     1      -7.103  -9.456  16.701  0.00  0.00    +0.070 C 
ATOM     10  C   UNL     1      -7.322  -9.958  18.128  0.00  0.00    +0.048 C 
ATOM     11  C   UNL     1      -4.432 -11.983  16.993  0.00  0.00    +0.075 C 
ATOM     12  C   UNL     1      -6.259 -10.554  16.064  0.00  0.00    +0.104 C 
ATOM     13  C   UNL     1      -5.187 -13.302  17.000  0.00  0.00    +0.123 C 
ATOM     14  C   UNL     1      -6.662 -12.307  18.749  0.00  0.00    +0.230 C 
ATOM     34  H   UNL     1      -6.430 -14.312  18.382  0.00  0.00    +0.149 HD
ENDROOT
BRANCH   9   5
ATOM      5  N   UNL     1      -8.343  -9.194  15.990  0.00  0.00    -0.308 NA
ATOM     35  H   UNL     1      -8.131  -8.711  15.117  0.00  0.00    +0.123 HD
BRANCH   5  17
ATOM     17  C   UNL     1      -9.237  -8.363  16.787  0.00  0.00    +0.116 C 
BRANCH  17  19
ATOM     19  C   UNL     1     -10.309  -7.727  15.950  0.00  0.00    -0.033 A 
ATOM     20  C   UNL     1     -10.833  -6.485  16.311  0.00  0.00    +0.007 A 
ATOM     21  C   UNL     1     -10.783  -8.377  14.810  0.00  0.00    +0.007 A 
ATOM     23  C   UNL     1     -11.829  -5.895  15.535  0.00  0.00    +0.023 A 
ATOM     24  C   UNL     1     -11.779  -7.787  14.033  0.00  0.00    +0.023 A 
ATOM     25  C   UNL     1     -12.302  -6.546  14.395  0.00  0.00    +0.029 A 
BRANCH  25   7
ATOM      7  N   UNL     1     -13.309  -5.948  13.609  0.00  0.00    -0.336 N 
ATOM     29  C   UNL     1     -14.414  -6.739  13.106  0.00  0.00    +0.129 C 
ATOM     30  C   UNL     1     -13.256  -4.533  13.302  0.00  0.00    +0.129 C 
ENDBRANCH  25   7
ENDBRANCH  17  19
ENDBRANCH   5  17
ENDBRANCH   9   5
BRANCH  11  15
ATOM     15  C   UNL     1      -3.562 -11.855  15.742  0.00  0.00    +0.029 C 
BRANCH  15  16
ATOM     16  C   UNL     1      -2.404 -10.894  15.972  0.00  0.00    +0.097 C 
BRANCH  16  18
ATOM      2  O   UNL     1      -1.011  -9.449  14.618  0.00  0.00    -0.276 OA
ATOM      6  N   UNL     1      -2.402 -10.984  13.569  0.00  0.00    -0.311 N 
ATOM     18  C   UNL     1      -1.848 -10.346  14.670  0.00  0.00    +0.213 C 
ATOM     36  H   UNL     1      -3.111 -11.699  13.699  0.00  0.00    +0.149 HD
BRANCH   6  22
ATOM     22  C   UNL     1      -2.037 -10.642  12.216  0.00  0.00    +0.139 C 
BRANCH  22  26
ATOM     26  C   UNL     1      -3.174 -10.005  11.470  0.00  0.00    -0.030 A 
ATOM     27  C   UNL     1      -4.449  -9.975  12.036  0.00  0.00    +0.005 A 
ATOM     28  C   UNL     1      -2.957  -9.445  10.212  0.00  0.00    +0.005 A 
ATOM     31  C   UNL     1      -5.505  -9.384  11.345  0.00  0.00    +0.000 A 
ATOM     32  C   UNL     1      -4.013  -8.852   9.520  0.00  0.00    +0.000 A 
ATOM     33  C   UNL     1      -5.288  -8.822  10.086  0.00  0.00    +0.000 A 
ENDBRANCH  22  26
ENDBRANCH   6  22
ENDBRANCH  16  18
ENDBRANCH  15  16
ENDBRANCH  11  15
TORSDOF 9
ENDMDL
MODEL 4
REMARK VINA RESULT:      -7.2     18.280     21.321
REMARK  Name = 45360674
REMARK  11 active torsions:
REMARK  status: ('A' for Active; 'I' for Inactive)
REMARK    1  A    between atoms: N_5  and  C_9
REMARK    2  A    between atoms: N_5  and  C_17
REMARK    3  A    between atoms: N_6  and  C_22
REMARK    4  A    between atoms: N_7  and  C_25
REMARK    5  A    between atoms: N_7  and  C_29
REMARK    6  A    between atoms: N_7  and  C_30
REMARK    7  A    between atoms: C_11  and  C_15
REMARK    8  A    between atoms: C_15  and  C_16
REMARK    9  A    between atoms: C_16  and  C_18
REMARK   10  A    between atoms: C_17  and  C_19
REMARK   11  A    between atoms: C_22  and  C_26
REMARK                            x       y       z     vdW  Elec       q    Type
REMARK                         _______ _______ _______ _____ _____    ______ ____
ROOT
ATOM      1  O   UNL     1      -7.478 -14.446  16.946  0.00  0.00    -0.274 OA
ATOM      3  N   UNL     1      -5.241 -11.692  17.807  0.00  0.00    -0.286 NA
ATOM      4  N   UNL     1      -6.240 -13.100  15.594  0.00  0.00    -0.313 N 
ATOM      8  C   UNL     1      -5.995 -12.927  18.066  0.00  0.00    +0.145 C 
ATOM      9  C   UNL     1      -6.840 -11.022  19.312  0.00  0.00    +0.070 C 
ATOM     10  C   UNL     1      -7.057 -12.520  19.098  0.00  0.00    +0.048 C 
ATOM     11  C   UNL     1      -4.471 -11.708  16.569  0.00  0.00    +0.075 C 
ATOM     12  C   UNL     1      -6.157 -10.575  18.026  0.00  0.00    +0.104 C 
ATOM     13  C   UNL     1      -5.374 -11.964  15.373  0.00  0.00    +0.123 C 
ATOM     14  C   UNL     1      -6.650 -13.537  16.831  0.00  0.00    +0.230 C 
ATOM     34  H   UNL     1      -6.669 -13.529  14.779  0.00  0.00    +0.149 HD
ENDROOT
BRANCH   9   5
ATOM      5  N   UNL     1      -8.070 -10.301  19.596  0.00  0.00    -0.308 NA
ATOM     35  H   UNL     1      -8.259 -10.348  20.597  0.00  0.00    +0.123 HD
BRANCH   5  17
ATOM     17  C   UNL     1      -9.195 -10.879  18.872  0.00  0.00    +0.116 C 
BRANCH  17  19
ATOM     19  C   UNL     1      -9.967  -9.840  18.111  0.00  0.00    -0.033 A 
ATOM     20  C   UNL     1      -9.344  -8.655  17.718  0.00  0.00    +0.007 A 
ATOM     21  C   UNL     1     -11.309 -10.060  17.797  0.00  0.00    +0.007 A 
ATOM     23  C   UNL     1     -10.062  -7.690  17.013  0.00  0.00    +0.023 A 
ATOM     24  C   UNL     1     -12.026  -9.095  17.091  0.00  0.00    +0.023 A 
ATOM     25  C   UNL     1     -11.403  -7.911  16.699  0.00  0.00    +0.029 A 
BRANCH  25   7
ATOM      7  N   UNL     1     -12.129  -6.935  15.984  0.00  0.00    -0.336 N 
ATOM     29  C   UNL     1     -13.578  -6.948  15.988  0.00  0.00    +0.129 C 
ATOM     30  C   UNL     1     -11.434  -5.901  15.243  0.00  0.00    +0.129 C 
ENDBRANCH  25   7
ENDBRANCH  17  19
ENDBRANCH   5  17
ENDBRANCH   9   5
BRANCH  11  15
ATOM     15  C   UNL     1      -3.645 -10.436  16.369  0.00  0.00    +0.029 C 
BRANCH  15  16
ATOM     16  C   UNL     1      -2.178 -10.766  16.133  0.00  0.00    +0.097 C 
BRANCH  16  18
ATOM      2  O   UNL     1      -1.489 -12.417  14.501  0.00  0.00    -0.276 OA
ATOM      6  N   UNL     1      -2.256 -10.354  13.765  0.00  0.00    -0.311 N 
ATOM     18  C   UNL     1      -1.928 -11.294  14.731  0.00  0.00    +0.213 C 
ATOM     36  H   UNL     1      -2.588  -9.435  14.042  0.00  0.00    +0.149 HD
BRANCH   6  22
ATOM     22  C   UNL     1      -2.107 -10.615  12.354  0.00  0.00    +0.139 C 
BRANCH  22  26
ATOM     26  C   UNL     1      -3.219 -10.005  11.549  0.00  0.00    -0.030 A 
ATOM     27  C   UNL     1      -4.519  -9.995  12.052  0.00  0.00    +0.005 A 
ATOM     28  C   UNL     1      -2.950  -9.448  10.298  0.00  0.00    +0.005 A 
ATOM     31  C   UNL     1      -5.552  -9.428  11.305  0.00  0.00    +0.000 A 
ATOM     32  C   UNL     1      -3.982  -8.880   9.552  0.00  0.00    +0.000 A 
ATOM     33  C   UNL     1      -5.283  -8.870  10.054  0.00  0.00    +0.000 A 
ENDBRANCH  22  26
ENDBRANCH   6  22
ENDBRANCH  16  18
ENDBRANCH  15  16
ENDBRANCH  11  15
TORSDOF 9
ENDMDL
MODEL 5
REMARK VINA RESULT:      -7.2     27.281     30.492
REMARK  Name = 45360674
REMARK  11 active torsions:
REMARK  status: ('A' for Active; 'I' for Inactive)
REMARK    1  A    between atoms: N_5  and  C_9
REMARK    2  A    between atoms: N_5  and  C_17
REMARK    3  A    between atoms: N_6  and  C_22
REMARK    4  A    between atoms: N_7  and  C_25
REMARK    5  A    between atoms: N_7  and  C_29
REMARK    6  A    between atoms: N_7  and  C_30
REMARK    7  A    between atoms: C_11  and  C_15
REMARK    8  A    between atoms: C_15  and  C_16
REMARK    9  A    between atoms: C_16  and  C_18
REMARK   10  A    between atoms: C_17  and  C_19
REMARK   11  A    between atoms: C_22  and  C_26
REMARK                            x       y       z     vdW  Elec       q    Type
REMARK                         _______ _______ _______ _____ _____    ______ ____
ROOT
ATOM      1  O   UNL     1      11.536  13.372  25.681  0.00  0.00    -0.274 OA
ATOM      3  N   UNL     1      11.169  12.610  22.130  0.00  0.00    -0.286 NA
ATOM      4  N   UNL     1      12.618  14.252  23.885  0.00  0.00    -0.313 N 
ATOM      8  C   UNL     1      10.736  12.660  23.533  0.00  0.00    +0.145 C 
ATOM      9  C   UNL     1      11.099  10.396  22.735  0.00  0.00    +0.070 C 
ATOM     10  C   UNL     1      10.646  11.188  23.962  0.00  0.00    +0.048 C 
ATOM     11  C   UNL     1      11.734  13.858  21.631  0.00  0.00    +0.075 C 
ATOM     12  C   UNL     1      11.959  11.391  21.967  0.00  0.00    +0.104 C 
ATOM     13  C   UNL     1      12.924  14.289  22.473  0.00  0.00    +0.123 C 
ATOM     14  C   UNL     1      11.673  13.434  24.455  0.00  0.00    +0.230 C 
ATOM     34  H   UNL     1      13.222  14.778  24.510  0.00  0.00    +0.149 HD
ENDROOT
BRANCH   9   5
ATOM      5  N   UNL     1      11.797   9.167  23.073  0.00  0.00    -0.308 NA
ATOM     35  H   UNL     1      12.735   9.397  23.401  0.00  0.00    +0.123 HD
BRANCH   5  17
ATOM     17  C   UNL     1      11.900   8.288  21.915  0.00  0.00    +0.116 C 
BRANCH  17  19
ATOM     19  C   UNL     1      13.328   7.960  21.584  0.00  0.00    -0.033 A 
ATOM     20  C   UNL     1      13.629   6.802  20.866  0.00  0.00    +0.007 A 
ATOM     21  C   UNL     1      14.353   8.813  21.993  0.00  0.00    +0.007 A 
ATOM     23  C   UNL     1      14.954   6.497  20.558  0.00  0.00    +0.023 A 
ATOM     24  C   UNL     1      15.678   8.507  21.685  0.00  0.00    +0.023 A 
ATOM     25  C   UNL     1      15.979   7.351  20.968  0.00  0.00    +0.029 A 
BRANCH  25   7
ATOM      7  N   UNL     1      17.320   7.042  20.656  0.00  0.00    -0.336 N 
ATOM     29  C   UNL     1      17.633   6.188  19.529  0.00  0.00    +0.129 C 
ATOM     30  C   UNL     1      18.402   7.584  21.454  0.00  0.00    +0.129 C 
ENDBRANCH  25   7
ENDBRANCH  17  19
ENDBRANCH   5  17
ENDBRANCH   9   5
BRANCH  11  15
ATOM     15  C   UNL     1      12.108  13.789  20.149  0.00  0.00    +0.029 C 
BRANCH  15  16
ATOM     16  C   UNL     1      13.464  14.432  19.894  0.00  0.00    +0.097 C 
BRANCH  16  18
ATOM      2  O   UNL     1      15.295  13.885  18.407  0.00  0.00    -0.276 OA
ATOM      6  N   UNL     1      14.153  12.167  19.473  0.00  0.00    -0.311 N 
ATOM     18  C   UNL     1      14.413  13.496  19.167  0.00  0.00    +0.213 C 
ATOM     36  H   UNL     1      13.385  11.928  20.092  0.00  0.00    +0.149 HD
BRANCH   6  22
ATOM     22  C   UNL     1      14.920  11.082  18.907  0.00  0.00    +0.139 C 
BRANCH  22  26
ATOM     26  C   UNL     1      14.041   9.956  18.443  0.00  0.00    -0.030 A 
ATOM     27  C   UNL     1      14.597   8.876  17.757  0.00  0.00    +0.005 A 
ATOM     28  C   UNL     1      12.670   9.990  18.698  0.00  0.00    +0.005 A 
ATOM     31  C   UNL     1      13.782   7.830  17.326  0.00  0.00    +0.000 A 
ATOM     32  C   UNL     1      11.855   8.943  18.267  0.00  0.00    +0.000 A 
ATOM     33  C   UNL     1      12.410   7.864  17.581  0.00  0.00    +0.000 A 
ENDBRANCH  22  26
ENDBRANCH   6  22
ENDBRANCH  16  18
ENDBRANCH  15  16
ENDBRANCH  11  15
TORSDOF 9
ENDMDL
MODEL 6
REMARK VINA RESULT:      -6.7     20.741     22.676
REMARK  Name = 45360674
REMARK  11 active torsions:
REMARK  status: ('A' for Active; 'I' for Inactive)
REMARK    1  A    between atoms: N_5  and  C_9
REMARK    2  A    between atoms: N_5  and  C_17
REMARK    3  A    between atoms: N_6  and  C_22
REMARK    4  A    between atoms: N_7  and  C_25
REMARK    5  A    between atoms: N_7  and  C_29
REMARK    6  A    between atoms: N_7  and  C_30
REMARK    7  A    between atoms: C_11  and  C_15
REMARK    8  A    between atoms: C_15  and  C_16
REMARK    9  A    between atoms: C_16  and  C_18
REMARK   10  A    between atoms: C_17  and  C_19
REMARK   11  A    between atoms: C_22  and  C_26
REMARK                            x       y       z     vdW  Elec       q    Type
REMARK                         _______ _______ _______ _____ _____    ______ ____
ROOT
ATOM      1  O   UNL     1      -7.173 -12.437  11.147  0.00  0.00    -0.274 OA
ATOM      3  N   UNL     1      -4.422 -10.117  11.764  0.00  0.00    -0.286 NA
ATOM      4  N   UNL     1      -4.931 -12.818  11.194  0.00  0.00    -0.313 N 
ATOM      8  C   UNL     1      -5.815 -10.579  11.830  0.00  0.00    +0.145 C 
ATOM      9  C   UNL     1      -5.529  -8.631  10.408  0.00  0.00    +0.070 C 
ATOM     10  C   UNL     1      -6.593  -9.583  10.956  0.00  0.00    +0.048 C 
ATOM     11  C   UNL     1      -3.438 -11.122  12.149  0.00  0.00    +0.075 C 
ATOM     12  C   UNL     1      -4.249  -9.455  10.473  0.00  0.00    +0.104 C 
ATOM     13  C   UNL     1      -3.562 -12.363  11.280  0.00  0.00    +0.123 C 
ATOM     14  C   UNL     1      -6.031 -12.007  11.341  0.00  0.00    +0.230 C 
ATOM     34  H   UNL     1      -5.090 -13.773  10.888  0.00  0.00    +0.149 HD
ENDROOT
BRANCH   9   5
ATOM      5  N   UNL     1      -5.834  -8.139   9.075  0.00  0.00    -0.308 NA
ATOM     35  H   UNL     1      -6.572  -7.437   9.141  0.00  0.00    +0.123 HD
BRANCH   5  17
ATOM     17  C   UNL     1      -6.284  -9.221   8.208  0.00  0.00    +0.116 C 
BRANCH  17  19
ATOM     19  C   UNL     1      -7.069  -8.711   7.034  0.00  0.00    -0.033 A 
ATOM     20  C   UNL     1      -8.104  -7.796   7.231  0.00  0.00    +0.007 A 
ATOM     21  C   UNL     1      -6.765  -9.153   5.746  0.00  0.00    +0.007 A 
ATOM     23  C   UNL     1      -8.834  -7.323   6.142  0.00  0.00    +0.023 A 
ATOM     24  C   UNL     1      -7.496  -8.680   4.657  0.00  0.00    +0.023 A 
ATOM     25  C   UNL     1      -8.530  -7.766   4.854  0.00  0.00    +0.029 A 
BRANCH  25   7
ATOM      7  N   UNL     1      -9.268  -7.286   3.752  0.00  0.00    -0.336 N 
ATOM     29  C   UNL     1     -10.648  -6.877   3.915  0.00  0.00    +0.129 C 
ATOM     30  C   UNL     1      -8.652  -7.189   2.443  0.00  0.00    +0.129 C 
ENDBRANCH  25   7
ENDBRANCH  17  19
ENDBRANCH   5  17
ENDBRANCH   9   5
BRANCH  11  15
ATOM     15  C   UNL     1      -2.006 -10.585  12.137  0.00  0.00    +0.029 C 
BRANCH  15  16
ATOM     16  C   UNL     1      -1.648  -9.943  13.470  0.00  0.00    +0.097 C 
BRANCH  16  18
ATOM      2  O   UNL     1      -1.460 -11.984  14.758  0.00  0.00    -0.276 OA
ATOM      6  N   UNL     1      -2.807 -10.268  15.551  0.00  0.00    -0.311 N 
ATOM     18  C   UNL     1      -1.940 -10.860  14.644  0.00  0.00    +0.213 C 
ATOM     36  H   UNL     1      -3.181  -9.342  15.367  0.00  0.00    +0.149 HD
BRANCH   6  22
ATOM     22  C   UNL     1      -3.240 -10.938  16.754  0.00  0.00    +0.139 C 
BRANCH  22  26
ATOM     26  C   UNL     1      -4.633 -10.541  17.148  0.00  0.00    -0.030 A 
ATOM     27  C   UNL     1      -5.095 -10.807  18.437  0.00  0.00    +0.005 A 
ATOM     28  C   UNL     1      -5.465  -9.905  16.227  0.00  0.00    +0.005 A 
ATOM     31  C   UNL     1      -6.389 -10.438  18.805  0.00  0.00    +0.000 A 
ATOM     32  C   UNL     1      -6.758  -9.534  16.594  0.00  0.00    +0.000 A 
ATOM     33  C   UNL     1      -7.221  -9.801  17.883  0.00  0.00    +0.000 A 
ENDBRANCH  22  26
ENDBRANCH   6  22
ENDBRANCH  16  18
ENDBRANCH  15  16
ENDBRANCH  11  15
TORSDOF 9
ENDMDL
MODEL 7
REMARK VINA RESULT:      -6.7     20.738     24.244
REMARK  Name = 45360674
REMARK  11 active torsions:
REMARK  status: ('A' for Active; 'I' for Inactive)
REMARK    1  A    between atoms: N_5  and  C_9
REMARK    2  A    between atoms: N_5  and  C_17
REMARK    3  A    between atoms: N_6  and  C_22
REMARK    4  A    between atoms: N_7  and  C_25
REMARK    5  A    between atoms: N_7  and  C_29
REMARK    6  A    between atoms: N_7  and  C_30
REMARK    7  A    between atoms: C_11  and  C_15
REMARK    8  A    between atoms: C_15  and  C_16
REMARK    9  A    between atoms: C_16  and  C_18
REMARK   10  A    between atoms: C_17  and  C_19
REMARK   11  A    between atoms: C_22  and  C_26
REMARK                            x       y       z     vdW  Elec       q    Type
REMARK                         _______ _______ _______ _____ _____    ______ ____
ROOT
ATOM      1  O   UNL     1      -3.925 -14.919  12.747  0.00  0.00    -0.274 OA
ATOM      3  N   UNL     1      -2.358 -11.655  12.278  0.00  0.00    -0.286 NA
ATOM      4  N   UNL     1      -4.702 -13.074  11.668  0.00  0.00    -0.313 N 
ATOM      8  C   UNL     1      -2.372 -13.100  12.547  0.00  0.00    +0.145 C 
ATOM      9  C   UNL     1      -1.710 -11.783  14.477  0.00  0.00    +0.070 C 
ATOM     10  C   UNL     1      -1.910 -13.224  14.006  0.00  0.00    +0.048 C 
ATOM     11  C   UNL     1      -3.152 -11.252  11.123  0.00  0.00    +0.075 C 
ATOM     12  C   UNL     1      -2.610 -10.978  13.548  0.00  0.00    +0.104 C 
ATOM     13  C   UNL     1      -4.601 -11.685  11.284  0.00  0.00    +0.123 C 
ATOM     14  C   UNL     1      -3.731 -13.765  12.353  0.00  0.00    +0.230 C 
ATOM     34  H   UNL     1      -5.595 -13.536  11.528  0.00  0.00    +0.149 HD
ENDROOT
BRANCH   9   5
ATOM      5  N   UNL     1      -2.014 -11.594  15.885  0.00  0.00    -0.308 NA
ATOM     35  H   UNL     1      -2.546 -12.397  16.221  0.00  0.00    +0.123 HD
BRANCH   5  17
ATOM     17  C   UNL     1      -2.799 -10.383  16.093  0.00  0.00    +0.116 C 
BRANCH  17  19
ATOM     19  C   UNL     1      -4.079 -10.662  16.826  0.00  0.00    -0.033 A 
ATOM     20  C   UNL     1      -5.273 -10.085  16.390  0.00  0.00    +0.007 A 
ATOM     21  C   UNL     1      -4.077 -11.498  17.943  0.00  0.00    +0.007 A 
ATOM     23  C   UNL     1      -6.462 -10.343  17.071  0.00  0.00    +0.023 A 
ATOM     24  C   UNL     1      -5.266 -11.756  18.624  0.00  0.00    +0.023 A 
ATOM     25  C   UNL     1      -6.458 -11.179  18.188  0.00  0.00    +0.029 A 
BRANCH  25   7
ATOM      7  N   UNL     1      -7.661 -11.441  18.876  0.00  0.00    -0.336 N 
ATOM     29  C   UNL     1      -8.832 -10.619  18.647  0.00  0.00    +0.129 C 
ATOM     30  C   UNL     1      -7.745 -12.542  19.815  0.00  0.00    +0.129 C 
ENDBRANCH  25   7
ENDBRANCH  17  19
ENDBRANCH   5  17
ENDBRANCH   9   5
BRANCH  11  15
ATOM     15  C   UNL     1      -3.056  -9.754  10.831  0.00  0.00    +0.029 C 
BRANCH  15  16
ATOM     16  C   UNL     1      -3.688  -9.414   9.489  0.00  0.00    +0.097 C 
BRANCH  16  18
ATOM      2  O   UNL     1      -5.207  -7.886  10.593  0.00  0.00    -0.276 OA
ATOM      6  N   UNL     1      -5.855  -8.876   8.595  0.00  0.00    -0.311 N 
ATOM     18  C   UNL     1      -4.981  -8.633   9.646  0.00  0.00    +0.213 C 
ATOM     36  H   UNL     1      -5.601  -9.532   7.864  0.00  0.00    +0.149 HD
BRANCH   6  22
ATOM     22  C   UNL     1      -7.154  -8.253   8.514  0.00  0.00    +0.139 C 
BRANCH  22  26
ATOM     26  C   UNL     1      -7.636  -8.141   7.097  0.00  0.00    -0.030 A 
ATOM     27  C   UNL     1      -6.986  -8.842   6.082  0.00  0.00    +0.005 A 
ATOM     28  C   UNL     1      -8.734  -7.335   6.795  0.00  0.00    +0.005 A 
ATOM     31  C   UNL     1      -7.433  -8.739   4.765  0.00  0.00    +0.000 A 
ATOM     32  C   UNL     1      -9.183  -7.233   5.478  0.00  0.00    +0.000 A 
ATOM     33  C   UNL     1      -8.532  -7.934   4.463  0.00  0.00    +0.000 A 
ENDBRANCH  22  26
ENDBRANCH   6  22
ENDBRANCH  16  18
ENDBRANCH  15  16
ENDBRANCH  11  15
TORSDOF 9
ENDMDL
MODEL 8
REMARK VINA RESULT:      -6.5     18.220     21.806
REMARK  Name = 45360674
REMARK  11 active torsions:
REMARK  status: ('A' for Active; 'I' for Inactive)
REMARK    1  A    between atoms: N_5  and  C_9
REMARK    2  A    between atoms: N_5  and  C_17
REMARK    3  A    between atoms: N_6  and  C_22
REMARK    4  A    between atoms: N_7  and  C_25
REMARK    5  A    between atoms: N_7  and  C_29
REMARK    6  A    between atoms: N_7  and  C_30
REMARK    7  A    between atoms: C_11  and  C_15
REMARK    8  A    between atoms: C_15  and  C_16
REMARK    9  A    between atoms: C_16  and  C_18
REMARK   10  A    between atoms: C_17  and  C_19
REMARK   11  A    between atoms: C_22  and  C_26
REMARK                            x       y       z     vdW  Elec       q    Type
REMARK                         _______ _______ _______ _____ _____    ______ ____
ROOT
ATOM      1  O   UNL     1      -9.142 -13.109  15.676  0.00  0.00    -0.274 OA
ATOM      3  N   UNL     1      -6.371 -11.623  17.530  0.00  0.00    -0.286 NA
ATOM      4  N   UNL     1      -7.571 -11.613  14.993  0.00  0.00    -0.313 N 
ATOM      8  C   UNL     1      -7.399 -12.637  17.256  0.00  0.00    +0.145 C 
ATOM      9  C   UNL     1      -7.835 -11.367  19.279  0.00  0.00    +0.070 C 
ATOM     10  C   UNL     1      -8.382 -12.515  18.430  0.00  0.00    +0.048 C 
ATOM     11  C   UNL     1      -5.573 -11.249  16.369  0.00  0.00    +0.075 C 
ATOM     12  C   UNL     1      -7.013 -10.553  18.289  0.00  0.00    +0.104 C 
ATOM     13  C   UNL     1      -6.459 -10.728  15.248  0.00  0.00    +0.123 C 
ATOM     14  C   UNL     1      -8.123 -12.458  15.926  0.00  0.00    +0.230 C 
ATOM     34  H   UNL     1      -8.052 -11.519  14.103  0.00  0.00    +0.149 HD
ENDROOT
BRANCH   9   5
ATOM      5  N   UNL     1      -8.876 -10.597  19.939  0.00  0.00    -0.308 NA
ATOM     35  H   UNL     1      -9.124 -11.055  20.816  0.00  0.00    +0.123 HD
BRANCH   5  17
ATOM     17  C   UNL     1     -10.066 -10.501  19.102  0.00  0.00    +0.116 C 
BRANCH  17  19
ATOM     19  C   UNL     1     -11.324 -10.754  19.881  0.00  0.00    -0.033 A 
ATOM     20  C   UNL     1     -11.568 -12.016  20.423  0.00  0.00    +0.007 A 
ATOM     21  C   UNL     1     -12.250  -9.727  20.064  0.00  0.00    +0.007 A 
ATOM     23  C   UNL     1     -12.736 -12.252  21.146  0.00  0.00    +0.023 A 
ATOM     24  C   UNL     1     -13.419  -9.962  20.787  0.00  0.00    +0.023 A 
ATOM     25  C   UNL     1     -13.662 -11.224  21.328  0.00  0.00    +0.029 A 
BRANCH  25   7
ATOM      7  N   UNL     1     -14.844 -11.462  22.061  0.00  0.00    -0.336 N 
ATOM     29  C   UNL     1     -16.044 -10.697  21.787  0.00  0.00    +0.129 C 
ATOM     30  C   UNL     1     -14.875 -12.481  23.091  0.00  0.00    +0.129 C 
ENDBRANCH  25   7
ENDBRANCH  17  19
ENDBRANCH   5  17
ENDBRANCH   9   5
BRANCH  11  15
ATOM     15  C   UNL     1      -4.468 -10.247  16.706  0.00  0.00    +0.029 C 
BRANCH  15  16
ATOM     16  C   UNL     1      -3.175 -10.959  17.079  0.00  0.00    +0.097 C 
BRANCH  16  18
ATOM      2  O   UNL     1      -1.303 -10.096  15.807  0.00  0.00    -0.276 OA
ATOM      6  N   UNL     1      -2.363 -12.031  15.085  0.00  0.00    -0.311 N 
ATOM     18  C   UNL     1      -2.171 -10.954  15.940  0.00  0.00    +0.213 C 
ATOM     36  H   UNL     1      -3.124 -12.683  15.252  0.00  0.00    +0.149 HD
BRANCH   6  22
ATOM     22  C   UNL     1      -1.535 -12.250  13.923  0.00  0.00    +0.139 C 
BRANCH  22  26
ATOM     26  C   UNL     1      -2.188 -11.750  12.667  0.00  0.00    -0.030 A 
ATOM     27  C   UNL     1      -2.014 -10.424  12.271  0.00  0.00    +0.005 A 
ATOM     28  C   UNL     1      -2.968 -12.612  11.895  0.00  0.00    +0.005 A 
ATOM     31  C   UNL     1      -2.620  -9.959  11.104  0.00  0.00    +0.000 A 
ATOM     32  C   UNL     1      -3.573 -12.148  10.727  0.00  0.00    +0.000 A 
ATOM     33  C   UNL     1      -3.400 -10.821  10.332  0.00  0.00    +0.000 A 
ENDBRANCH  22  26
ENDBRANCH   6  22
ENDBRANCH  16  18
ENDBRANCH  15  16
ENDBRANCH  11  15
TORSDOF 9
ENDMDL
MODEL 9
REMARK VINA RESULT:      -6.5     21.543     23.489
REMARK  Name = 45360674
REMARK  11 active torsions:
REMARK  status: ('A' for Active; 'I' for Inactive)
REMARK    1  A    between atoms: N_5  and  C_9
REMARK    2  A    between atoms: N_5  and  C_17
REMARK    3  A    between atoms: N_6  and  C_22
REMARK    4  A    between atoms: N_7  and  C_25
REMARK    5  A    between atoms: N_7  and  C_29
REMARK    6  A    between atoms: N_7  and  C_30
REMARK    7  A    between atoms: C_11  and  C_15
REMARK    8  A    between atoms: C_15  and  C_16
REMARK    9  A    between atoms: C_16  and  C_18
REMARK   10  A    between atoms: C_17  and  C_19
REMARK   11  A    between atoms: C_22  and  C_26
REMARK                            x       y       z     vdW  Elec       q    Type
REMARK                         _______ _______ _______ _____ _____    ______ ____
ROOT
ATOM      1  O   UNL     1      -7.746 -10.880  12.047  0.00  0.00    -0.274 OA
ATOM      3  N   UNL     1      -4.161 -10.190  12.061  0.00  0.00    -0.286 NA
ATOM      4  N   UNL     1      -5.994 -12.294  12.367  0.00  0.00    -0.313 N 
ATOM      8  C   UNL     1      -5.585  -9.845  12.178  0.00  0.00    +0.145 C 
ATOM      9  C   UNL     1      -4.530  -8.864  10.223  0.00  0.00    +0.070 C 
ATOM     10  C   UNL     1      -5.859  -8.927  10.977  0.00  0.00    +0.048 C 
ATOM     11  C   UNL     1      -3.766 -11.372  12.818  0.00  0.00    +0.075 C 
ATOM     12  C   UNL     1      -3.824 -10.148  10.639  0.00  0.00    +0.104 C 
ATOM     13  C   UNL     1      -4.579 -12.585  12.394  0.00  0.00    +0.123 C 
ATOM     14  C   UNL     1      -6.528 -11.044  12.167  0.00  0.00    +0.230 C 
ATOM     34  H   UNL     1      -6.635 -13.081  12.379  0.00  0.00    +0.149 HD
ENDROOT
BRANCH   9   5
ATOM      5  N   UNL     1      -4.695  -8.734   8.785  0.00  0.00    -0.308 NA
ATOM     35  H   UNL     1      -4.553  -7.758   8.521  0.00  0.00    +0.123 HD
BRANCH   5  17
ATOM     17  C   UNL     1      -6.029  -9.148   8.371  0.00  0.00    +0.116 C 
BRANCH  17  19
ATOM     19  C   UNL     1      -6.004  -9.927   7.088  0.00  0.00    -0.033 A 
ATOM     20  C   UNL     1      -7.048  -9.798   6.172  0.00  0.00    +0.007 A 
ATOM     21  C   UNL     1      -4.935 -10.780   6.810  0.00  0.00    +0.007 A 
ATOM     23  C   UNL     1      -7.025 -10.522   4.980  0.00  0.00    +0.023 A 
ATOM     24  C   UNL     1      -4.912 -11.504   5.618  0.00  0.00    +0.023 A 
ATOM     25  C   UNL     1      -5.956 -11.375   4.704  0.00  0.00    +0.029 A 
BRANCH  25   7
ATOM      7  N   UNL     1      -5.932 -12.106   3.498  0.00  0.00    -0.336 N 
ATOM     29  C   UNL     1      -4.778 -12.909   3.149  0.00  0.00    +0.129 C 
ATOM     30  C   UNL     1      -7.066 -12.070   2.596  0.00  0.00    +0.129 C 
ENDBRANCH  25   7
ENDBRANCH  17  19
ENDBRANCH   5  17
ENDBRANCH   9   5
BRANCH  11  15
ATOM     15  C   UNL     1      -2.266 -11.659  12.729  0.00  0.00    +0.029 C 
BRANCH  15  16
ATOM     16  C   UNL     1      -1.754 -12.308  14.007  0.00  0.00    +0.097 C 
BRANCH  16  18
ATOM      2  O   UNL     1      -1.165 -10.408  15.388  0.00  0.00    -0.276 OA
ATOM      6  N   UNL     1      -2.901 -11.796  16.058  0.00  0.00    -0.311 N 
ATOM     18  C   UNL     1      -1.883 -11.388  15.208  0.00  0.00    +0.213 C 
ATOM     36  H   UNL     1      -3.431 -12.637  15.849  0.00  0.00    +0.149 HD
BRANCH   6  22
ATOM     22  C   UNL     1      -3.222 -11.086  17.272  0.00  0.00    +0.139 C 
BRANCH  22  26
ATOM     26  C   UNL     1      -4.644 -10.604  17.282  0.00  0.00    -0.030 A 
ATOM     27  C   UNL     1      -5.204 -10.062  16.126  0.00  0.00    +0.005 A 
ATOM     28  C   UNL     1      -5.405 -10.698  18.448  0.00  0.00    +0.005 A 
ATOM     31  C   UNL     1      -6.525  -9.614  16.134  0.00  0.00    +0.000 A 
ATOM     32  C   UNL     1      -6.726 -10.250  18.456  0.00  0.00    +0.000 A 
ATOM     33  C   UNL     1      -7.286  -9.709  17.299  0.00  0.00    +0.000 A 
ENDBRANCH  22  26
ENDBRANCH   6  22
ENDBRANCH  16  18
ENDBRANCH  15  16
ENDBRANCH  11  15
TORSDOF 9
ENDMDL
MODEL 10
REMARK VINA RESULT:      -6.5     21.469     25.013
REMARK  Name = 45360674
REMARK  11 active torsions:
REMARK  status: ('A' for Active; 'I' for Inactive)
REMARK    1  A    between atoms: N_5  and  C_9
REMARK    2  A    between atoms: N_5  and  C_17
REMARK    3  A    between atoms: N_6  and  C_22
REMARK    4  A    between atoms: N_7  and  C_25
REMARK    5  A    between atoms: N_7  and  C_29
REMARK    6  A    between atoms: N_7  and  C_30
REMARK    7  A    between atoms: C_11  and  C_15
REMARK    8  A    between atoms: C_15  and  C_16
REMARK    9  A    between atoms: C_16  and  C_18
REMARK   10  A    between atoms: C_17  and  C_19
REMARK   11  A    between atoms: C_22  and  C_26
REMARK                            x       y       z     vdW  Elec       q    Type
REMARK                         _______ _______ _______ _____ _____    ______ ____
ROOT
ATOM      1  O   UNL     1      -3.898 -14.878  12.824  0.00  0.00    -0.274 OA
ATOM      3  N   UNL     1      -2.663 -11.466  12.424  0.00  0.00    -0.286 NA
ATOM      4  N   UNL     1      -4.907 -13.065  11.893  0.00  0.00    -0.313 N 
ATOM      8  C   UNL     1      -2.530 -12.917  12.619  0.00  0.00    +0.145 C 
ATOM      9  C   UNL     1      -1.859 -11.633  14.568  0.00  0.00    +0.070 C 
ATOM     10  C   UNL     1      -1.961 -13.064  14.039  0.00  0.00    +0.048 C 
ATOM     11  C   UNL     1      -3.565 -11.086  11.345  0.00  0.00    +0.075 C 
ATOM     12  C   UNL     1      -2.888 -10.874  13.741  0.00  0.00    +0.104 C 
ATOM     13  C   UNL     1      -4.956 -11.657  11.575  0.00  0.00    +0.123 C 
ATOM     14  C   UNL     1      -3.835 -13.694  12.479  0.00  0.00    +0.230 C 
ATOM     34  H   UNL     1      -5.763 -13.601  11.786  0.00  0.00    +0.149 HD
ENDROOT
BRANCH   9   5
ATOM      5  N   UNL     1      -2.082 -11.537  16.001  0.00  0.00    -0.308 NA
ATOM     35  H   UNL     1      -2.587 -12.366  16.315  0.00  0.00    +0.123 HD
BRANCH   5  17
ATOM     17  C   UNL     1      -2.863 -10.351  16.330  0.00  0.00    +0.116 C 
BRANCH  17  19
ATOM     19  C   UNL     1      -4.154 -10.700  17.013  0.00  0.00    -0.033 A 
ATOM     20  C   UNL     1      -5.361 -10.202  16.520  0.00  0.00    +0.007 A 
ATOM     21  C   UNL     1      -4.148 -11.522  18.140  0.00  0.00    +0.007 A 
ATOM     23  C   UNL     1      -6.560 -10.524  17.153  0.00  0.00    +0.023 A 
ATOM     24  C   UNL     1      -5.348 -11.845  18.773  0.00  0.00    +0.023 A 
ATOM     25  C   UNL     1      -6.553 -11.346  18.281  0.00  0.00    +0.029 A 
BRANCH  25   7
ATOM      7  N   UNL     1      -7.767 -11.674  18.921  0.00  0.00    -0.336 N 
ATOM     29  C   UNL     1      -7.904 -12.926  19.637  0.00  0.00    +0.129 C 
ATOM     30  C   UNL     1      -8.889 -10.758  18.878  0.00  0.00    +0.129 C 
ENDBRANCH  25   7
ENDBRANCH  17  19
ENDBRANCH   5  17
ENDBRANCH   9   5
BRANCH  11  15
ATOM     15  C   UNL     1      -3.623  -9.574  11.125  0.00  0.00    +0.029 C 
BRANCH  15  16
ATOM     16  C   UNL     1      -3.578  -9.232   9.642  0.00  0.00    +0.097 C 
BRANCH  16  18
ATOM      2  O   UNL     1      -5.923  -8.629   9.660  0.00  0.00    -0.276 OA
ATOM      6  N   UNL     1      -5.008  -9.547   7.734  0.00  0.00    -0.311 N 
ATOM     18  C   UNL     1      -4.967  -9.091   9.045  0.00  0.00    +0.213 C 
ATOM     36  H   UNL     1      -4.176  -9.941   7.307  0.00  0.00    +0.149 HD
BRANCH   6  22
ATOM     22  C   UNL     1      -6.217  -9.521   6.947  0.00  0.00    +0.139 C 
BRANCH  22  26
ATOM     26  C   UNL     1      -6.118 -10.403   5.736  0.00  0.00    -0.030 A 
ATOM     27  C   UNL     1      -7.064 -10.295   4.716  0.00  0.00    +0.005 A 
ATOM     28  C   UNL     1      -5.081 -11.330   5.630  0.00  0.00    +0.005 A 
ATOM     31  C   UNL     1      -6.972 -11.113   3.590  0.00  0.00    +0.000 A 
ATOM     32  C   UNL     1      -4.989 -12.148   4.504  0.00  0.00    +0.000 A 
ATOM     33  C   UNL     1      -5.934 -12.040   3.484  0.00  0.00    +0.000 A 
ENDBRANCH  22  26
ENDBRANCH   6  22
ENDBRANCH  16  18
ENDBRANCH  15  16
ENDBRANCH  11  15
TORSDOF 9
ENDMDL
