MODEL 1
REMARK VINA RESULT:      -7.2      0.000      0.000
REMARK  Name = 7050208
REMARK  11 active torsions:
REMARK  status: ('A' for Active; 'I' for Inactive)
REMARK    1  A    between atoms: O_3  and  C_13
REMARK    2  A    between atoms: O_4  and  C_16
REMARK    3  A    between atoms: O_5  and  C_18
REMARK    4  A    between atoms: O_9  and  C_35
REMARK    5  A    between atoms: N_10  and  C_14
REMARK    6  A    between atoms: N_11  and  C_20
REMARK    7  A    between atoms: C_13  and  C_19
REMARK    8  A    between atoms: C_20  and  C_22
REMARK    9  A    between atoms: C_20  and  C_24
REMARK   10  A    between atoms: C_21  and  C_23
REMARK   11  A    between atoms: C_22  and  C_25
REMARK                            x       y       z     vdW  Elec       q    Type
REMARK                         _______ _______ _______ _____ _____    ______ ____
ROOT
ATOM     13  C   UNL     1      12.909   7.655  19.761  0.00  0.00    +0.146 C 
ATOM     14  C   UNL     1      11.192   8.658  21.343  0.00  0.00    +0.107 C 
ATOM     15  C   UNL     1      12.602   8.777  20.754  0.00  0.00    +0.069 C 
ATOM     16  C   UNL     1      10.942   7.272  21.953  0.00  0.00    +0.163 C 
ATOM     17  C   UNL     1      12.676   6.281  20.387  0.00  0.00    +0.078 C 
ATOM     18  C   UNL     1      11.269   6.145  20.970  0.00  0.00    +0.148 C 
ENDROOT
BRANCH  13  19
ATOM      6  O   UNL     1      14.600   7.611  18.075  0.00  0.00    -0.273 OA
ATOM     11  N   UNL     1      15.219   8.024  20.281  0.00  0.00    -0.301 N 
ATOM     19  C   UNL     1      14.319   7.764  19.261  0.00  0.00    +0.246 C 
ATOM     40  H   UNL     1      14.898   8.043  21.243  0.00  0.00    +0.150 HD
BRANCH  11  20
ATOM     20  C   UNL     1      16.642   8.153  20.067  0.00  0.00    +0.163 C 
BRANCH  20  24
ATOM      8  O   UNL     1      17.592   6.385  21.437  0.00  0.00    -0.274 OA
ATOM     12  N   UNL     1      17.358   6.021  19.181  0.00  0.00    -0.328 N 
ATOM     24  C   UNL     1      17.259   6.786  20.324  0.00  0.00    +0.231 C 
ATOM     41  H   UNL     1      17.739   5.081  19.215  0.00  0.00    +0.145 HD
ATOM     42  H   UNL     1      17.076   6.364  18.268  0.00  0.00    +0.145 HD
ENDBRANCH  20  24
BRANCH  20  22
ATOM     22  C   UNL     1      17.274   9.205  20.986  0.00  0.00    +0.067 C 
BRANCH  22  25
ATOM     25  C   UNL     1      16.370  10.391  21.222  0.00  0.00    -0.045 A 
ATOM     28  C   UNL     1      16.177  11.333  20.213  0.00  0.00    +0.007 A 
ATOM     29  C   UNL     1      15.728  10.544  22.452  0.00  0.00    +0.007 A 
ATOM     33  C   UNL     1      15.343  12.430  20.433  0.00  0.00    +0.045 A 
ATOM     34  C   UNL     1      14.894  11.639  22.671  0.00  0.00    +0.045 A 
ATOM     35  C   UNL     1      14.701  12.582  21.662  0.00  0.00    +0.117 A 
BRANCH  35   9
ATOM      9  O   UNL     1      13.886  13.651  21.876  0.00  0.00    -0.507 OA
ATOM     43  H   UNL     1      14.182  14.119  22.676  0.00  0.00    +0.292 HD
ENDBRANCH  35   9
ENDBRANCH  22  25
ENDBRANCH  20  22
ENDBRANCH  11  20
ENDBRANCH  13  19
BRANCH  14  10
ATOM      7  O   UNL     1      11.658  11.470  21.001  0.00  0.00    -0.270 OA
ATOM     10  N   UNL     1      10.985   9.694  22.331  0.00  0.00    -0.306 N 
ATOM     21  C   UNL     1      11.241  11.030  22.069  0.00  0.00    +0.244 C 
ATOM     36  H   UNL     1      10.751   9.392  23.271  0.00  0.00    +0.149 HD
BRANCH  21  23
ATOM      1 CL   UNL     1       9.374  15.578  23.740  0.00  0.00    -0.081 Cl
ATOM      2  F   UNL     1      10.348  14.555  26.348  0.00  0.00    -0.204 F 
ATOM     23  C   UNL     1      11.004  11.967  23.197  0.00  0.00    +0.038 A 
ATOM     26  C   UNL     1      10.375  13.191  22.969  0.00  0.00    +0.036 A 
ATOM     27  C   UNL     1      11.409  11.620  24.487  0.00  0.00    +0.016 A 
ATOM     30  C   UNL     1      10.151  14.068  24.029  0.00  0.00    +0.077 A 
ATOM     31  C   UNL     1      11.185  12.499  25.547  0.00  0.00    +0.040 A 
ATOM     32  C   UNL     1      10.556  13.723  25.319  0.00  0.00    +0.142 A 
ENDBRANCH  21  23
ENDBRANCH  14  10
BRANCH  13   3
ATOM      3  O   UNL     1      12.096   7.781  18.601  0.00  0.00    -0.379 OA
ATOM     37  H   UNL     1      11.531   6.992  18.533  0.00  0.00    +0.211 HD
ENDBRANCH  13   3
BRANCH  16   4
ATOM      4  O   UNL     1       9.560   7.156  22.300  0.00  0.00    -0.387 OA
ATOM     38  H   UNL     1       9.395   7.721  23.075  0.00  0.00    +0.210 HD
ENDBRANCH  16   4
BRANCH  18   5
ATOM      5  O   UNL     1      11.175   4.900  21.663  0.00  0.00    -0.389 OA
ATOM     39  H   UNL     1      10.500   4.364  21.212  0.00  0.00    +0.210 HD
ENDBRANCH  18   5
TORSDOF 11
ENDMDL
MODEL 2
REMARK VINA RESULT:      -7.2      4.061      7.355
REMARK  Name = 7050208
REMARK  11 active torsions:
REMARK  status: ('A' for Active; 'I' for Inactive)
REMARK    1  A    between atoms: O_3  and  C_13
REMARK    2  A    between atoms: O_4  and  C_16
REMARK    3  A    between atoms: O_5  and  C_18
REMARK    4  A    between atoms: O_9  and  C_35
REMARK    5  A    between atoms: N_10  and  C_14
REMARK    6  A    between atoms: N_11  and  C_20
REMARK    7  A    between atoms: C_13  and  C_19
REMARK    8  A    between atoms: C_20  and  C_22
REMARK    9  A    between atoms: C_20  and  C_24
REMARK   10  A    between atoms: C_21  and  C_23
REMARK   11  A    between atoms: C_22  and  C_25
REMARK                            x       y       z     vdW  Elec       q    Type
REMARK                         _______ _______ _______ _____ _____    ______ ____
ROOT
ATOM     13  C   UNL     1      11.881   9.575  22.258  0.00  0.00    +0.146 C 
ATOM     14  C   UNL     1      13.164   7.521  21.488  0.00  0.00    +0.107 C 
ATOM     15  C   UNL     1      13.254   8.916  22.116  0.00  0.00    +0.069 C 
ATOM     16  C   UNL     1      12.401   7.542  20.157  0.00  0.00    +0.163 C 
ATOM     17  C   UNL     1      11.141   9.608  20.922  0.00  0.00    +0.078 C 
ATOM     18  C   UNL     1      11.035   8.220  20.288  0.00  0.00    +0.148 C 
ENDROOT
BRANCH  13  19
ATOM      6  O   UNL     1      12.057  11.181  24.018  0.00  0.00    -0.273 OA
ATOM     11  N   UNL     1      12.062  11.922  21.810  0.00  0.00    -0.301 N 
ATOM     19  C   UNL     1      12.016  10.964  22.809  0.00  0.00    +0.246 C 
ATOM     40  H   UNL     1      11.930  11.649  20.843  0.00  0.00    +0.150 HD
BRANCH  11  20
ATOM     20  C   UNL     1      12.167  13.338  22.078  0.00  0.00    +0.163 C 
BRANCH  20  24
ATOM      8  O   UNL     1      11.045  14.575  20.312  0.00  0.00    -0.274 OA
ATOM     12  N   UNL     1       9.812  13.878  22.121  0.00  0.00    -0.328 N 
ATOM     24  C   UNL     1      10.981  14.011  21.403  0.00  0.00    +0.231 C 
ATOM     41  H   UNL     1       8.941  14.269  21.775  0.00  0.00    +0.145 HD
ATOM     42  H   UNL     1       9.773  13.407  23.019  0.00  0.00    +0.145 HD
ENDBRANCH  20  24
BRANCH  20  22
ATOM     22  C   UNL     1      13.483  13.930  21.559  0.00  0.00    +0.067 C 
BRANCH  22  25
ATOM     25  C   UNL     1      14.678  13.067  21.882  0.00  0.00    -0.045 A 
ATOM     28  C   UNL     1      15.303  12.335  20.873  0.00  0.00    +0.007 A 
ATOM     29  C   UNL     1      15.157  13.000  23.191  0.00  0.00    +0.007 A 
ATOM     33  C   UNL     1      16.407  11.535  21.172  0.00  0.00    +0.045 A 
ATOM     34  C   UNL     1      16.261  12.202  23.490  0.00  0.00    +0.045 A 
ATOM     35  C   UNL     1      16.886  11.469  22.480  0.00  0.00    +0.117 A 
BRANCH  35   9
ATOM      9  O   UNL     1      17.964  10.690  22.771  0.00  0.00    -0.507 OA
ATOM     43  H   UNL     1      18.775  11.182  22.557  0.00  0.00    +0.292 HD
ENDBRANCH  35   9
ENDBRANCH  22  25
ENDBRANCH  20  22
ENDBRANCH  11  20
ENDBRANCH  13  19
BRANCH  14  10
ATOM      7  O   UNL     1      15.229   8.584  19.802  0.00  0.00    -0.270 OA
ATOM     10  N   UNL     1      14.493   6.980  21.305  0.00  0.00    -0.306 N 
ATOM     21  C   UNL     1      15.423   7.570  20.465  0.00  0.00    +0.244 C 
ATOM     36  H   UNL     1      14.685   6.080  21.732  0.00  0.00    +0.149 HD
BRANCH  21  23
ATOM      1 CL   UNL     1      20.105   6.622  22.500  0.00  0.00    -0.081 Cl
ATOM      2  F   UNL     1      20.369   4.938  20.073  0.00  0.00    -0.204 F 
ATOM     23  C   UNL     1      16.734   6.877  20.365  0.00  0.00    +0.038 A 
ATOM     26  C   UNL     1      17.694   7.053  21.361  0.00  0.00    +0.036 A 
ATOM     27  C   UNL     1      17.002   6.048  19.275  0.00  0.00    +0.016 A 
ATOM     30  C   UNL     1      18.923   6.401  21.267  0.00  0.00    +0.077 A 
ATOM     31  C   UNL     1      18.232   5.396  19.182  0.00  0.00    +0.040 A 
ATOM     32  C   UNL     1      19.193   5.572  20.178  0.00  0.00    +0.142 A 
ENDBRANCH  21  23
ENDBRANCH  14  10
BRANCH  13   3
ATOM      3  O   UNL     1      11.090   8.876  23.211  0.00  0.00    -0.379 OA
ATOM     37  H   UNL     1      10.830   8.020  22.827  0.00  0.00    +0.211 HD
ENDBRANCH  13   3
BRANCH  16   4
ATOM      4  O   UNL     1      12.176   6.197  19.725  0.00  0.00    -0.387 OA
ATOM     38  H   UNL     1      12.497   5.599  20.423  0.00  0.00    +0.210 HD
ENDBRANCH  16   4
BRANCH  18   5
ATOM      5  O   UNL     1      10.468   8.351  18.984  0.00  0.00    -0.389 OA
ATOM     39  H   UNL     1       9.753   9.009  19.041  0.00  0.00    +0.210 HD
ENDBRANCH  18   5
TORSDOF 11
ENDMDL
MODEL 3
REMARK VINA RESULT:      -7.1      5.109      8.899
REMARK  Name = 7050208
REMARK  11 active torsions:
REMARK  status: ('A' for Active; 'I' for Inactive)
REMARK    1  A    between atoms: O_3  and  C_13
REMARK    2  A    between atoms: O_4  and  C_16
REMARK    3  A    between atoms: O_5  and  C_18
REMARK    4  A    between atoms: O_9  and  C_35
REMARK    5  A    between atoms: N_10  and  C_14
REMARK    6  A    between atoms: N_11  and  C_20
REMARK    7  A    between atoms: C_13  and  C_19
REMARK    8  A    between atoms: C_20  and  C_22
REMARK    9  A    between atoms: C_20  and  C_24
REMARK   10  A    between atoms: C_21  and  C_23
REMARK   11  A    between atoms: C_22  and  C_25
REMARK                            x       y       z     vdW  Elec       q    Type
REMARK                         _______ _______ _______ _____ _____    ______ ____
ROOT
ATOM     13  C   UNL     1      16.042   7.246  21.404  0.00  0.00    +0.146 C 
ATOM     14  C   UNL     1      18.516   6.731  21.142  0.00  0.00    +0.107 C 
ATOM     15  C   UNL     1      17.471   7.757  21.595  0.00  0.00    +0.069 C 
ATOM     16  C   UNL     1      18.266   6.257  19.704  0.00  0.00    +0.163 C 
ATOM     17  C   UNL     1      15.800   6.797  19.964  0.00  0.00    +0.078 C 
ATOM     18  C   UNL     1      16.831   5.765  19.503  0.00  0.00    +0.148 C 
ENDROOT
BRANCH  13  19
ATOM      6  O   UNL     1      15.394   9.359  22.312  0.00  0.00    -0.273 OA
ATOM     11  N   UNL     1      13.745   7.923  21.511  0.00  0.00    -0.301 N 
ATOM     19  C   UNL     1      15.048   8.302  21.791  0.00  0.00    +0.246 C 
ATOM     40  H   UNL     1      13.555   6.990  21.163  0.00  0.00    +0.150 HD
BRANCH  11  20
ATOM     20  C   UNL     1      12.600   8.752  21.809  0.00  0.00    +0.163 C 
BRANCH  20  24
ATOM      8  O   UNL     1      11.422   6.637  21.587  0.00  0.00    -0.274 OA
ATOM     12  N   UNL     1      10.205   8.531  22.048  0.00  0.00    -0.328 N 
ATOM     24  C   UNL     1      11.374   7.850  21.781  0.00  0.00    +0.231 C 
ATOM     41  H   UNL     1       9.315   8.044  22.075  0.00  0.00    +0.145 HD
ATOM     42  H   UNL     1      10.180   9.532  22.210  0.00  0.00    +0.145 HD
ENDBRANCH  20  24
BRANCH  20  22
ATOM     22  C   UNL     1      12.440   9.901  20.807  0.00  0.00    +0.067 C 
BRANCH  22  25
ATOM     25  C   UNL     1      12.743   9.484  19.388  0.00  0.00    -0.045 A 
ATOM     28  C   UNL     1      11.832   8.698  18.682  0.00  0.00    +0.007 A 
ATOM     29  C   UNL     1      13.935   9.884  18.783  0.00  0.00    +0.007 A 
ATOM     33  C   UNL     1      12.114   8.311  17.371  0.00  0.00    +0.045 A 
ATOM     34  C   UNL     1      14.216   9.498  17.472  0.00  0.00    +0.045 A 
ATOM     35  C   UNL     1      13.305   8.712  16.767  0.00  0.00    +0.117 A 
BRANCH  35   9
ATOM      9  O   UNL     1      13.579   8.335  15.487  0.00  0.00    -0.507 OA
ATOM     43  H   UNL     1      14.154   7.551  15.506  0.00  0.00    +0.292 HD
ENDBRANCH  35   9
ENDBRANCH  22  25
ENDBRANCH  20  22
ENDBRANCH  11  20
ENDBRANCH  13  19
BRANCH  14  10
ATOM      7  O   UNL     1      20.565   5.898  22.972  0.00  0.00    -0.270 OA
ATOM     10  N   UNL     1      19.842   7.295  21.269  0.00  0.00    -0.306 N 
ATOM     21  C   UNL     1      20.764   6.821  22.187  0.00  0.00    +0.244 C 
ATOM     36  H   UNL     1      20.037   8.134  20.733  0.00  0.00    +0.149 HD
BRANCH  21  23
ATOM      1 CL   UNL     1      23.820  10.567  20.292  0.00  0.00    -0.081 Cl
ATOM      2  F   UNL     1      25.712   9.475  22.298  0.00  0.00    -0.204 F 
ATOM     23  C   UNL     1      22.072   7.525  22.212  0.00  0.00    +0.038 A 
ATOM     26  C   UNL     1      22.308   8.590  21.343  0.00  0.00    +0.036 A 
ATOM     27  C   UNL     1      23.064   7.121  23.106  0.00  0.00    +0.016 A 
ATOM     30  C   UNL     1      23.535   9.252  21.368  0.00  0.00    +0.077 A 
ATOM     31  C   UNL     1      24.292   7.784  23.131  0.00  0.00    +0.040 A 
ATOM     32  C   UNL     1      24.528   8.849  22.262  0.00  0.00    +0.142 A 
ENDBRANCH  21  23
ENDBRANCH  14  10
BRANCH  13   3
ATOM      3  O   UNL     1      15.781   6.157  22.281  0.00  0.00    -0.379 OA
ATOM     37  H   UNL     1      15.131   6.445  22.946  0.00  0.00    +0.211 HD
ENDBRANCH  13   3
BRANCH  16   4
ATOM      4  O   UNL     1      19.142   5.165  19.414  0.00  0.00    -0.387 OA
ATOM     38  H   UNL     1      19.402   4.754  20.256  0.00  0.00    +0.210 HD
ENDBRANCH  16   4
BRANCH  18   5
ATOM      5  O   UNL     1      16.632   5.506  18.113  0.00  0.00    -0.389 OA
ATOM     39  H   UNL     1      17.405   5.008  17.795  0.00  0.00    +0.210 HD
ENDBRANCH  18   5
TORSDOF 11
ENDMDL
MODEL 4
REMARK VINA RESULT:      -7.0      4.467      7.862
REMARK  Name = 7050208
REMARK  11 active torsions:
REMARK  status: ('A' for Active; 'I' for Inactive)
REMARK    1  A    between atoms: O_3  and  C_13
REMARK    2  A    between atoms: O_4  and  C_16
REMARK    3  A    between atoms: O_5  and  C_18
REMARK    4  A    between atoms: O_9  and  C_35
REMARK    5  A    between atoms: N_10  and  C_14
REMARK    6  A    between atoms: N_11  and  C_20
REMARK    7  A    between atoms: C_13  and  C_19
REMARK    8  A    between atoms: C_20  and  C_22
REMARK    9  A    between atoms: C_20  and  C_24
REMARK   10  A    between atoms: C_21  and  C_23
REMARK   11  A    between atoms: C_22  and  C_25
REMARK                            x       y       z     vdW  Elec       q    Type
REMARK                         _______ _______ _______ _____ _____    ______ ____
ROOT
ATOM     13  C   UNL     1      15.375   7.005  20.429  0.00  0.00    +0.146 C 
ATOM     14  C   UNL     1      17.768   7.033  21.284  0.00  0.00    +0.107 C 
ATOM     15  C   UNL     1      16.454   7.811  21.155  0.00  0.00    +0.069 C 
ATOM     16  C   UNL     1      18.260   6.513  19.926  0.00  0.00    +0.163 C 
ATOM     17  C   UNL     1      15.870   6.512  19.071  0.00  0.00    +0.078 C 
ATOM     18  C   UNL     1      17.177   5.724  19.186  0.00  0.00    +0.148 C 
ENDROOT
BRANCH  13  19
ATOM      6  O   UNL     1      13.861   8.386  19.200  0.00  0.00    -0.273 OA
ATOM     11  N   UNL     1      13.372   7.872  21.418  0.00  0.00    -0.301 N 
ATOM     19  C   UNL     1      14.129   7.824  20.259  0.00  0.00    +0.246 C 
ATOM     40  H   UNL     1      13.724   7.448  22.269  0.00  0.00    +0.150 HD
BRANCH  11  20
ATOM     20  C   UNL     1      12.136   8.614  21.524  0.00  0.00    +0.163 C 
BRANCH  20  24
ATOM      8  O   UNL     1      10.554   8.353  19.698  0.00  0.00    -0.274 OA
ATOM     12  N   UNL     1      10.866   6.594  21.142  0.00  0.00    -0.328 N 
ATOM     24  C   UNL     1      11.097   7.877  20.693  0.00  0.00    +0.231 C 
ATOM     41  H   UNL     1      10.205   5.987  20.667  0.00  0.00    +0.145 HD
ATOM     42  H   UNL     1      11.324   6.212  21.963  0.00  0.00    +0.145 HD
ENDBRANCH  20  24
BRANCH  20  22
ATOM     22  C   UNL     1      12.284  10.059  21.034  0.00  0.00    +0.067 C 
BRANCH  22  25
ATOM     25  C   UNL     1      11.684  11.063  21.990  0.00  0.00    -0.045 A 
ATOM     28  C   UNL     1      11.364  10.681  23.292  0.00  0.00    +0.007 A 
ATOM     29  C   UNL     1      11.449  12.373  21.568  0.00  0.00    +0.007 A 
ATOM     33  C   UNL     1      10.809  11.609  24.174  0.00  0.00    +0.045 A 
ATOM     34  C   UNL     1      10.895  13.300  22.450  0.00  0.00    +0.045 A 
ATOM     35  C   UNL     1      10.575  12.918  23.754  0.00  0.00    +0.117 A 
BRANCH  35   9
ATOM      9  O   UNL     1      10.034  13.823  24.615  0.00  0.00    -0.507 OA
ATOM     43  H   UNL     1       9.095  13.946  24.393  0.00  0.00    +0.292 HD
ENDBRANCH  35   9
ENDBRANCH  22  25
ENDBRANCH  20  22
ENDBRANCH  11  20
ENDBRANCH  13  19
BRANCH  14  10
ATOM      7  O   UNL     1      19.828   6.182  23.093  0.00  0.00    -0.270 OA
ATOM     10  N   UNL     1      18.773   7.869  21.904  0.00  0.00    -0.306 N 
ATOM     21  C   UNL     1      19.729   7.361  22.767  0.00  0.00    +0.244 C 
ATOM     36  H   UNL     1      18.682   8.871  21.770  0.00  0.00    +0.149 HD
BRANCH  21  23
ATOM      1 CL   UNL     1      23.348  11.003  21.993  0.00  0.00    -0.081 Cl
ATOM      2  F   UNL     1      23.287  11.115  24.956  0.00  0.00    -0.204 F 
ATOM     23  C   UNL     1      20.674   8.354  23.341  0.00  0.00    +0.038 A 
ATOM     26  C   UNL     1      21.476   9.123  22.499  0.00  0.00    +0.036 A 
ATOM     27  C   UNL     1      20.755   8.519  24.724  0.00  0.00    +0.016 A 
ATOM     30  C   UNL     1      22.360  10.057  23.039  0.00  0.00    +0.077 A 
ATOM     31  C   UNL     1      21.640   9.453  25.264  0.00  0.00    +0.040 A 
ATOM     32  C   UNL     1      22.443  10.222  24.421  0.00  0.00    +0.142 A 
ENDBRANCH  21  23
ENDBRANCH  14  10
BRANCH  13   3
ATOM      3  O   UNL     1      14.977   5.888  21.213  0.00  0.00    -0.379 OA
ATOM     37  H   UNL     1      15.452   5.101  20.893  0.00  0.00    +0.211 HD
ENDBRANCH  13   3
BRANCH  16   4
ATOM      4  O   UNL     1      19.368   5.634  20.136  0.00  0.00    -0.387 OA
ATOM     38  H   UNL     1      19.580   5.208  19.288  0.00  0.00    +0.210 HD
ENDBRANCH  16   4
BRANCH  18   5
ATOM      5  O   UNL     1      17.652   5.426  17.874  0.00  0.00    -0.389 OA
ATOM     39  H   UNL     1      17.547   4.469  17.735  0.00  0.00    +0.210 HD
ENDBRANCH  18   5
TORSDOF 11
ENDMDL
MODEL 5
REMARK VINA RESULT:      -6.9     26.500     29.461
REMARK  Name = 7050208
REMARK  11 active torsions:
REMARK  status: ('A' for Active; 'I' for Inactive)
REMARK    1  A    between atoms: O_3  and  C_13
REMARK    2  A    between atoms: O_4  and  C_16
REMARK    3  A    between atoms: O_5  and  C_18
REMARK    4  A    between atoms: O_9  and  C_35
REMARK    5  A    between atoms: N_10  and  C_14
REMARK    6  A    between atoms: N_11  and  C_20
REMARK    7  A    between atoms: C_13  and  C_19
REMARK    8  A    between atoms: C_20  and  C_22
REMARK    9  A    between atoms: C_20  and  C_24
REMARK   10  A    between atoms: C_21  and  C_23
REMARK   11  A    between atoms: C_22  and  C_25
REMARK                            x       y       z     vdW  Elec       q    Type
REMARK                         _______ _______ _______ _____ _____    ______ ____
ROOT
ATOM     13  C   UNL     1      -5.811 -12.344  17.208  0.00  0.00    +0.146 C 
ATOM     14  C   UNL     1      -7.874 -10.942  17.692  0.00  0.00    +0.107 C 
ATOM     15  C   UNL     1      -6.749 -11.249  16.697  0.00  0.00    +0.069 C 
ATOM     16  C   UNL     1      -7.328 -10.620  19.090  0.00  0.00    +0.163 C 
ATOM     17  C   UNL     1      -5.258 -12.002  18.590  0.00  0.00    +0.078 C 
ATOM     18  C   UNL     1      -6.371 -11.702  19.596  0.00  0.00    +0.148 C 
ENDROOT
BRANCH  13  19
ATOM      6  O   UNL     1      -4.426 -13.681  15.792  0.00  0.00    -0.273 OA
ATOM     11  N   UNL     1      -3.997 -11.399  15.959  0.00  0.00    -0.301 N 
ATOM     19  C   UNL     1      -4.685 -12.567  16.241  0.00  0.00    +0.246 C 
ATOM     40  H   UNL     1      -4.232 -10.544  16.451  0.00  0.00    +0.150 HD
BRANCH  11  20
ATOM     20  C   UNL     1      -2.855 -11.347  15.074  0.00  0.00    +0.163 C 
BRANCH  20  24
ATOM      8  O   UNL     1      -0.865  -9.990  15.388  0.00  0.00    -0.274 OA
ATOM     12  N   UNL     1      -1.719 -11.122  17.195  0.00  0.00    -0.328 N 
ATOM     24  C   UNL     1      -1.700 -10.754  15.867  0.00  0.00    +0.231 C 
ATOM     41  H   UNL     1      -1.011 -10.782  17.839  0.00  0.00    +0.145 HD
ATOM     42  H   UNL     1      -2.417 -11.751  17.578  0.00  0.00    +0.145 HD
ENDBRANCH  20  24
BRANCH  20  22
ATOM     22  C   UNL     1      -3.130 -10.508  13.821  0.00  0.00    +0.067 C 
BRANCH  22  25
ATOM     25  C   UNL     1      -3.311 -11.351  12.582  0.00  0.00    -0.045 A 
ATOM     28  C   UNL     1      -3.653 -10.749  11.372  0.00  0.00    +0.007 A 
ATOM     29  C   UNL     1      -3.137 -12.734  12.649  0.00  0.00    +0.007 A 
ATOM     33  C   UNL     1      -3.821 -11.529  10.228  0.00  0.00    +0.045 A 
ATOM     34  C   UNL     1      -3.304 -13.514  11.505  0.00  0.00    +0.045 A 
ATOM     35  C   UNL     1      -3.647 -12.911  10.294  0.00  0.00    +0.117 A 
BRANCH  35   9
ATOM      9  O   UNL     1      -3.810 -13.672   9.177  0.00  0.00    -0.507 OA
ATOM     43  H   UNL     1      -3.242 -13.319   8.470  0.00  0.00    +0.292 HD
ENDBRANCH  35   9
ENDBRANCH  22  25
ENDBRANCH  20  22
ENDBRANCH  11  20
ENDBRANCH  13  19
BRANCH  14  10
ATOM      7  O   UNL     1     -10.718 -10.655  17.953  0.00  0.00    -0.270 OA
ATOM     10  N   UNL     1      -8.681  -9.849  17.196  0.00  0.00    -0.306 N 
ATOM     21  C   UNL     1     -10.053  -9.801  17.374  0.00  0.00    +0.244 C 
ATOM     36  H   UNL     1      -8.215  -9.165  16.609  0.00  0.00    +0.149 HD
BRANCH  21  23
ATOM      1 CL   UNL     1     -14.492  -7.492  15.985  0.00  0.00    -0.081 Cl
ATOM      2  F   UNL     1     -12.633  -5.341  15.139  0.00  0.00    -0.204 F 
ATOM     23  C   UNL     1     -10.741  -8.624  16.782  0.00  0.00    +0.038 A 
ATOM     26  C   UNL     1     -12.131  -8.610  16.672  0.00  0.00    +0.036 A 
ATOM     27  C   UNL     1      -9.994  -7.533  16.338  0.00  0.00    +0.016 A 
ATOM     30  C   UNL     1     -12.775  -7.504  16.118  0.00  0.00    +0.077 A 
ATOM     31  C   UNL     1     -10.639  -6.426  15.783  0.00  0.00    +0.040 A 
ATOM     32  C   UNL     1     -12.029  -6.412  15.673  0.00  0.00    +0.142 A 
ENDBRANCH  21  23
ENDBRANCH  14  10
BRANCH  13   3
ATOM      3  O   UNL     1      -6.491 -13.591  17.274  0.00  0.00    -0.379 OA
ATOM     37  H   UNL     1      -6.606 -13.928  16.368  0.00  0.00    +0.211 HD
ENDBRANCH  13   3
BRANCH  16   4
ATOM      4  O   UNL     1      -8.418 -10.542  20.011  0.00  0.00    -0.387 OA
ATOM     38  H   UNL     1      -8.656  -9.605  20.119  0.00  0.00    +0.210 HD
ENDBRANCH  16   4
BRANCH  18   5
ATOM      5  O   UNL     1      -5.780 -11.249  20.814  0.00  0.00    -0.389 OA
ATOM     39  H   UNL     1      -5.225 -11.972  21.157  0.00  0.00    +0.210 HD
ENDBRANCH  18   5
TORSDOF 11
ENDMDL
MODEL 6
REMARK VINA RESULT:      -6.9      7.039      9.997
REMARK  Name = 7050208
REMARK  11 active torsions:
REMARK  status: ('A' for Active; 'I' for Inactive)
REMARK    1  A    between atoms: O_3  and  C_13
REMARK    2  A    between atoms: O_4  and  C_16
REMARK    3  A    between atoms: O_5  and  C_18
REMARK    4  A    between atoms: O_9  and  C_35
REMARK    5  A    between atoms: N_10  and  C_14
REMARK    6  A    between atoms: N_11  and  C_20
REMARK    7  A    between atoms: C_13  and  C_19
REMARK    8  A    between atoms: C_20  and  C_22
REMARK    9  A    between atoms: C_20  and  C_24
REMARK   10  A    between atoms: C_21  and  C_23
REMARK   11  A    between atoms: C_22  and  C_25
REMARK                            x       y       z     vdW  Elec       q    Type
REMARK                         _______ _______ _______ _____ _____    ______ ____
ROOT
ATOM     13  C   UNL     1      13.837  10.202  16.374  0.00  0.00    +0.146 C 
ATOM     14  C   UNL     1      14.848  11.791  14.668  0.00  0.00    +0.107 C 
ATOM     15  C   UNL     1      14.812  10.355  15.205  0.00  0.00    +0.069 C 
ATOM     16  C   UNL     1      15.126  12.810  15.781  0.00  0.00    +0.163 C 
ATOM     17  C   UNL     1      14.138  11.207  17.483  0.00  0.00    +0.078 C 
ATOM     18  C   UNL     1      14.168  12.646  16.963  0.00  0.00    +0.148 C 
ENDROOT
BRANCH  13  19
ATOM      6  O   UNL     1      14.015   7.827  16.184  0.00  0.00    -0.273 OA
ATOM     11  N   UNL     1      13.732   8.771  18.294  0.00  0.00    -0.301 N 
ATOM     19  C   UNL     1      13.881   8.803  16.917  0.00  0.00    +0.246 C 
ATOM     40  H   UNL     1      13.536   9.628  18.800  0.00  0.00    +0.150 HD
BRANCH  11  20
ATOM     20  C   UNL     1      13.715   7.545  19.058  0.00  0.00    +0.163 C 
BRANCH  20  24
ATOM      8  O   UNL     1      11.359   8.074  19.331  0.00  0.00    -0.274 OA
ATOM     12  N   UNL     1      12.052   5.914  19.700  0.00  0.00    -0.328 N 
ATOM     24  C   UNL     1      12.261   7.240  19.386  0.00  0.00    +0.231 C 
ATOM     41  H   UNL     1      11.122   5.574  19.924  0.00  0.00    +0.145 HD
ATOM     42  H   UNL     1      12.805   5.236  19.738  0.00  0.00    +0.145 HD
ENDBRANCH  20  24
BRANCH  20  22
ATOM     22  C   UNL     1      14.540   7.654  20.346  0.00  0.00    +0.067 C 
BRANCH  22  25
ATOM     25  C   UNL     1      15.908   7.029  20.217  0.00  0.00    -0.045 A 
ATOM     28  C   UNL     1      16.848   7.190  21.234  0.00  0.00    +0.007 A 
ATOM     29  C   UNL     1      16.232   6.289  19.079  0.00  0.00    +0.007 A 
ATOM     33  C   UNL     1      18.113   6.613  21.114  0.00  0.00    +0.045 A 
ATOM     34  C   UNL     1      17.495   5.711  18.959  0.00  0.00    +0.045 A 
ATOM     35  C   UNL     1      18.436   5.873  19.976  0.00  0.00    +0.117 A 
BRANCH  35   9
ATOM      9  O   UNL     1      19.669   5.309  19.860  0.00  0.00    -0.507 OA
ATOM     43  H   UNL     1      20.162   5.454  20.686  0.00  0.00    +0.292 HD
ENDBRANCH  35   9
ENDBRANCH  22  25
ENDBRANCH  20  22
ENDBRANCH  11  20
ENDBRANCH  13  19
BRANCH  14  10
ATOM      7  O   UNL     1      14.393  12.590  11.949  0.00  0.00    -0.270 OA
ATOM     10  N   UNL     1      15.841  11.896  13.621  0.00  0.00    -0.306 N 
ATOM     21  C   UNL     1      15.520  12.293  12.334  0.00  0.00    +0.244 C 
ATOM     36  H   UNL     1      16.773  11.557  13.837  0.00  0.00    +0.149 HD
BRANCH  21  23
ATOM      1 CL   UNL     1      20.623  11.887  11.460  0.00  0.00    -0.081 Cl
ATOM      2  F   UNL     1      19.773  12.411   8.667  0.00  0.00    -0.204 F 
ATOM     23  C   UNL     1      16.649  12.325  11.368  0.00  0.00    +0.038 A 
ATOM     26  C   UNL     1      17.955  12.117  11.812  0.00  0.00    +0.036 A 
ATOM     27  C   UNL     1      16.402  12.562  10.015  0.00  0.00    +0.016 A 
ATOM     30  C   UNL     1      19.013  12.145  10.904  0.00  0.00    +0.077 A 
ATOM     31  C   UNL     1      17.461  12.590   9.107  0.00  0.00    +0.040 A 
ATOM     32  C   UNL     1      18.766  12.381   9.552  0.00  0.00    +0.142 A 
ENDBRANCH  21  23
ENDBRANCH  14  10
BRANCH  13   3
ATOM      3  O   UNL     1      12.497  10.383  15.932  0.00  0.00    -0.379 OA
ATOM     37  H   UNL     1      12.316   9.737  15.226  0.00  0.00    +0.211 HD
ENDBRANCH  13   3
BRANCH  16   4
ATOM      4  O   UNL     1      14.950  14.130  15.261  0.00  0.00    -0.387 OA
ATOM     38  H   UNL     1      14.466  14.060  14.419  0.00  0.00    +0.210 HD
ENDBRANCH  16   4
BRANCH  18   5
ATOM      5  O   UNL     1      14.598  13.508  18.017  0.00  0.00    -0.389 OA
ATOM     39  H   UNL     1      14.551  14.421  17.685  0.00  0.00    +0.210 HD
ENDBRANCH  18   5
TORSDOF 11
ENDMDL
MODEL 7
REMARK VINA RESULT:      -6.8     28.049     30.342
REMARK  Name = 7050208
REMARK  11 active torsions:
REMARK  status: ('A' for Active; 'I' for Inactive)
REMARK    1  A    between atoms: O_3  and  C_13
REMARK    2  A    between atoms: O_4  and  C_16
REMARK    3  A    between atoms: O_5  and  C_18
REMARK    4  A    between atoms: O_9  and  C_35
REMARK    5  A    between atoms: N_10  and  C_14
REMARK    6  A    between atoms: N_11  and  C_20
REMARK    7  A    between atoms: C_13  and  C_19
REMARK    8  A    between atoms: C_20  and  C_22
REMARK    9  A    between atoms: C_20  and  C_24
REMARK   10  A    between atoms: C_21  and  C_23
REMARK   11  A    between atoms: C_22  and  C_25
REMARK                            x       y       z     vdW  Elec       q    Type
REMARK                         _______ _______ _______ _____ _____    ______ ____
ROOT
ATOM     13  C   UNL     1      -7.090 -10.910  18.861  0.00  0.00    +0.146 C 
ATOM     14  C   UNL     1      -5.449 -10.252  17.035  0.00  0.00    +0.107 C 
ATOM     15  C   UNL     1      -6.923 -10.379  17.436  0.00  0.00    +0.069 C 
ATOM     16  C   UNL     1      -4.684 -11.566  17.248  0.00  0.00    +0.163 C 
ATOM     17  C   UNL     1      -6.341 -12.227  19.053  0.00  0.00    +0.078 C 
ATOM     18  C   UNL     1      -4.866 -12.113  18.666  0.00  0.00    +0.148 C 
ENDROOT
BRANCH  13  19
ATOM      6  O   UNL     1      -8.961 -11.001  20.344  0.00  0.00    -0.273 OA
ATOM     11  N   UNL     1      -9.305 -11.371  18.071  0.00  0.00    -0.301 N 
ATOM     19  C   UNL     1      -8.543 -11.087  19.192  0.00  0.00    +0.246 C 
ATOM     40  H   UNL     1      -8.851 -11.511  17.175  0.00  0.00    +0.150 HD
BRANCH  11  20
ATOM     20  C   UNL     1     -10.729 -11.609  18.123  0.00  0.00    +0.163 C 
BRANCH  20  24
ATOM      8  O   UNL     1     -10.986 -13.873  17.279  0.00  0.00    -0.274 OA
ATOM     12  N   UNL     1     -10.989 -13.540  19.552  0.00  0.00    -0.328 N 
ATOM     24  C   UNL     1     -10.929 -13.112  18.243  0.00  0.00    +0.231 C 
ATOM     41  H   UNL     1     -11.106 -14.524  19.773  0.00  0.00    +0.145 HD
ATOM     42  H   UNL     1     -10.938 -12.901  20.338  0.00  0.00    +0.145 HD
ENDBRANCH  20  24
BRANCH  20  22
ATOM     22  C   UNL     1     -11.452 -11.072  16.881  0.00  0.00    +0.067 C 
BRANCH  22  25
ATOM     25  C   UNL     1     -11.005  -9.680  16.503  0.00  0.00    -0.045 A 
ATOM     28  C   UNL     1     -10.368  -9.459  15.283  0.00  0.00    +0.007 A 
ATOM     29  C   UNL     1     -11.230  -8.614  17.376  0.00  0.00    +0.007 A 
ATOM     33  C   UNL     1      -9.954  -8.173  14.935  0.00  0.00    +0.045 A 
ATOM     34  C   UNL     1     -10.818  -7.329  17.027  0.00  0.00    +0.045 A 
ATOM     35  C   UNL     1     -10.180  -7.108  15.807  0.00  0.00    +0.117 A 
BRANCH  35   9
ATOM      9  O   UNL     1      -9.777  -5.853  15.466  0.00  0.00    -0.507 OA
ATOM     43  H   UNL     1     -10.220  -5.593  14.640  0.00  0.00    +0.292 HD
ENDBRANCH  35   9
ENDBRANCH  22  25
ENDBRANCH  20  22
ENDBRANCH  11  20
ENDBRANCH  13  19
BRANCH  14  10
ATOM      7  O   UNL     1      -6.503 -11.616  14.740  0.00  0.00    -0.270 OA
ATOM     10  N   UNL     1      -5.352  -9.824  15.657  0.00  0.00    -0.306 N 
ATOM     21  C   UNL     1      -5.897 -10.556  14.614  0.00  0.00    +0.244 C 
ATOM     36  H   UNL     1      -4.768  -9.017  15.467  0.00  0.00    +0.149 HD
BRANCH  21  23
ATOM      1 CL   UNL     1      -2.721  -9.757  10.585  0.00  0.00    -0.081 Cl
ATOM      2  F   UNL     1      -5.130  -8.436   9.470  0.00  0.00    -0.204 F 
ATOM     23  C   UNL     1      -5.689  -9.995  13.254  0.00  0.00    +0.038 A 
ATOM     26  C   UNL     1      -4.448 -10.122  12.629  0.00  0.00    +0.036 A 
ATOM     27  C   UNL     1      -6.736  -9.343  12.602  0.00  0.00    +0.016 A 
ATOM     30  C   UNL     1      -4.255  -9.597  11.352  0.00  0.00    +0.077 A 
ATOM     31  C   UNL     1      -6.541  -8.818  11.323  0.00  0.00    +0.040 A 
ATOM     32  C   UNL     1      -5.301  -8.945  10.698  0.00  0.00    +0.142 A 
ENDBRANCH  21  23
ENDBRANCH  14  10
BRANCH  13   3
ATOM      3  O   UNL     1      -6.611  -9.960  19.805  0.00  0.00    -0.379 OA
ATOM     37  H   UNL     1      -6.314 -10.438  20.599  0.00  0.00    +0.211 HD
ENDBRANCH  13   3
BRANCH  16   4
ATOM      4  O   UNL     1      -3.288 -11.330  17.051  0.00  0.00    -0.387 OA
ATOM     38  H   UNL     1      -3.189 -10.707  16.310  0.00  0.00    +0.210 HD
ENDBRANCH  16   4
BRANCH  18   5
ATOM      5  O   UNL     1      -4.271 -13.409  18.730  0.00  0.00    -0.389 OA
ATOM     39  H   UNL     1      -3.856 -13.497  19.606  0.00  0.00    +0.210 HD
ENDBRANCH  18   5
TORSDOF 11
ENDMDL
MODEL 8
REMARK VINA RESULT:      -6.7     26.224     28.984
REMARK  Name = 7050208
REMARK  11 active torsions:
REMARK  status: ('A' for Active; 'I' for Inactive)
REMARK    1  A    between atoms: O_3  and  C_13
REMARK    2  A    between atoms: O_4  and  C_16
REMARK    3  A    between atoms: O_5  and  C_18
REMARK    4  A    between atoms: O_9  and  C_35
REMARK    5  A    between atoms: N_10  and  C_14
REMARK    6  A    between atoms: N_11  and  C_20
REMARK    7  A    between atoms: C_13  and  C_19
REMARK    8  A    between atoms: C_20  and  C_22
REMARK    9  A    between atoms: C_20  and  C_24
REMARK   10  A    between atoms: C_21  and  C_23
REMARK   11  A    between atoms: C_22  and  C_25
REMARK                            x       y       z     vdW  Elec       q    Type
REMARK                         _______ _______ _______ _____ _____    ______ ____
ROOT
ATOM     13  C   UNL     1     -16.740   5.262  23.636  0.00  0.00    +0.146 C 
ATOM     14  C   UNL     1     -16.713   3.623  25.578  0.00  0.00    +0.107 C 
ATOM     15  C   UNL     1     -16.083   4.878  24.963  0.00  0.00    +0.069 C 
ATOM     16  C   UNL     1     -16.731   2.450  24.589  0.00  0.00    +0.163 C 
ATOM     17  C   UNL     1     -16.733   4.092  22.654  0.00  0.00    +0.078 C 
ATOM     18  C   UNL     1     -17.368   2.836  23.252  0.00  0.00    +0.148 C 
ENDROOT
BRANCH  13  19
ATOM      6  O   UNL     1     -16.454   7.596  23.216  0.00  0.00    -0.273 OA
ATOM     11  N   UNL     1     -14.967   6.087  22.252  0.00  0.00    -0.301 N 
ATOM     19  C   UNL     1     -16.052   6.451  23.031  0.00  0.00    +0.246 C 
ATOM     40  H   UNL     1     -14.770   5.106  22.087  0.00  0.00    +0.150 HD
BRANCH  11  20
ATOM     20  C   UNL     1     -14.149   7.042  21.540  0.00  0.00    +0.163 C 
BRANCH  20  24
ATOM      8  O   UNL     1     -15.341   6.830  19.433  0.00  0.00    -0.274 OA
ATOM     12  N   UNL     1     -15.299   8.879  20.470  0.00  0.00    -0.328 N 
ATOM     24  C   UNL     1     -14.970   7.545  20.361  0.00  0.00    +0.231 C 
ATOM     41  H   UNL     1     -15.858   9.337  19.757  0.00  0.00    +0.145 HD
ATOM     42  H   UNL     1     -14.989   9.457  21.244  0.00  0.00    +0.145 HD
ENDBRANCH  20  24
BRANCH  20  22
ATOM     22  C   UNL     1     -12.833   6.427  21.049  0.00  0.00    +0.067 C 
BRANCH  22  25
ATOM     25  C   UNL     1     -12.000   7.397  20.247  0.00  0.00    -0.045 A 
ATOM     28  C   UNL     1     -11.582   7.059  18.960  0.00  0.00    +0.007 A 
ATOM     29  C   UNL     1     -11.647   8.632  20.793  0.00  0.00    +0.007 A 
ATOM     33  C   UNL     1     -10.811   7.955  18.219  0.00  0.00    +0.045 A 
ATOM     34  C   UNL     1     -10.877   9.528  20.051  0.00  0.00    +0.045 A 
ATOM     35  C   UNL     1     -10.459   9.189  18.764  0.00  0.00    +0.117 A 
BRANCH  35   9
ATOM      9  O   UNL     1      -9.707  10.064  18.041  0.00  0.00    -0.507 OA
ATOM     43  H   UNL     1      -9.994  10.970  18.245  0.00  0.00    +0.292 HD
ENDBRANCH  35   9
ENDBRANCH  22  25
ENDBRANCH  20  22
ENDBRANCH  11  20
ENDBRANCH  13  19
BRANCH  14  10
ATOM      7  O   UNL     1     -17.362   4.430  28.255  0.00  0.00    -0.270 OA
ATOM     10  N   UNL     1     -16.003   3.261  26.785  0.00  0.00    -0.306 N 
ATOM     21  C   UNL     1     -16.397   3.704  28.037  0.00  0.00    +0.244 C 
ATOM     36  H   UNL     1     -15.130   2.757  26.670  0.00  0.00    +0.149 HD
BRANCH  21  23
ATOM      1 CL   UNL     1     -13.458   0.017  30.213  0.00  0.00    -0.081 Cl
ATOM      2  F   UNL     1     -13.181   2.065  32.340  0.00  0.00    -0.204 F 
ATOM     23  C   UNL     1     -15.546   3.265  29.174  0.00  0.00    +0.038 A 
ATOM     26  C   UNL     1     -14.968   1.995  29.164  0.00  0.00    +0.036 A 
ATOM     27  C   UNL     1     -15.325   4.124  30.250  0.00  0.00    +0.016 A 
ATOM     30  C   UNL     1     -14.169   1.586  30.231  0.00  0.00    +0.077 A 
ATOM     31  C   UNL     1     -14.525   3.714  31.317  0.00  0.00    +0.040 A 
ATOM     32  C   UNL     1     -13.947   2.444  31.308  0.00  0.00    +0.142 A 
ENDBRANCH  21  23
ENDBRANCH  14  10
BRANCH  13   3
ATOM      3  O   UNL     1     -18.082   5.683  23.849  0.00  0.00    -0.379 OA
ATOM     37  H   UNL     1     -18.092   6.322  24.584  0.00  0.00    +0.211 HD
ENDBRANCH  13   3
BRANCH  16   4
ATOM      4  O   UNL     1     -17.504   1.383  25.144  0.00  0.00    -0.387 OA
ATOM     38  H   UNL     1     -18.139   1.087  24.469  0.00  0.00    +0.210 HD
ENDBRANCH  16   4
BRANCH  18   5
ATOM      5  O   UNL     1     -17.193   1.752  22.339  0.00  0.00    -0.389 OA
ATOM     39  H   UNL     1     -17.863   1.848  21.639  0.00  0.00    +0.210 HD
ENDBRANCH  18   5
TORSDOF 11
ENDMDL
MODEL 9
REMARK VINA RESULT:      -6.7     27.721     30.091
REMARK  Name = 7050208
REMARK  11 active torsions:
REMARK  status: ('A' for Active; 'I' for Inactive)
REMARK    1  A    between atoms: O_3  and  C_13
REMARK    2  A    between atoms: O_4  and  C_16
REMARK    3  A    between atoms: O_5  and  C_18
REMARK    4  A    between atoms: O_9  and  C_35
REMARK    5  A    between atoms: N_10  and  C_14
REMARK    6  A    between atoms: N_11  and  C_20
REMARK    7  A    between atoms: C_13  and  C_19
REMARK    8  A    between atoms: C_20  and  C_22
REMARK    9  A    between atoms: C_20  and  C_24
REMARK   10  A    between atoms: C_21  and  C_23
REMARK   11  A    between atoms: C_22  and  C_25
REMARK                            x       y       z     vdW  Elec       q    Type
REMARK                         _______ _______ _______ _____ _____    ______ ____
ROOT
ATOM     13  C   UNL     1      -5.875 -11.707  18.237  0.00  0.00    +0.146 C 
ATOM     14  C   UNL     1      -4.606 -11.734  16.036  0.00  0.00    +0.107 C 
ATOM     15  C   UNL     1      -5.729 -11.081  16.848  0.00  0.00    +0.069 C 
ATOM     16  C   UNL     1      -4.766 -13.259  15.962  0.00  0.00    +0.163 C 
ATOM     17  C   UNL     1      -6.054 -13.221  18.148  0.00  0.00    +0.078 C 
ATOM     18  C   UNL     1      -4.933 -13.887  17.347  0.00  0.00    +0.148 C 
ENDROOT
BRANCH  13  19
ATOM      6  O   UNL     1      -6.859 -10.272  19.874  0.00  0.00    -0.273 OA
ATOM     11  N   UNL     1      -8.249 -11.574  18.535  0.00  0.00    -0.301 N 
ATOM     19  C   UNL     1      -7.028 -11.092  18.975  0.00  0.00    +0.246 C 
ATOM     40  H   UNL     1      -8.279 -12.319  17.847  0.00  0.00    +0.150 HD
BRANCH  11  20
ATOM     20  C   UNL     1      -9.513 -11.159  19.099  0.00  0.00    +0.163 C 
BRANCH  20  24
ATOM      8  O   UNL     1      -9.282 -13.246  20.322  0.00  0.00    -0.274 OA
ATOM     12  N   UNL     1     -11.065 -11.880  20.804  0.00  0.00    -0.328 N 
ATOM     24  C   UNL     1      -9.923 -12.219  20.110  0.00  0.00    +0.231 C 
ATOM     41  H   UNL     1     -11.439 -12.495  21.521  0.00  0.00    +0.145 HD
ATOM     42  H   UNL     1     -11.583 -11.027  20.622  0.00  0.00    +0.145 HD
ENDBRANCH  20  24
BRANCH  20  22
ATOM     22  C   UNL     1     -10.599 -10.994  18.029  0.00  0.00    +0.067 C 
BRANCH  22  25
ATOM     25  C   UNL     1     -10.652  -9.596  17.463  0.00  0.00    -0.045 A 
ATOM     28  C   UNL     1      -9.471  -8.896  17.219  0.00  0.00    +0.007 A 
ATOM     29  C   UNL     1     -11.885  -9.002  17.185  0.00  0.00    +0.007 A 
ATOM     33  C   UNL     1      -9.522  -7.603  16.697  0.00  0.00    +0.045 A 
ATOM     34  C   UNL     1     -11.935  -7.710  16.663  0.00  0.00    +0.045 A 
ATOM     35  C   UNL     1     -10.753  -7.010  16.419  0.00  0.00    +0.117 A 
BRANCH  35   9
ATOM      9  O   UNL     1     -10.801  -5.749  15.909  0.00  0.00    -0.507 OA
ATOM     43  H   UNL     1     -11.038  -5.799  14.967  0.00  0.00    +0.292 HD
ENDBRANCH  35   9
ENDBRANCH  22  25
ENDBRANCH  20  22
ENDBRANCH  11  20
ENDBRANCH  13  19
BRANCH  14  10
ATOM      7  O   UNL     1      -2.264 -11.250  14.447  0.00  0.00    -0.270 OA
ATOM     10  N   UNL     1      -4.566 -11.161  14.708  0.00  0.00    -0.306 N 
ATOM     21  C   UNL     1      -3.380 -10.967  14.020  0.00  0.00    +0.244 C 
ATOM     36  H   UNL     1      -5.439 -10.799  14.338  0.00  0.00    +0.149 HD
BRANCH  21  23
ATOM      1 CL   UNL     1      -6.414  -8.810  10.400  0.00  0.00    -0.081 Cl
ATOM      2  F   UNL     1      -3.838  -8.606   8.945  0.00  0.00    -0.204 F 
ATOM     23  C   UNL     1      -3.507 -10.343  12.677  0.00  0.00    +0.038 A 
ATOM     26  C   UNL     1      -4.754  -9.919  12.219  0.00  0.00    +0.036 A 
ATOM     27  C   UNL     1      -2.376 -10.180  11.876  0.00  0.00    +0.016 A 
ATOM     30  C   UNL     1      -4.871  -9.332  10.960  0.00  0.00    +0.077 A 
ATOM     31  C   UNL     1      -2.494  -9.593  10.615  0.00  0.00    +0.040 A 
ATOM     32  C   UNL     1      -3.742  -9.168  10.157  0.00  0.00    +0.142 A 
ENDBRANCH  21  23
ENDBRANCH  14  10
BRANCH  13   3
ATOM      3  O   UNL     1      -4.732 -11.419  19.034  0.00  0.00    -0.379 OA
ATOM     37  H   UNL     1      -4.962 -11.572  19.967  0.00  0.00    +0.211 HD
ENDBRANCH  13   3
BRANCH  16   4
ATOM      4  O   UNL     1      -3.593 -13.823  15.370  0.00  0.00    -0.387 OA
ATOM     38  H   UNL     1      -2.895 -13.144  15.375  0.00  0.00    +0.210 HD
ENDBRANCH  16   4
BRANCH  18   5
ATOM      5  O   UNL     1      -5.245 -15.270  17.182  0.00  0.00    -0.389 OA
ATOM     39  H   UNL     1      -6.214 -15.353  17.174  0.00  0.00    +0.210 HD
ENDBRANCH  18   5
TORSDOF 11
ENDMDL
MODEL 10
REMARK VINA RESULT:      -6.6     27.810     30.108
REMARK  Name = 7050208
REMARK  11 active torsions:
REMARK  status: ('A' for Active; 'I' for Inactive)
REMARK    1  A    between atoms: O_3  and  C_13
REMARK    2  A    between atoms: O_4  and  C_16
REMARK    3  A    between atoms: O_5  and  C_18
REMARK    4  A    between atoms: O_9  and  C_35
REMARK    5  A    between atoms: N_10  and  C_14
REMARK    6  A    between atoms: N_11  and  C_20
REMARK    7  A    between atoms: C_13  and  C_19
REMARK    8  A    between atoms: C_20  and  C_22
REMARK    9  A    between atoms: C_20  and  C_24
REMARK   10  A    between atoms: C_21  and  C_23
REMARK   11  A    between atoms: C_22  and  C_25
REMARK                            x       y       z     vdW  Elec       q    Type
REMARK                         _______ _______ _______ _____ _____    ______ ____
ROOT
ATOM     13  C   UNL     1      -7.081 -10.782  18.086  0.00  0.00    +0.146 C 
ATOM     14  C   UNL     1      -5.078 -10.343  16.585  0.00  0.00    +0.107 C 
ATOM     15  C   UNL     1      -6.606 -10.325  16.706  0.00  0.00    +0.069 C 
ATOM     16  C   UNL     1      -4.491 -11.709  16.968  0.00  0.00    +0.163 C 
ATOM     17  C   UNL     1      -6.507 -12.151  18.446  0.00  0.00    +0.078 C 
ATOM     18  C   UNL     1      -4.981 -12.181  18.339  0.00  0.00    +0.148 C 
ENDROOT
BRANCH  13  19
ATOM      6  O   UNL     1      -9.210 -11.862  17.998  0.00  0.00    -0.273 OA
ATOM     11  N   UNL     1      -9.126  -9.562  18.350  0.00  0.00    -0.301 N 
ATOM     19  C   UNL     1      -8.580 -10.818  18.143  0.00  0.00    +0.246 C 
ATOM     40  H   UNL     1      -8.524  -8.747  18.368  0.00  0.00    +0.150 HD
BRANCH  11  20
ATOM     20  C   UNL     1     -10.550  -9.322  18.422  0.00  0.00    +0.163 C 
BRANCH  20  24
ATOM      8  O   UNL     1     -12.065 -11.004  19.305  0.00  0.00    -0.274 OA
ATOM     12  N   UNL     1     -10.396 -10.204  20.666  0.00  0.00    -0.328 N 
ATOM     24  C   UNL     1     -11.109 -10.253  19.487  0.00  0.00    +0.231 C 
ATOM     41  H   UNL     1     -10.655 -10.788  21.455  0.00  0.00    +0.145 HD
ATOM     42  H   UNL     1      -9.606  -9.582  20.802  0.00  0.00    +0.145 HD
ENDBRANCH  20  24
BRANCH  20  22
ATOM     22  C   UNL     1     -11.247  -9.568  17.078  0.00  0.00    +0.067 C 
BRANCH  22  25
ATOM     25  C   UNL     1     -11.450  -8.299  16.286  0.00  0.00    -0.045 A 
ATOM     28  C   UNL     1     -12.625  -8.111  15.560  0.00  0.00    +0.007 A 
ATOM     29  C   UNL     1     -10.461  -7.315  16.280  0.00  0.00    +0.007 A 
ATOM     33  C   UNL     1     -12.812  -6.938  14.826  0.00  0.00    +0.045 A 
ATOM     34  C   UNL     1     -10.648  -6.143  15.548  0.00  0.00    +0.045 A 
ATOM     35  C   UNL     1     -11.823  -5.955  14.820  0.00  0.00    +0.117 A 
BRANCH  35   9
ATOM      9  O   UNL     1     -12.006  -4.811  14.106  0.00  0.00    -0.507 OA
ATOM     43  H   UNL     1     -11.568  -4.076  14.569  0.00  0.00    +0.292 HD
ENDBRANCH  35   9
ENDBRANCH  22  25
ENDBRANCH  20  22
ENDBRANCH  11  20
ENDBRANCH  13  19
BRANCH  14  10
ATOM      7  O   UNL     1      -5.618 -11.826  14.187  0.00  0.00    -0.270 OA
ATOM     10  N   UNL     1      -4.689  -9.981  15.240  0.00  0.00    -0.306 N 
ATOM     21  C   UNL     1      -4.999 -10.767  14.142  0.00  0.00    +0.244 C 
ATOM     36  H   UNL     1      -4.077  -9.178  15.140  0.00  0.00    +0.149 HD
BRANCH  21  23
ATOM      1 CL   UNL     1      -5.955  -8.224   9.717  0.00  0.00    -0.081 Cl
ATOM      2  F   UNL     1      -3.112  -8.890   9.197  0.00  0.00    -0.204 F 
ATOM     23  C   UNL     1      -4.505 -10.270  12.832  0.00  0.00    +0.038 A 
ATOM     26  C   UNL     1      -5.360  -9.564  11.986  0.00  0.00    +0.036 A 
ATOM     27  C   UNL     1      -3.185 -10.508  12.450  0.00  0.00    +0.016 A 
ATOM     30  C   UNL     1      -4.895  -9.096  10.757  0.00  0.00    +0.077 A 
ATOM     31  C   UNL     1      -2.720 -10.040  11.220  0.00  0.00    +0.040 A 
ATOM     32  C   UNL     1      -3.575  -9.334  10.374  0.00  0.00    +0.142 A 
ENDBRANCH  21  23
ENDBRANCH  14  10
BRANCH  13   3
ATOM      3  O   UNL     1      -6.697  -9.841  19.081  0.00  0.00    -0.379 OA
ATOM     37  H   UNL     1      -6.819 -10.250  19.956  0.00  0.00    +0.211 HD
ENDBRANCH  13   3
BRANCH  16   4
ATOM      4  O   UNL     1      -3.067 -11.605  17.029  0.00  0.00    -0.387 OA
ATOM     38  H   UNL     1      -2.757 -12.144  17.779  0.00  0.00    +0.210 HD
ENDBRANCH  16   4
BRANCH  18   5
ATOM      5  O   UNL     1      -4.532 -13.521  18.542  0.00  0.00    -0.389 OA
ATOM     39  H   UNL     1      -4.827 -14.048  17.779  0.00  0.00    +0.210 HD
ENDBRANCH  18   5
TORSDOF 11
ENDMDL
