REMARK  Name = 56775159
REMARK  3 active torsions:
REMARK  status: ('A' for Active; 'I' for Inactive)
REMARK    1  A    between atoms: N_7  and  C_16
REMARK    2  A    between atoms: C_16  and  C_18
REMARK    3  A    between atoms: C_21  and  C_27
REMARK                            x       y       z     vdW  Elec       q    Type
REMARK                         _______ _______ _______ _____ _____    ______ ____
ROOT
ATOM      4  O   UNL     1      -0.805  -2.880  -0.398  0.00  0.00    -0.364 OA
ATOM      5  O   UNL     1      -3.332  -1.425  -2.440  0.00  0.00    -0.273 OA
ATOM      6  N   UNL     1       1.220  -0.932   0.639  0.00  0.00    -0.295 N 
ATOM      7  N   UNL     1      -2.138  -0.460  -0.691  0.00  0.00    -0.288 N 
ATOM      8  N   UNL     1       3.042   0.325  -0.047  0.00  0.00    -0.210 NA
ATOM      9  N   UNL     1       3.289  -1.484   1.524  0.00  0.00    -0.223 NA
ATOM     10  C   UNL     1      -1.093  -0.604   0.315  0.00  0.00    +0.124 C 
ATOM     11  C   UNL     1      -0.856  -2.042   0.754  0.00  0.00    +0.158 C 
ATOM     12  C   UNL     1       0.291  -0.168  -0.191  0.00  0.00    +0.133 C 
ATOM     13  C   UNL     1       0.538  -1.993   1.383  0.00  0.00    +0.141 C 
ATOM     14  C   UNL     1      -2.554  -1.522  -1.490  0.00  0.00    +0.242 C 
ATOM     15  C   UNL     1      -2.048  -2.889  -1.063  0.00  0.00    +0.256 C 
ATOM     17  C   UNL     1       2.575  -0.687   0.708  0.00  0.00    +0.218 A 
ATOM     21  C   UNL     1       4.371   0.537   0.044  0.00  0.00    +0.149 A 
ATOM     22  C   UNL     1       4.611  -1.217   1.568  0.00  0.00    +0.116 A 
ATOM     23  C   UNL     1       5.213  -0.209   0.844  0.00  0.00    +0.052 A 
ENDROOT
BRANCH  21  27
ATOM      1  F   UNL     1       4.733   1.491  -2.119  0.00  0.00    -0.164 F 
ATOM      2  F   UNL     1       6.280   1.788  -0.621  0.00  0.00    -0.164 F 
ATOM      3  F   UNL     1       4.400   2.871  -0.479  0.00  0.00    -0.164 F 
ATOM     27  C   UNL     1       4.932   1.649  -0.777  0.00  0.00    +0.434 C 
ENDBRANCH  21  27
BRANCH   7  16
ATOM     16  C   UNL     1      -2.625   0.888  -0.950  0.00  0.00    +0.143 C 
BRANCH  16  18
ATOM     18  C   UNL     1      -3.860   1.202  -0.156  0.00  0.00    -0.030 A 
ATOM     19  C   UNL     1      -5.120   0.927  -0.689  0.00  0.00    +0.005 A 
ATOM     20  C   UNL     1      -3.748   1.768   1.113  0.00  0.00    +0.005 A 
ATOM     24  C   UNL     1      -6.267   1.219   0.049  0.00  0.00    +0.000 A 
ATOM     25  C   UNL     1      -4.895   2.059   1.851  0.00  0.00    +0.000 A 
ATOM     26  C   UNL     1      -6.155   1.785   1.319  0.00  0.00    +0.000 A 
ENDBRANCH  16  18
ENDBRANCH   7  16
TORSDOF 3
