MODEL 1
REMARK VINA RESULT:      -7.7      0.000      0.000
REMARK  Name = 75536107
REMARK  9 active torsions:
REMARK  status: ('A' for Active; 'I' for Inactive)
REMARK    1  A    between atoms: O_1  and  C_9
REMARK    2  A    between atoms: O_2  and  C_11
REMARK    3  A    between atoms: O_3  and  C_19
REMARK    4  A    between atoms: O_3  and  C_27
REMARK    5  A    between atoms: N_4  and  C_7
REMARK    6  A    between atoms: N_4  and  C_13
REMARK    7  A    between atoms: N_5  and  C_22
REMARK    8  A    between atoms: C_8  and  C_12
REMARK    9  A    between atoms: C_13  and  C_16
REMARK                            x       y       z     vdW  Elec       q    Type
REMARK                         _______ _______ _______ _____ _____    ______ ____
ROOT
ATOM      7  C   UNL     1      13.204   7.050  20.937  0.00  0.00    +0.093 C 
ATOM      8  C   UNL     1      12.776   8.435  20.363  0.00  0.00    +0.041 C 
ATOM      9  C   UNL     1      11.904   6.408  21.447  0.00  0.00    +0.160 C 
ATOM     10  C   UNL     1      11.254   8.532  20.585  0.00  0.00    +0.043 C 
ATOM     11  C   UNL     1      11.004   7.598  21.761  0.00  0.00    +0.145 C 
ENDROOT
BRANCH   8  12
ATOM     12  C   UNL     1      13.185   8.660  18.923  0.00  0.00    -0.042 A 
ATOM     14  C   UNL     1      12.961   9.899  18.321  0.00  0.00    +0.007 A 
ATOM     15  C   UNL     1      13.785   7.630  18.198  0.00  0.00    +0.007 A 
ATOM     17  C   UNL     1      13.338  10.107  16.995  0.00  0.00    +0.046 A 
ATOM     18  C   UNL     1      14.161   7.840  16.871  0.00  0.00    +0.046 A 
ATOM     19  C   UNL     1      13.938   9.078  16.269  0.00  0.00    +0.120 A 
BRANCH  19   3
ATOM      3  O   UNL     1      14.303   9.281  14.975  0.00  0.00    -0.495 OA
ATOM     27  C   UNL     1      15.116  10.422  14.701  0.00  0.00    +0.277 C 
ENDBRANCH  19   3
ENDBRANCH   8  12
BRANCH   9   1
ATOM      1  O   UNL     1      11.350   5.619  20.394  0.00  0.00    -0.388 OA
ATOM     29  H   UNL     1      11.982   5.633  19.655  0.00  0.00    +0.210 HD
ENDBRANCH   9   1
BRANCH  11   2
ATOM      2  O   UNL     1       9.640   7.240  21.853  0.00  0.00    -0.389 OA
ATOM     30  H   UNL     1       9.583   6.275  21.743  0.00  0.00    +0.210 HD
ENDBRANCH  11   2
BRANCH   7   4
ATOM      4  N   UNL     1      14.133   7.245  22.053  0.00  0.00    -0.304 NA
ATOM     28  H   UNL     1      14.758   6.442  22.116  0.00  0.00    +0.123 HD
BRANCH   4  13
ATOM     13  C   UNL     1      14.934   8.445  21.858  0.00  0.00    +0.156 C 
BRANCH  13  16
ATOM      5  N   UNL     1      17.366   9.059  21.673  0.00  0.00    -0.330 N 
ATOM      6  N   UNL     1      16.852   6.937  21.260  0.00  0.00    -0.231 NA
ATOM     16  C   UNL     1      16.378   8.117  21.591  0.00  0.00    +0.124 A 
ATOM     20  C   UNL     1      18.556   8.447  21.375  0.00  0.00    +0.069 A 
ATOM     21  C   UNL     1      18.209   7.122  21.120  0.00  0.00    +0.089 A 
ATOM     22  C   UNL     1      17.192  10.454  22.012  0.00  0.00    +0.150 C 
ATOM     23  C   UNL     1      19.866   8.922  21.308  0.00  0.00    +0.028 A 
ATOM     24  C   UNL     1      19.216   6.204  20.778  0.00  0.00    +0.030 A 
ATOM     25  C   UNL     1      20.855   7.994  20.965  0.00  0.00    +0.002 A 
ATOM     26  C   UNL     1      20.538   6.659  20.704  0.00  0.00    +0.002 A 
ENDBRANCH  13  16
ENDBRANCH   4  13
ENDBRANCH   7   4
TORSDOF 7
ENDMDL
MODEL 2
REMARK VINA RESULT:      -7.7      2.168      4.675
REMARK  Name = 75536107
REMARK  9 active torsions:
REMARK  status: ('A' for Active; 'I' for Inactive)
REMARK    1  A    between atoms: O_1  and  C_9
REMARK    2  A    between atoms: O_2  and  C_11
REMARK    3  A    between atoms: O_3  and  C_19
REMARK    4  A    between atoms: O_3  and  C_27
REMARK    5  A    between atoms: N_4  and  C_7
REMARK    6  A    between atoms: N_4  and  C_13
REMARK    7  A    between atoms: N_5  and  C_22
REMARK    8  A    between atoms: C_8  and  C_12
REMARK    9  A    between atoms: C_13  and  C_16
REMARK                            x       y       z     vdW  Elec       q    Type
REMARK                         _______ _______ _______ _____ _____    ______ ____
ROOT
ATOM      7  C   UNL     1      13.484   8.949  17.997  0.00  0.00    +0.093 C 
ATOM      8  C   UNL     1      12.081   8.507  18.514  0.00  0.00    +0.041 C 
ATOM      9  C   UNL     1      13.213   9.664  16.664  0.00  0.00    +0.160 C 
ATOM     10  C   UNL     1      11.072   8.974  17.446  0.00  0.00    +0.043 C 
ATOM     11  C   UNL     1      11.905   9.051  16.176  0.00  0.00    +0.145 C 
ENDROOT
BRANCH   8  12
ATOM     12  C   UNL     1      11.750   9.004  19.905  0.00  0.00    -0.042 A 
ATOM     14  C   UNL     1      12.277  10.215  20.356  0.00  0.00    +0.007 A 
ATOM     15  C   UNL     1      10.920   8.252  20.737  0.00  0.00    +0.007 A 
ATOM     17  C   UNL     1      11.972  10.673  21.637  0.00  0.00    +0.046 A 
ATOM     18  C   UNL     1      10.616   8.711  22.019  0.00  0.00    +0.046 A 
ATOM     19  C   UNL     1      11.142   9.922  22.469  0.00  0.00    +0.120 A 
BRANCH  19   3
ATOM      3  O   UNL     1      10.847  10.368  23.719  0.00  0.00    -0.495 OA
ATOM     27  C   UNL     1      10.842  11.781  23.920  0.00  0.00    +0.277 C 
ENDBRANCH  19   3
ENDBRANCH   8  12
BRANCH   9   1
ATOM      1  O   UNL     1      13.051  11.058  16.927  0.00  0.00    -0.388 OA
ATOM     29  H   UNL     1      12.339  11.382  16.349  0.00  0.00    +0.210 HD
ENDBRANCH   9   1
BRANCH  11   2
ATOM      2  O   UNL     1      11.270   9.838  15.188  0.00  0.00    -0.389 OA
ATOM     30  H   UNL     1      11.277  10.759  15.500  0.00  0.00    +0.210 HD
ENDBRANCH  11   2
BRANCH   7   4
ATOM      4  N   UNL     1      14.318   7.767  17.767  0.00  0.00    -0.304 NA
ATOM     28  H   UNL     1      15.268   8.062  17.543  0.00  0.00    +0.123 HD
BRANCH   4  13
ATOM     13  C   UNL     1      14.360   6.922  18.953  0.00  0.00    +0.156 C 
BRANCH  13  16
ATOM      5  N   UNL     1      16.288   7.589  20.424  0.00  0.00    -0.330 N 
ATOM      6  N   UNL     1      16.621   5.837  19.098  0.00  0.00    -0.231 NA
ATOM     16  C   UNL     1      15.762   6.758  19.474  0.00  0.00    +0.124 A 
ATOM     20  C   UNL     1      17.571   7.177  20.677  0.00  0.00    +0.069 A 
ATOM     21  C   UNL     1      17.756   6.082  19.838  0.00  0.00    +0.089 A 
ATOM     22  C   UNL     1      15.615   8.705  21.050  0.00  0.00    +0.150 C 
ATOM     23  C   UNL     1      18.556   7.654  21.543  0.00  0.00    +0.028 A 
ATOM     24  C   UNL     1      18.989   5.410  19.850  0.00  0.00    +0.030 A 
ATOM     25  C   UNL     1      19.778   6.973  21.542  0.00  0.00    +0.002 A 
ATOM     26  C   UNL     1      19.993   5.870  20.710  0.00  0.00    +0.002 A 
ENDBRANCH  13  16
ENDBRANCH   4  13
ENDBRANCH   7   4
TORSDOF 7
ENDMDL
MODEL 3
REMARK VINA RESULT:      -7.5      3.627      6.665
REMARK  Name = 75536107
REMARK  9 active torsions:
REMARK  status: ('A' for Active; 'I' for Inactive)
REMARK    1  A    between atoms: O_1  and  C_9
REMARK    2  A    between atoms: O_2  and  C_11
REMARK    3  A    between atoms: O_3  and  C_19
REMARK    4  A    between atoms: O_3  and  C_27
REMARK    5  A    between atoms: N_4  and  C_7
REMARK    6  A    between atoms: N_4  and  C_13
REMARK    7  A    between atoms: N_5  and  C_22
REMARK    8  A    between atoms: C_8  and  C_12
REMARK    9  A    between atoms: C_13  and  C_16
REMARK                            x       y       z     vdW  Elec       q    Type
REMARK                         _______ _______ _______ _____ _____    ______ ____
ROOT
ATOM      7  C   UNL     1      13.231   7.510  21.198  0.00  0.00    +0.093 C 
ATOM      8  C   UNL     1      14.282   8.164  20.250  0.00  0.00    +0.041 C 
ATOM      9  C   UNL     1      11.994   7.269  20.319  0.00  0.00    +0.160 C 
ATOM     10  C   UNL     1      13.594   8.284  18.876  0.00  0.00    +0.043 C 
ATOM     11  C   UNL     1      12.112   8.320  19.219  0.00  0.00    +0.145 C 
ENDROOT
BRANCH   8  12
ATOM     12  C   UNL     1      15.605   7.430  20.193  0.00  0.00    -0.042 A 
ATOM     14  C   UNL     1      16.538   7.596  21.216  0.00  0.00    +0.007 A 
ATOM     15  C   UNL     1      15.891   6.588  19.118  0.00  0.00    +0.007 A 
ATOM     17  C   UNL     1      17.757   6.919  21.165  0.00  0.00    +0.046 A 
ATOM     18  C   UNL     1      17.110   5.912  19.067  0.00  0.00    +0.046 A 
ATOM     19  C   UNL     1      18.043   6.077  20.090  0.00  0.00    +0.120 A 
BRANCH  19   3
ATOM      3  O   UNL     1      19.232   5.418  20.039  0.00  0.00    -0.495 OA
ATOM     27  C   UNL     1      20.312   5.969  20.793  0.00  0.00    +0.277 C 
ENDBRANCH  19   3
ENDBRANCH   8  12
BRANCH   9   1
ATOM      1  O   UNL     1      12.080   5.954  19.772  0.00  0.00    -0.388 OA
ATOM     29  H   UNL     1      12.998   5.820  19.478  0.00  0.00    +0.210 HD
ENDBRANCH   9   1
BRANCH  11   2
ATOM      2  O   UNL     1      11.314   8.020  18.092  0.00  0.00    -0.389 OA
ATOM     30  H   UNL     1      10.847   7.188  18.277  0.00  0.00    +0.210 HD
ENDBRANCH  11   2
BRANCH   7   4
ATOM      4  N   UNL     1      12.899   8.440  22.280  0.00  0.00    -0.304 NA
ATOM     28  H   UNL     1      13.216   8.051  23.168  0.00  0.00    +0.123 HD
BRANCH   4  13
ATOM     13  C   UNL     1      13.550   9.727  22.076  0.00  0.00    +0.156 C 
BRANCH  13  16
ATOM      5  N   UNL     1      12.334  11.820  21.393  0.00  0.00    -0.330 N 
ATOM      6  N   UNL     1      11.976  11.106  23.467  0.00  0.00    -0.231 NA
ATOM     16  C   UNL     1      12.614  10.875  22.341  0.00  0.00    +0.124 A 
ATOM     20  C   UNL     1      11.458  12.720  21.943  0.00  0.00    +0.069 A 
ATOM     21  C   UNL     1      11.250  12.253  23.239  0.00  0.00    +0.089 A 
ATOM     22  C   UNL     1      12.866  11.867  20.049  0.00  0.00    +0.150 C 
ATOM     23  C   UNL     1      10.848  13.867  21.435  0.00  0.00    +0.028 A 
ATOM     24  C   UNL     1      10.385  12.959  24.091  0.00  0.00    +0.030 A 
ATOM     25  C   UNL     1       9.991  14.558  22.298  0.00  0.00    +0.002 A 
ATOM     26  C   UNL     1       9.762  14.114  23.603  0.00  0.00    +0.002 A 
ENDBRANCH  13  16
ENDBRANCH   4  13
ENDBRANCH   7   4
TORSDOF 7
ENDMDL
MODEL 4
REMARK VINA RESULT:      -6.7      3.241      6.743
REMARK  Name = 75536107
REMARK  9 active torsions:
REMARK  status: ('A' for Active; 'I' for Inactive)
REMARK    1  A    between atoms: O_1  and  C_9
REMARK    2  A    between atoms: O_2  and  C_11
REMARK    3  A    between atoms: O_3  and  C_19
REMARK    4  A    between atoms: O_3  and  C_27
REMARK    5  A    between atoms: N_4  and  C_7
REMARK    6  A    between atoms: N_4  and  C_13
REMARK    7  A    between atoms: N_5  and  C_22
REMARK    8  A    between atoms: C_8  and  C_12
REMARK    9  A    between atoms: C_13  and  C_16
REMARK                            x       y       z     vdW  Elec       q    Type
REMARK                         _______ _______ _______ _____ _____    ______ ____
ROOT
ATOM      7  C   UNL     1      14.957   7.533  20.180  0.00  0.00    +0.093 C 
ATOM      8  C   UNL     1      15.957   8.730  20.148  0.00  0.00    +0.041 C 
ATOM      9  C   UNL     1      15.811   6.308  20.542  0.00  0.00    +0.160 C 
ATOM     10  C   UNL     1      17.339   8.134  20.476  0.00  0.00    +0.043 C 
ATOM     11  C   UNL     1      17.210   6.677  20.058  0.00  0.00    +0.145 C 
ENDROOT
BRANCH   8  12
ATOM     12  C   UNL     1      15.572   9.880  21.055  0.00  0.00    -0.042 A 
ATOM     14  C   UNL     1      15.702  11.195  20.605  0.00  0.00    +0.007 A 
ATOM     15  C   UNL     1      15.090   9.626  22.339  0.00  0.00    +0.007 A 
ATOM     17  C   UNL     1      15.348  12.255  21.439  0.00  0.00    +0.046 A 
ATOM     18  C   UNL     1      14.736  10.688  23.172  0.00  0.00    +0.046 A 
ATOM     19  C   UNL     1      14.865  12.001  22.723  0.00  0.00    +0.120 A 
BRANCH  19   3
ATOM      3  O   UNL     1      14.521  13.035  23.537  0.00  0.00    -0.495 OA
ATOM     27  C   UNL     1      15.563  13.929  23.927  0.00  0.00    +0.277 C 
ENDBRANCH  19   3
ENDBRANCH   8  12
BRANCH   9   1
ATOM      1  O   UNL     1      15.793   6.151  21.960  0.00  0.00    -0.388 OA
ATOM     29  H   UNL     1      15.904   7.034  22.353  0.00  0.00    +0.210 HD
ENDBRANCH   9   1
BRANCH  11   2
ATOM      2  O   UNL     1      18.217   5.879  20.645  0.00  0.00    -0.389 OA
ATOM     30  H   UNL     1      17.928   4.952  20.586  0.00  0.00    +0.210 HD
ENDBRANCH  11   2
BRANCH   7   4
ATOM      4  N   UNL     1      14.365   7.352  18.853  0.00  0.00    -0.304 NA
ATOM     28  H   UNL     1      14.665   6.457  18.468  0.00  0.00    +0.123 HD
BRANCH   4  13
ATOM     13  C   UNL     1      12.910   7.362  18.928  0.00  0.00    +0.156 C 
BRANCH  13  16
ATOM      5  N   UNL     1      11.829   8.064  21.088  0.00  0.00    -0.330 N 
ATOM      6  N   UNL     1      12.454   9.701  19.722  0.00  0.00    -0.231 NA
ATOM     16  C   UNL     1      12.406   8.399  19.894  0.00  0.00    +0.124 A 
ATOM     20  C   UNL     1      11.481   9.225  21.727  0.00  0.00    +0.069 A 
ATOM     21  C   UNL     1      11.882  10.234  20.855  0.00  0.00    +0.089 A 
ATOM     22  C   UNL     1      11.619   6.724  21.589  0.00  0.00    +0.150 C 
ATOM     23  C   UNL     1      10.869   9.474  22.956  0.00  0.00    +0.028 A 
ATOM     24  C   UNL     1      11.668  11.575  21.214  0.00  0.00    +0.030 A 
ATOM     25  C   UNL     1      10.664  10.815  23.297  0.00  0.00    +0.002 A 
ATOM     26  C   UNL     1      11.055  11.849  22.443  0.00  0.00    +0.002 A 
ENDBRANCH  13  16
ENDBRANCH   4  13
ENDBRANCH   7   4
TORSDOF 7
ENDMDL
MODEL 5
REMARK VINA RESULT:      -6.7      3.852      6.265
REMARK  Name = 75536107
REMARK  9 active torsions:
REMARK  status: ('A' for Active; 'I' for Inactive)
REMARK    1  A    between atoms: O_1  and  C_9
REMARK    2  A    between atoms: O_2  and  C_11
REMARK    3  A    between atoms: O_3  and  C_19
REMARK    4  A    between atoms: O_3  and  C_27
REMARK    5  A    between atoms: N_4  and  C_7
REMARK    6  A    between atoms: N_4  and  C_13
REMARK    7  A    between atoms: N_5  and  C_22
REMARK    8  A    between atoms: C_8  and  C_12
REMARK    9  A    between atoms: C_13  and  C_16
REMARK                            x       y       z     vdW  Elec       q    Type
REMARK                         _______ _______ _______ _____ _____    ______ ____
ROOT
ATOM      7  C   UNL     1      13.238   8.583  21.384  0.00  0.00    +0.093 C 
ATOM      8  C   UNL     1      12.377   9.032  20.163  0.00  0.00    +0.041 C 
ATOM      9  C   UNL     1      12.933   7.087  21.562  0.00  0.00    +0.160 C 
ATOM     10  C   UNL     1      11.605   7.777  19.709  0.00  0.00    +0.043 C 
ATOM     11  C   UNL     1      11.539   6.922  20.965  0.00  0.00    +0.145 C 
ENDROOT
BRANCH   8  12
ATOM     12  C   UNL     1      13.173   9.679  19.050  0.00  0.00    -0.042 A 
ATOM     14  C   UNL     1      12.771   9.520  17.723  0.00  0.00    +0.007 A 
ATOM     15  C   UNL     1      14.307  10.434  19.350  0.00  0.00    +0.007 A 
ATOM     17  C   UNL     1      13.503  10.116  16.697  0.00  0.00    +0.046 A 
ATOM     18  C   UNL     1      15.039  11.030  18.323  0.00  0.00    +0.046 A 
ATOM     19  C   UNL     1      14.637  10.872  16.997  0.00  0.00    +0.120 A 
BRANCH  19   3
ATOM      3  O   UNL     1      15.352  11.452  15.996  0.00  0.00    -0.495 OA
ATOM     27  C   UNL     1      15.381  10.774  14.741  0.00  0.00    +0.277 C 
ENDBRANCH  19   3
ENDBRANCH   8  12
BRANCH   9   1
ATOM      1  O   UNL     1      13.894   6.341  20.815  0.00  0.00    -0.388 OA
ATOM     29  H   UNL     1      13.778   5.403  21.045  0.00  0.00    +0.210 HD
ENDBRANCH   9   1
BRANCH  11   2
ATOM      2  O   UNL     1      11.235   5.576  20.658  0.00  0.00    -0.389 OA
ATOM     30  H   UNL     1      10.483   5.580  20.041  0.00  0.00    +0.210 HD
ENDBRANCH  11   2
BRANCH   7   4
ATOM      4  N   UNL     1      12.821   9.321  22.578  0.00  0.00    -0.304 NA
ATOM     28  H   UNL     1      13.088   8.797  23.410  0.00  0.00    +0.123 HD
BRANCH   4  13
ATOM     13  C   UNL     1      13.458  10.630  22.628  0.00  0.00    +0.156 C 
BRANCH  13  16
ATOM      5  N   UNL     1      12.189  12.365  23.935  0.00  0.00    -0.330 N 
ATOM      6  N   UNL     1      11.721  12.228  21.767  0.00  0.00    -0.231 NA
ATOM     16  C   UNL     1      12.448  11.740  22.747  0.00  0.00    +0.124 A 
ATOM     20  C   UNL     1      11.230  13.318  23.708  0.00  0.00    +0.069 A 
ATOM     21  C   UNL     1      10.954  13.213  22.347  0.00  0.00    +0.089 A 
ATOM     22  C   UNL     1      12.811  12.074  25.207  0.00  0.00    +0.150 C 
ATOM     23  C   UNL     1      10.600  14.235  24.550  0.00  0.00    +0.028 A 
ATOM     24  C   UNL     1       9.995  14.066  21.775  0.00  0.00    +0.030 A 
ATOM     25  C   UNL     1       9.648  15.076  23.963  0.00  0.00    +0.002 A 
ATOM     26  C   UNL     1       9.349  14.995  22.601  0.00  0.00    +0.002 A 
ENDBRANCH  13  16
ENDBRANCH   4  13
ENDBRANCH   7   4
TORSDOF 7
ENDMDL
MODEL 6
REMARK VINA RESULT:      -6.7     26.984     28.940
REMARK  Name = 75536107
REMARK  9 active torsions:
REMARK  status: ('A' for Active; 'I' for Inactive)
REMARK    1  A    between atoms: O_1  and  C_9
REMARK    2  A    between atoms: O_2  and  C_11
REMARK    3  A    between atoms: O_3  and  C_19
REMARK    4  A    between atoms: O_3  and  C_27
REMARK    5  A    between atoms: N_4  and  C_7
REMARK    6  A    between atoms: N_4  and  C_13
REMARK    7  A    between atoms: N_5  and  C_22
REMARK    8  A    between atoms: C_8  and  C_12
REMARK    9  A    between atoms: C_13  and  C_16
REMARK                            x       y       z     vdW  Elec       q    Type
REMARK                         _______ _______ _______ _____ _____    ______ ____
ROOT
ATOM      7  C   UNL     1      -5.292 -11.112  16.611  0.00  0.00    +0.093 C 
ATOM      8  C   UNL     1      -5.766 -10.315  17.865  0.00  0.00    +0.041 C 
ATOM      9  C   UNL     1      -4.487 -12.296  17.169  0.00  0.00    +0.160 C 
ATOM     10  C   UNL     1      -5.196 -11.068  19.083  0.00  0.00    +0.043 C 
ATOM     11  C   UNL     1      -3.985 -11.797  18.520  0.00  0.00    +0.145 C 
ENDROOT
BRANCH   8  12
ATOM     12  C   UNL     1      -7.264 -10.109  17.938  0.00  0.00    -0.042 A 
ATOM     14  C   UNL     1      -8.027 -10.858  18.834  0.00  0.00    +0.007 A 
ATOM     15  C   UNL     1      -7.881  -9.172  17.109  0.00  0.00    +0.007 A 
ATOM     17  C   UNL     1      -9.407 -10.669  18.901  0.00  0.00    +0.046 A 
ATOM     18  C   UNL     1      -9.262  -8.983  17.177  0.00  0.00    +0.046 A 
ATOM     19  C   UNL     1     -10.025  -9.732  18.073  0.00  0.00    +0.120 A 
BRANCH  19   3
ATOM      3  O   UNL     1     -11.371  -9.548  18.137  0.00  0.00    -0.495 OA
ATOM     27  C   UNL     1     -11.974  -8.791  17.089  0.00  0.00    +0.277 C 
ENDBRANCH  19   3
ENDBRANCH   8  12
BRANCH   9   1
ATOM      1  O   UNL     1      -5.374 -13.402  17.337  0.00  0.00    -0.388 OA
ATOM     29  H   UNL     1      -5.035 -14.133  16.791  0.00  0.00    +0.210 HD
ENDBRANCH   9   1
BRANCH  11   2
ATOM      2  O   UNL     1      -3.573 -12.848  19.370  0.00  0.00    -0.389 OA
ATOM     30  H   UNL     1      -3.852 -13.683  18.958  0.00  0.00    +0.210 HD
ENDBRANCH  11   2
BRANCH   7   4
ATOM      4  N   UNL     1      -4.426 -10.265  15.789  0.00  0.00    -0.304 NA
ATOM     28  H   UNL     1      -3.675  -9.889  16.366  0.00  0.00    +0.123 HD
BRANCH   4  13
ATOM     13  C   UNL     1      -3.836 -11.030  14.698  0.00  0.00    +0.156 C 
BRANCH  13  16
ATOM      5  N   UNL     1      -3.216 -10.339  12.361  0.00  0.00    -0.330 N 
ATOM      6  N   UNL     1      -5.306  -9.923  12.988  0.00  0.00    -0.231 NA
ATOM     16  C   UNL     1      -4.149 -10.424  13.356  0.00  0.00    +0.124 A 
ATOM     20  C   UNL     1      -3.809  -9.742  11.279  0.00  0.00    +0.069 A 
ATOM     21  C   UNL     1      -5.115  -9.492  11.694  0.00  0.00    +0.089 A 
ATOM     22  C   UNL     1      -1.845 -10.793  12.433  0.00  0.00    +0.150 C 
ATOM     23  C   UNL     1      -3.332  -9.410  10.010  0.00  0.00    +0.028 A 
ATOM     24  C   UNL     1      -6.011  -8.875  10.805  0.00  0.00    +0.030 A 
ATOM     25  C   UNL     1      -4.238  -8.797   9.138  0.00  0.00    +0.002 A 
ATOM     26  C   UNL     1      -5.554  -8.533   9.527  0.00  0.00    +0.002 A 
ENDBRANCH  13  16
ENDBRANCH   4  13
ENDBRANCH   7   4
TORSDOF 7
ENDMDL
MODEL 7
REMARK VINA RESULT:      -6.6      3.830      6.770
REMARK  Name = 75536107
REMARK  9 active torsions:
REMARK  status: ('A' for Active; 'I' for Inactive)
REMARK    1  A    between atoms: O_1  and  C_9
REMARK    2  A    between atoms: O_2  and  C_11
REMARK    3  A    between atoms: O_3  and  C_19
REMARK    4  A    between atoms: O_3  and  C_27
REMARK    5  A    between atoms: N_4  and  C_7
REMARK    6  A    between atoms: N_4  and  C_13
REMARK    7  A    between atoms: N_5  and  C_22
REMARK    8  A    between atoms: C_8  and  C_12
REMARK    9  A    between atoms: C_13  and  C_16
REMARK                            x       y       z     vdW  Elec       q    Type
REMARK                         _______ _______ _______ _____ _____    ______ ____
ROOT
ATOM      7  C   UNL     1      14.564   8.756  20.708  0.00  0.00    +0.093 C 
ATOM      8  C   UNL     1      15.362   7.914  19.666  0.00  0.00    +0.041 C 
ATOM      9  C   UNL     1      13.223   8.023  20.873  0.00  0.00    +0.160 C 
ATOM     10  C   UNL     1      14.436   6.748  19.268  0.00  0.00    +0.043 C 
ATOM     11  C   UNL     1      13.041   7.286  19.550  0.00  0.00    +0.145 C 
ENDROOT
BRANCH   8  12
ATOM     12  C   UNL     1      16.722   7.457  20.151  0.00  0.00    -0.042 A 
ATOM     14  C   UNL     1      17.358   8.143  21.186  0.00  0.00    +0.007 A 
ATOM     15  C   UNL     1      17.338   6.353  19.562  0.00  0.00    +0.007 A 
ATOM     17  C   UNL     1      18.610   7.723  21.633  0.00  0.00    +0.046 A 
ATOM     18  C   UNL     1      18.591   5.934  20.010  0.00  0.00    +0.046 A 
ATOM     19  C   UNL     1      19.227   6.618  21.046  0.00  0.00    +0.120 A 
BRANCH  19   3
ATOM      3  O   UNL     1      20.449   6.209  21.481  0.00  0.00    -0.495 OA
ATOM     27  C   UNL     1      20.959   4.993  20.936  0.00  0.00    +0.277 C 
ENDBRANCH  19   3
ENDBRANCH   8  12
BRANCH   9   1
ATOM      1  O   UNL     1      13.345   7.099  21.954  0.00  0.00    -0.388 OA
ATOM     29  H   UNL     1      14.221   6.682  21.883  0.00  0.00    +0.210 HD
ENDBRANCH   9   1
BRANCH  11   2
ATOM      2  O   UNL     1      12.092   6.242  19.635  0.00  0.00    -0.389 OA
ATOM     30  H   UNL     1      12.223   5.665  18.863  0.00  0.00    +0.210 HD
ENDBRANCH  11   2
BRANCH   7   4
ATOM      4  N   UNL     1      14.334  10.102  20.181  0.00  0.00    -0.304 NA
ATOM     28  H   UNL     1      13.335  10.240  20.029  0.00  0.00    +0.123 HD
BRANCH   4  13
ATOM     13  C   UNL     1      14.806  11.114  21.116  0.00  0.00    +0.156 C 
BRANCH  13  16
ATOM      5  N   UNL     1      13.702  11.715  23.295  0.00  0.00    -0.330 N 
ATOM      6  N   UNL     1      12.582  12.234  21.447  0.00  0.00    -0.231 NA
ATOM     16  C   UNL     1      13.680  11.696  21.928  0.00  0.00    +0.124 A 
ATOM     20  C   UNL     1      12.542  12.304  23.725  0.00  0.00    +0.069 A 
ATOM     21  C   UNL     1      11.859  12.620  22.553  0.00  0.00    +0.089 A 
ATOM     22  C   UNL     1      14.759  11.204  24.140  0.00  0.00    +0.150 C 
ATOM     23  C   UNL     1      12.046  12.580  24.999  0.00  0.00    +0.028 A 
ATOM     24  C   UNL     1      10.605  13.249  22.639  0.00  0.00    +0.030 A 
ATOM     25  C   UNL     1      10.796  13.206  25.066  0.00  0.00    +0.002 A 
ATOM     26  C   UNL     1      10.087  13.536  23.908  0.00  0.00    +0.002 A 
ENDBRANCH  13  16
ENDBRANCH   4  13
ENDBRANCH   7   4
TORSDOF 7
ENDMDL
MODEL 8
REMARK VINA RESULT:      -6.6     23.654     27.062
REMARK  Name = 75536107
REMARK  9 active torsions:
REMARK  status: ('A' for Active; 'I' for Inactive)
REMARK    1  A    between atoms: O_1  and  C_9
REMARK    2  A    between atoms: O_2  and  C_11
REMARK    3  A    between atoms: O_3  and  C_19
REMARK    4  A    between atoms: O_3  and  C_27
REMARK    5  A    between atoms: N_4  and  C_7
REMARK    6  A    between atoms: N_4  and  C_13
REMARK    7  A    between atoms: N_5  and  C_22
REMARK    8  A    between atoms: C_8  and  C_12
REMARK    9  A    between atoms: C_13  and  C_16
REMARK                            x       y       z     vdW  Elec       q    Type
REMARK                         _______ _______ _______ _____ _____    ______ ____
ROOT
ATOM      7  C   UNL     1     -12.236   9.314  18.158  0.00  0.00    +0.093 C 
ATOM      8  C   UNL     1     -11.554   8.233  19.051  0.00  0.00    +0.041 C 
ATOM      9  C   UNL     1     -11.831   8.959  16.719  0.00  0.00    +0.160 C 
ATOM     10  C   UNL     1     -10.776   7.318  18.085  0.00  0.00    +0.043 C 
ATOM     11  C   UNL     1     -10.512   8.210  16.881  0.00  0.00    +0.145 C 
ENDROOT
BRANCH   8  12
ATOM     12  C   UNL     1     -12.512   7.477  19.948  0.00  0.00    -0.042 A 
ATOM     14  C   UNL     1     -13.888   7.654  19.801  0.00  0.00    +0.007 A 
ATOM     15  C   UNL     1     -12.019   6.606  20.919  0.00  0.00    +0.007 A 
ATOM     17  C   UNL     1     -14.771   6.958  20.626  0.00  0.00    +0.046 A 
ATOM     18  C   UNL     1     -12.904   5.911  21.744  0.00  0.00    +0.046 A 
ATOM     19  C   UNL     1     -14.279   6.086  21.598  0.00  0.00    +0.120 A 
BRANCH  19   3
ATOM      3  O   UNL     1     -15.141   5.409  22.404  0.00  0.00    -0.495 OA
ATOM     27  C   UNL     1     -14.597   4.818  23.584  0.00  0.00    +0.277 C 
ENDBRANCH  19   3
ENDBRANCH   8  12
BRANCH   9   1
ATOM      1  O   UNL     1     -12.833   8.104  16.168  0.00  0.00    -0.388 OA
ATOM     29  H   UNL     1     -13.592   8.115  16.777  0.00  0.00    +0.210 HD
ENDBRANCH   9   1
BRANCH  11   2
ATOM      2  O   UNL     1     -10.175   7.449  15.739  0.00  0.00    -0.389 OA
ATOM     30  H   UNL     1     -11.002   7.103  15.363  0.00  0.00    +0.210 HD
ENDBRANCH  11   2
BRANCH   7   4
ATOM      4  N   UNL     1     -11.718  10.639  18.508  0.00  0.00    -0.304 NA
ATOM     28  H   UNL     1     -10.742  10.556  18.792  0.00  0.00    +0.123 HD
BRANCH   4  13
ATOM     13  C   UNL     1     -11.796  11.544  17.369  0.00  0.00    +0.156 C 
BRANCH  13  16
ATOM      5  N   UNL     1     -10.468  13.652  17.717  0.00  0.00    -0.330 N 
ATOM      6  N   UNL     1      -9.434  12.001  16.647  0.00  0.00    -0.231 NA
ATOM     16  C   UNL     1     -10.551  12.377  17.229  0.00  0.00    +0.124 A 
ATOM     20  C   UNL     1      -9.217  14.131  17.429  0.00  0.00    +0.069 A 
ATOM     21  C   UNL     1      -8.589  13.082  16.761  0.00  0.00    +0.089 A 
ATOM     22  C   UNL     1     -11.514  14.371  18.410  0.00  0.00    +0.150 C 
ATOM     23  C   UNL     1      -8.597  15.354  17.688  0.00  0.00    +0.028 A 
ATOM     24  C   UNL     1      -7.266  13.246  16.319  0.00  0.00    +0.030 A 
ATOM     25  C   UNL     1      -7.280  15.499  17.241  0.00  0.00    +0.002 A 
ATOM     26  C   UNL     1      -6.624  14.465  16.567  0.00  0.00    +0.002 A 
ENDBRANCH  13  16
ENDBRANCH   4  13
ENDBRANCH   7   4
TORSDOF 7
ENDMDL
MODEL 9
REMARK VINA RESULT:      -6.5     25.908     28.360
REMARK  Name = 75536107
REMARK  9 active torsions:
REMARK  status: ('A' for Active; 'I' for Inactive)
REMARK    1  A    between atoms: O_1  and  C_9
REMARK    2  A    between atoms: O_2  and  C_11
REMARK    3  A    between atoms: O_3  and  C_19
REMARK    4  A    between atoms: O_3  and  C_27
REMARK    5  A    between atoms: N_4  and  C_7
REMARK    6  A    between atoms: N_4  and  C_13
REMARK    7  A    between atoms: N_5  and  C_22
REMARK    8  A    between atoms: C_8  and  C_12
REMARK    9  A    between atoms: C_13  and  C_16
REMARK                            x       y       z     vdW  Elec       q    Type
REMARK                         _______ _______ _______ _____ _____    ______ ____
ROOT
ATOM      7  C   UNL     1     -12.381  10.709  19.951  0.00  0.00    +0.093 C 
ATOM      8  C   UNL     1     -11.496   9.541  20.485  0.00  0.00    +0.041 C 
ATOM      9  C   UNL     1     -11.792  11.062  18.576  0.00  0.00    +0.160 C 
ATOM     10  C   UNL     1     -10.430   9.290  19.400  0.00  0.00    +0.043 C 
ATOM     11  C   UNL     1     -10.334  10.625  18.676  0.00  0.00    +0.145 C 
ENDROOT
BRANCH   8  12
ATOM     12  C   UNL     1     -12.274   8.297  20.857  0.00  0.00    -0.042 A 
ATOM     14  C   UNL     1     -11.633   7.058  20.886  0.00  0.00    +0.007 A 
ATOM     15  C   UNL     1     -13.630   8.389  21.171  0.00  0.00    +0.007 A 
ATOM     17  C   UNL     1     -12.348   5.911  21.229  0.00  0.00    +0.046 A 
ATOM     18  C   UNL     1     -14.345   7.241  21.514  0.00  0.00    +0.046 A 
ATOM     19  C   UNL     1     -13.704   6.002  21.544  0.00  0.00    +0.120 A 
BRANCH  19   3
ATOM      3  O   UNL     1     -14.403   4.884  21.877  0.00  0.00    -0.495 OA
ATOM     27  C   UNL     1     -15.237   4.959  23.033  0.00  0.00    +0.277 C 
ENDBRANCH  19   3
ENDBRANCH   8  12
BRANCH   9   1
ATOM      1  O   UNL     1     -12.481  10.302  17.584  0.00  0.00    -0.388 OA
ATOM     29  H   UNL     1     -12.292  10.709  16.721  0.00  0.00    +0.210 HD
ENDBRANCH   9   1
BRANCH  11   2
ATOM      2  O   UNL     1      -9.721  10.483  17.411  0.00  0.00    -0.389 OA
ATOM     30  H   UNL     1      -8.983  11.115  17.372  0.00  0.00    +0.210 HD
ENDBRANCH  11   2
BRANCH   7   4
ATOM      4  N   UNL     1     -12.271  11.860  20.850  0.00  0.00    -0.304 NA
ATOM     28  H   UNL     1     -12.259  12.718  20.300  0.00  0.00    +0.123 HD
BRANCH   4  13
ATOM     13  C   UNL     1     -13.401  11.912  21.768  0.00  0.00    +0.156 C 
BRANCH  13  16
ATOM      5  N   UNL     1     -13.935  11.222  24.127  0.00  0.00    -0.330 N 
ATOM      6  N   UNL     1     -11.780  11.376  23.610  0.00  0.00    -0.231 NA
ATOM     16  C   UNL     1     -13.008  11.505  23.162  0.00  0.00    +0.124 A 
ATOM     20  C   UNL     1     -13.261  10.889  25.273  0.00  0.00    +0.069 A 
ATOM     21  C   UNL     1     -11.916  10.992  24.926  0.00  0.00    +0.089 A 
ATOM     22  C   UNL     1     -15.372  11.266  23.970  0.00  0.00    +0.150 C 
ATOM     23  C   UNL     1     -13.697  10.517  26.545  0.00  0.00    +0.028 A 
ATOM     24  C   UNL     1     -10.936  10.711  25.892  0.00  0.00    +0.030 A 
ATOM     25  C   UNL     1     -12.707  10.241  27.494  0.00  0.00    +0.002 A 
ATOM     26  C   UNL     1     -11.350  10.336  27.175  0.00  0.00    +0.002 A 
ENDBRANCH  13  16
ENDBRANCH   4  13
ENDBRANCH   7   4
TORSDOF 7
ENDMDL
MODEL 10
REMARK VINA RESULT:      -6.5     11.489     14.874
REMARK  Name = 75536107
REMARK  9 active torsions:
REMARK  status: ('A' for Active; 'I' for Inactive)
REMARK    1  A    between atoms: O_1  and  C_9
REMARK    2  A    between atoms: O_2  and  C_11
REMARK    3  A    between atoms: O_3  and  C_19
REMARK    4  A    between atoms: O_3  and  C_27
REMARK    5  A    between atoms: N_4  and  C_7
REMARK    6  A    between atoms: N_4  and  C_13
REMARK    7  A    between atoms: N_5  and  C_22
REMARK    8  A    between atoms: C_8  and  C_12
REMARK    9  A    between atoms: C_13  and  C_16
REMARK                            x       y       z     vdW  Elec       q    Type
REMARK                         _______ _______ _______ _____ _____    ______ ____
ROOT
ATOM      7  C   UNL     1      10.515   6.760   6.487  0.00  0.00    +0.093 C 
ATOM      8  C   UNL     1       9.998   5.619   5.558  0.00  0.00    +0.041 C 
ATOM      9  C   UNL     1      10.725   6.097   7.858  0.00  0.00    +0.160 C 
ATOM     10  C   UNL     1       9.919   4.359   6.442  0.00  0.00    +0.043 C 
ATOM     11  C   UNL     1       9.758   4.917   7.848  0.00  0.00    +0.145 C 
ENDROOT
BRANCH   8  12
ATOM     12  C   UNL     1      10.826   5.419   4.306  0.00  0.00    -0.042 A 
ATOM     14  C   UNL     1      10.646   4.276   3.528  0.00  0.00    +0.007 A 
ATOM     15  C   UNL     1      11.768   6.378   3.932  0.00  0.00    +0.007 A 
ATOM     17  C   UNL     1      11.408   4.091   2.374  0.00  0.00    +0.046 A 
ATOM     18  C   UNL     1      12.530   6.192   2.778  0.00  0.00    +0.046 A 
ATOM     19  C   UNL     1      12.350   5.049   1.999  0.00  0.00    +0.120 A 
BRANCH  19   3
ATOM      3  O   UNL     1      13.094   4.868   0.875  0.00  0.00    -0.495 OA
ATOM     27  C   UNL     1      13.321   3.522   0.456  0.00  0.00    +0.277 C 
ENDBRANCH  19   3
ENDBRANCH   8  12
BRANCH   9   1
ATOM      1  O   UNL     1      12.075   5.643   7.935  0.00  0.00    -0.388 OA
ATOM     29  H   UNL     1      12.079   4.828   8.467  0.00  0.00    +0.210 HD
ENDBRANCH   9   1
BRANCH  11   2
ATOM      2  O   UNL     1      10.072   3.948   8.828  0.00  0.00    -0.389 OA
ATOM     30  H   UNL     1      10.418   4.419   9.605  0.00  0.00    +0.210 HD
ENDBRANCH  11   2
BRANCH   7   4
ATOM      4  N   UNL     1       9.497   7.808   6.593  0.00  0.00    -0.304 NA
ATOM     28  H   UNL     1       9.095   7.796   7.529  0.00  0.00    +0.123 HD
BRANCH   4  13
ATOM     13  C   UNL     1      10.078   9.122   6.352  0.00  0.00    +0.156 C 
BRANCH  13  16
ATOM      5  N   UNL     1      11.423  10.428   8.029  0.00  0.00    -0.330 N 
ATOM      6  N   UNL     1       9.258  10.192   8.472  0.00  0.00    -0.231 NA
ATOM     16  C   UNL     1      10.223   9.912   7.625  0.00  0.00    +0.124 A 
ATOM     20  C   UNL     1      11.219  11.084   9.215  0.00  0.00    +0.069 A 
ATOM     21  C   UNL     1       9.860  10.924   9.471  0.00  0.00    +0.089 A 
ATOM     22  C   UNL     1      12.684  10.304   7.333  0.00  0.00    +0.150 C 
ATOM     23  C   UNL     1      12.081  11.784  10.060  0.00  0.00    +0.028 A 
ATOM     24  C   UNL     1       9.310  11.488  10.634  0.00  0.00    +0.030 A 
ATOM     25  C   UNL     1      11.516  12.339  11.214  0.00  0.00    +0.002 A 
ATOM     26  C   UNL     1      10.156  12.195  11.498  0.00  0.00    +0.002 A 
ENDBRANCH  13  16
ENDBRANCH   4  13
ENDBRANCH   7   4
TORSDOF 7
ENDMDL
