REMARK  Name = 7142800
REMARK  6 active torsions:
REMARK  status: ('A' for Active; 'I' for Inactive)
REMARK    1  A    between atoms: N_3  and  C_13
REMARK    2  A    between atoms: N_5  and  C_17
REMARK    3  A    between atoms: C_13  and  C_16
REMARK    4  A    between atoms: C_16  and  C_22
REMARK    5  A    between atoms: C_19  and  C_26
REMARK    6  A    between atoms: C_22  and  C_27
REMARK                            x       y       z     vdW  Elec       q    Type
REMARK                         _______ _______ _______ _____ _____    ______ ____
ROOT
ATOM      1  O   UNL     1      -0.253   2.263  -1.996  0.00  0.00    -0.266 OA
ATOM      3  N   UNL     1       3.940   0.188  -0.195  0.00  0.00    -0.301 NA
ATOM      4  N   UNL     1       1.478   2.205  -0.427  0.00  0.00    -0.310 N 
ATOM      6  C   UNL     1       3.939   2.542  -1.057  0.00  0.00    +0.024 C 
ATOM      7  C   UNL     1       3.330   2.114   1.276  0.00  0.00    +0.050 C 
ATOM      8  C   UNL     1       4.074   3.083   0.360  0.00  0.00    +0.017 C 
ATOM      9  C   UNL     1       4.550   1.128  -1.144  0.00  0.00    +0.089 C 
ATOM     10  C   UNL     1       3.976   0.713   1.179  0.00  0.00    +0.094 C 
ATOM     11  C   UNL     1       2.458   2.570  -1.460  0.00  0.00    +0.130 C 
ATOM     12  C   UNL     1       1.859   2.048   0.909  0.00  0.00    +0.026 A 
ATOM     14  C   UNL     1       0.932   1.821   1.854  0.00  0.00    +0.024 A 
ATOM     15  C   UNL     1       0.132   2.117  -0.834  0.00  0.00    +0.273 A 
ATOM     17  C   UNL     1      -0.868   1.840   0.246  0.00  0.00    +0.099 A 
ATOM     18  C   UNL     1      -0.458   1.714   1.512  0.00  0.00    +0.030 A 
ENDROOT
BRANCH  17   5
ATOM      2  O   UNL     1      -2.864   0.235   1.541  0.00  0.00    -0.275 OA
ATOM      5  N   UNL     1      -2.181   1.736  -0.109  0.00  0.00    -0.281 N 
ATOM     26  C   UNL     1      -3.099   0.949   0.569  0.00  0.00    +0.220 C 
ATOM     33  H   UNL     1      -2.433   2.078  -1.033  0.00  0.00    +0.155 HD
BRANCH  26  19
ATOM     19  C   UNL     1      -4.470   1.021  -0.037  0.00  0.00    +0.075 C 
ATOM     20  C   UNL     1      -5.530   0.815   1.047  0.00  0.00    +0.013 C 
ATOM     21  C   UNL     1      -4.601  -0.016  -1.154  0.00  0.00    +0.013 C 
ATOM     23  C   UNL     1      -6.939   0.787   0.460  0.00  0.00    +0.001 C 
ATOM     24  C   UNL     1      -6.012  -0.042  -1.736  0.00  0.00    +0.001 C 
ATOM     25  C   UNL     1      -7.065  -0.251  -0.651  0.00  0.00    +0.000 C 
ENDBRANCH  26  19
ENDBRANCH  17   5
BRANCH   3  13
ATOM     13  C   UNL     1       4.580  -1.123  -0.271  0.00  0.00    +0.085 C 
BRANCH  13  16
ATOM     16  C   UNL     1       3.611  -2.214   0.182  0.00  0.00    +0.020 C 
BRANCH  16  22
ATOM     22  C   UNL     1       2.351  -2.226  -0.688  0.00  0.00    +0.036 C 
BRANCH  22  27
ATOM     27  C   UNL     1       1.401  -3.322  -0.277  0.00  0.00    -0.047 A 
ATOM     28  C   UNL     1       1.501  -4.586  -0.858  0.00  0.00    +0.003 A 
ATOM     29  C   UNL     1       0.421  -3.072   0.685  0.00  0.00    +0.003 A 
ATOM     30  C   UNL     1       0.622  -5.600  -0.477  0.00  0.00    +0.000 A 
ATOM     31  C   UNL     1      -0.458  -4.086   1.065  0.00  0.00    +0.000 A 
ATOM     32  C   UNL     1      -0.357  -5.350   0.484  0.00  0.00    +0.000 A 
ENDBRANCH  22  27
ENDBRANCH  16  22
ENDBRANCH  13  16
ENDBRANCH   3  13
TORSDOF 6
