REMARK  Name = 56775487
REMARK  9 active torsions:
REMARK  status: ('A' for Active; 'I' for Inactive)
REMARK    1  A    between atoms: N_4  and  C_6
REMARK    2  A    between atoms: N_4  and  C_10
REMARK    3  A    between atoms: C_6  and  C_9
REMARK    4  A    between atoms: C_9  and  C_12
REMARK    5  A    between atoms: C_10  and  C_11
REMARK    6  A    between atoms: C_11  and  C_13
REMARK    7  A    between atoms: C_13  and  C_15
REMARK    8  A    between atoms: C_13  and  C_16
REMARK    9  A    between atoms: C_17  and  C_18
REMARK                            x       y       z     vdW  Elec       q    Type
REMARK                         _______ _______ _______ _____ _____    ______ ____
ROOT
ATOM      9  C   UNL     1      -1.680  -1.544  -1.141  0.00  0.00    +0.085 C 
ENDROOT
BRANCH   9  12
ATOM      3  O   UNL     1       1.824  -2.015  -0.394  0.00  0.00    -0.354 OA
ATOM      5  N   UNL     1       0.547  -2.495  -0.658  0.00  0.00    -0.083 NA
ATOM     12  C   UNL     1      -0.204  -1.404  -0.831  0.00  0.00    +0.086 A 
ATOM     14  C   UNL     1       0.537  -0.218  -0.690  0.00  0.00    +0.076 A 
ATOM     17  C   UNL     1       1.805  -0.657  -0.416  0.00  0.00    +0.167 A 
BRANCH  17  18
ATOM      1  F   UNL     1       6.678   1.840   0.568  0.00  0.00    -0.205 F 
ATOM     18  C   UNL     1       3.061  -0.014  -0.162  0.00  0.00    +0.020 A 
ATOM     19  C   UNL     1       3.144   1.379  -0.165  0.00  0.00    +0.014 A 
ATOM     20  C   UNL     1       4.199  -0.780   0.089  0.00  0.00    +0.014 A 
ATOM     21  C   UNL     1       4.366   2.005   0.081  0.00  0.00    +0.039 A 
ATOM     22  C   UNL     1       5.421  -0.154   0.336  0.00  0.00    +0.039 A 
ATOM     23  C   UNL     1       5.505   1.238   0.332  0.00  0.00    +0.123 A 
ENDBRANCH  17  18
ENDBRANCH   9  12
BRANCH   9   6
ATOM      2  O   UNL     1      -3.585  -3.104   1.128  0.00  0.00    -0.376 OA
ATOM      6  C   UNL     1      -2.489  -1.575   0.120  0.00  0.00    +0.072 C 
ATOM      7  C   UNL     1      -2.208  -2.662   1.151  0.00  0.00    +0.184 C 
ATOM      8  C   UNL     1      -3.897  -2.158   0.080  0.00  0.00    +0.184 C 
BRANCH   6   4
ATOM      4  N   UNL     1      -2.534  -0.277   0.801  0.00  0.00    -0.306 NA
ATOM     24  H   UNL     1      -1.650   0.034   1.200  0.00  0.00    +0.123 HD
BRANCH   4  10
ATOM     10  C   UNL     1      -3.044   0.733  -0.120  0.00  0.00    +0.082 C 
BRANCH  10  11
ATOM     11  C   UNL     1      -3.544   1.951   0.659  0.00  0.00    +0.018 C 
BRANCH  11  13
ATOM     13  C   UNL     1      -4.095   3.070  -0.246  0.00  0.00    -0.016 C 
ATOM     15  C   UNL     1      -5.272   2.540  -1.068  0.00  0.00    +0.007 C 
ATOM     16  C   UNL     1      -4.534   4.301   0.548  0.00  0.00    +0.007 C 
ENDBRANCH  11  13
ENDBRANCH  10  11
ENDBRANCH   4  10
ENDBRANCH   6   4
ENDBRANCH   9   6
TORSDOF 7
