MODEL 1
REMARK VINA RESULT:      -6.4      0.000      0.000
REMARK  Name = 7155623
REMARK  7 active torsions:
REMARK  status: ('A' for Active; 'I' for Inactive)
REMARK    1  A    between atoms: S_1  and  C_26
REMARK    2  A    between atoms: S_1  and  C_31
REMARK    3  A    between atoms: N_8  and  C_22
REMARK    4  A    between atoms: N_9  and  C_20
REMARK    5  A    between atoms: C_23  and  C_26
REMARK    6  A    between atoms: C_29  and  C_30
REMARK    7  A    between atoms: C_30  and  C_32
REMARK                            x       y       z     vdW  Elec       q    Type
REMARK                         _______ _______ _______ _____ _____    ______ ____
ROOT
ATOM      2  O   UNL     1      -8.720  -8.430  17.006  0.00  0.00    -0.266 OA
ATOM      3  O   UNL     1      -3.894  -9.985  16.654  0.00  0.00    -0.252 OA
ATOM      6  N   UNL     1      -5.094 -11.790  17.457  0.00  0.00    -0.284 N 
ATOM      7  N   UNL     1      -8.013 -10.614  17.438  0.00  0.00    -0.310 N 
ATOM      8  N   UNL     1      -4.568 -11.631  15.163  0.00  0.00    -0.269 N 
ATOM     10  C   UNL     1      -6.504 -11.214  19.420  0.00  0.00    +0.027 C 
ATOM     11  C   UNL     1      -7.233 -12.974  17.856  0.00  0.00    +0.054 C 
ATOM     12  C   UNL     1      -7.177 -12.580  19.333  0.00  0.00    +0.018 C 
ATOM     13  C   UNL     1      -5.082 -11.270  18.826  0.00  0.00    +0.114 C 
ATOM     14  C   UNL     1      -7.390 -10.188  18.700  0.00  0.00    +0.130 C 
ATOM     15  C   UNL     1      -5.797 -13.076  17.308  0.00  0.00    +0.119 C 
ATOM     16  C   UNL     1      -8.022 -11.959  17.051  0.00  0.00    +0.027 A 
ATOM     17  C   UNL     1      -8.690 -12.342  15.950  0.00  0.00    +0.024 A 
ATOM     18  C   UNL     1      -8.683  -9.622  16.696  0.00  0.00    +0.273 A 
ATOM     19  C   UNL     1      -4.460 -11.059  16.431  0.00  0.00    +0.306 C 
ATOM     20  C   UNL     1      -9.393 -10.085  15.462  0.00  0.00    +0.099 A 
ATOM     21  C   UNL     1      -9.387 -11.383  15.141  0.00  0.00    +0.030 A 
ATOM     33  H   UNL     1      -4.647 -12.640  15.097  0.00  0.00    +0.156 HD
ENDROOT
BRANCH   8  22
ATOM     22  C   UNL     1      -4.595 -10.960  13.917  0.00  0.00    +0.035 A 
ATOM     24  C   UNL     1      -3.472 -10.979  13.090  0.00  0.00    +0.024 A 
ATOM     25  C   UNL     1      -5.744 -10.278  13.517  0.00  0.00    +0.024 A 
ATOM     27  C   UNL     1      -3.497 -10.317  11.862  0.00  0.00    +0.013 A 
ATOM     28  C   UNL     1      -5.770  -9.616  12.289  0.00  0.00    +0.013 A 
ATOM     29  C   UNL     1      -4.647  -9.636  11.462  0.00  0.00    +0.017 A 
BRANCH  29  30
ATOM      5  O   UNL     1      -3.642  -8.808   9.495  0.00  0.00    -0.292 OA
ATOM     30  C   UNL     1      -4.674  -8.946  10.182  0.00  0.00    +0.160 C 
ATOM     32  C   UNL     1      -5.980  -8.368   9.647  0.00  0.00    +0.091 C 
ENDBRANCH  29  30
ENDBRANCH   8  22
BRANCH  20   9
ATOM      4  O   UNL     1     -12.135  -9.301  15.710  0.00  0.00    -0.275 OA
ATOM      9  N   UNL     1     -10.038  -9.150  14.706  0.00  0.00    -0.281 N 
ATOM     23  C   UNL     1     -11.372  -8.809  14.880  0.00  0.00    +0.227 C 
ATOM     34  H   UNL     1      -9.577  -8.864  13.846  0.00  0.00    +0.155 HD
BRANCH  23  26
ATOM     26  C   UNL     1     -11.835  -7.747  13.910  0.00  0.00    +0.164 C 
BRANCH  26   1
ATOM      1  S   UNL     1     -12.615  -6.406  14.839  0.00  0.00    -0.155 S 
ATOM     31  C   UNL     1     -11.200  -5.922  15.854  0.00  0.00    +0.085 C 
ENDBRANCH  26   1
ENDBRANCH  23  26
ENDBRANCH  20   9
TORSDOF 5
ENDMDL
MODEL 2
REMARK VINA RESULT:      -6.3      3.228      6.126
REMARK  Name = 7155623
REMARK  7 active torsions:
REMARK  status: ('A' for Active; 'I' for Inactive)
REMARK    1  A    between atoms: S_1  and  C_26
REMARK    2  A    between atoms: S_1  and  C_31
REMARK    3  A    between atoms: N_8  and  C_22
REMARK    4  A    between atoms: N_9  and  C_20
REMARK    5  A    between atoms: C_23  and  C_26
REMARK    6  A    between atoms: C_29  and  C_30
REMARK    7  A    between atoms: C_30  and  C_32
REMARK                            x       y       z     vdW  Elec       q    Type
REMARK                         _______ _______ _______ _____ _____    ______ ____
ROOT
ATOM      2  O   UNL     1      -5.217 -13.925  15.918  0.00  0.00    -0.266 OA
ATOM      3  O   UNL     1      -9.062 -11.272  13.915  0.00  0.00    -0.252 OA
ATOM      6  N   UNL     1      -8.605 -10.297  15.961  0.00  0.00    -0.284 N 
ATOM      7  N   UNL     1      -6.138 -12.014  16.896  0.00  0.00    -0.310 N 
ATOM      8  N   UNL     1      -7.736  -9.368  13.975  0.00  0.00    -0.269 N 
ATOM     10  C   UNL     1      -8.527 -11.946  17.819  0.00  0.00    +0.027 C 
ATOM     11  C   UNL     1      -7.119  -9.924  17.908  0.00  0.00    +0.054 C 
ATOM     12  C   UNL     1      -7.983 -10.866  18.749  0.00  0.00    +0.018 C 
ATOM     13  C   UNL     1      -9.365 -11.315  16.688  0.00  0.00    +0.114 C 
ATOM     14  C   UNL     1      -7.346 -12.761  17.275  0.00  0.00    +0.130 C 
ATOM     15  C   UNL     1      -7.997  -9.270  16.825  0.00  0.00    +0.119 C 
ATOM     16  C   UNL     1      -5.970 -10.672  17.258  0.00  0.00    +0.027 A 
ATOM     17  C   UNL     1      -4.814 -10.040  16.997  0.00  0.00    +0.024 A 
ATOM     18  C   UNL     1      -5.124 -12.739  16.240  0.00  0.00    +0.273 A 
ATOM     19  C   UNL     1      -8.516 -10.368  14.555  0.00  0.00    +0.306 C 
ATOM     20  C   UNL     1      -3.861 -11.991  15.942  0.00  0.00    +0.099 A 
ATOM     21  C   UNL     1      -3.741 -10.715  16.324  0.00  0.00    +0.030 A 
ATOM     33  H   UNL     1      -7.677  -8.472  14.445  0.00  0.00    +0.156 HD
ENDROOT
BRANCH   8  22
ATOM     22  C   UNL     1      -6.980  -9.452  12.780  0.00  0.00    +0.035 A 
ATOM     24  C   UNL     1      -7.582  -9.170  11.554  0.00  0.00    +0.024 A 
ATOM     25  C   UNL     1      -5.636  -9.818  12.830  0.00  0.00    +0.024 A 
ATOM     27  C   UNL     1      -6.838  -9.254  10.376  0.00  0.00    +0.013 A 
ATOM     28  C   UNL     1      -4.892  -9.902  11.652  0.00  0.00    +0.013 A 
ATOM     29  C   UNL     1      -5.493  -9.620  10.426  0.00  0.00    +0.017 A 
BRANCH  29  30
ATOM      5  O   UNL     1      -3.906  -8.815   8.876  0.00  0.00    -0.292 OA
ATOM     30  C   UNL     1      -4.717  -9.706   9.199  0.00  0.00    +0.160 C 
ATOM     32  C   UNL     1      -4.884 -10.902   8.267  0.00  0.00    +0.091 C 
ENDBRANCH  29  30
ENDBRANCH   8  22
BRANCH  20   9
ATOM      4  O   UNL     1      -2.422 -11.062  13.649  0.00  0.00    -0.275 OA
ATOM      9  N   UNL     1      -2.863 -12.655  15.292  0.00  0.00    -0.281 N 
ATOM     23  C   UNL     1      -2.197 -12.146  14.186  0.00  0.00    +0.227 C 
ATOM     34  H   UNL     1      -2.766 -13.646  15.497  0.00  0.00    +0.155 HD
BRANCH  23  26
ATOM     26  C   UNL     1      -1.135 -13.085  13.660  0.00  0.00    +0.164 C 
BRANCH  26   1
ATOM      1  S   UNL     1      -1.874 -14.713  13.390  0.00  0.00    -0.155 S 
ATOM     31  C   UNL     1      -0.357 -15.695  13.357  0.00  0.00    +0.085 C 
ENDBRANCH  26   1
ENDBRANCH  23  26
ENDBRANCH  20   9
TORSDOF 5
ENDMDL
MODEL 3
REMARK VINA RESULT:      -6.3     29.263     31.114
REMARK  Name = 7155623
REMARK  7 active torsions:
REMARK  status: ('A' for Active; 'I' for Inactive)
REMARK    1  A    between atoms: S_1  and  C_26
REMARK    2  A    between atoms: S_1  and  C_31
REMARK    3  A    between atoms: N_8  and  C_22
REMARK    4  A    between atoms: N_9  and  C_20
REMARK    5  A    between atoms: C_23  and  C_26
REMARK    6  A    between atoms: C_29  and  C_30
REMARK    7  A    between atoms: C_30  and  C_32
REMARK                            x       y       z     vdW  Elec       q    Type
REMARK                         _______ _______ _______ _____ _____    ______ ____
ROOT
ATOM      2  O   UNL     1      13.552  11.092  21.850  0.00  0.00    -0.266 OA
ATOM      3  O   UNL     1      14.535   6.203  20.870  0.00  0.00    -0.252 OA
ATOM      6  N   UNL     1      13.824   7.129  18.874  0.00  0.00    -0.284 N 
ATOM      7  N   UNL     1      13.433  10.134  19.723  0.00  0.00    -0.310 N 
ATOM      8  N   UNL     1      16.126   6.869  19.317  0.00  0.00    -0.269 N 
ATOM     10  C   UNL     1      11.684   8.371  19.095  0.00  0.00    +0.027 C 
ATOM     11  C   UNL     1      13.355   9.087  17.431  0.00  0.00    +0.054 C 
ATOM     12  C   UNL     1      11.856   8.912  17.679  0.00  0.00    +0.018 C 
ATOM     13  C   UNL     1      12.414   7.022  19.252  0.00  0.00    +0.114 C 
ATOM     14  C   UNL     1      12.198   9.424  20.086  0.00  0.00    +0.130 C 
ATOM     15  C   UNL     1      14.046   7.715  17.540  0.00  0.00    +0.119 C 
ATOM     16  C   UNL     1      13.964  10.052  18.430  0.00  0.00    +0.027 A 
ATOM     17  C   UNL     1      15.031  10.794  18.089  0.00  0.00    +0.024 A 
ATOM     18  C   UNL     1      13.994  10.972  20.706  0.00  0.00    +0.273 A 
ATOM     19  C   UNL     1      14.820   6.682  19.768  0.00  0.00    +0.306 C 
ATOM     20  C   UNL     1      15.198  11.762  20.295  0.00  0.00    +0.099 A 
ATOM     21  C   UNL     1      15.659  11.664  19.043  0.00  0.00    +0.030 A 
ATOM     33  H   UNL     1      16.295   6.855  18.318  0.00  0.00    +0.156 HD
ENDROOT
BRANCH   8  22
ATOM     22  C   UNL     1      17.283   7.094  20.102  0.00  0.00    +0.035 A 
ATOM     24  C   UNL     1      18.320   6.162  20.099  0.00  0.00    +0.024 A 
ATOM     25  C   UNL     1      17.383   8.247  20.881  0.00  0.00    +0.024 A 
ATOM     27  C   UNL     1      19.459   6.383  20.874  0.00  0.00    +0.013 A 
ATOM     28  C   UNL     1      18.522   8.468  21.656  0.00  0.00    +0.013 A 
ATOM     29  C   UNL     1      19.560   7.536  21.652  0.00  0.00    +0.017 A 
BRANCH  29  30
ATOM      5  O   UNL     1      21.876   7.881  21.940  0.00  0.00    -0.292 OA
ATOM     30  C   UNL     1      20.748   7.766  22.459  0.00  0.00    +0.160 C 
ATOM     32  C   UNL     1      20.637   7.872  23.977  0.00  0.00    +0.091 C 
ENDBRANCH  29  30
ENDBRANCH   8  22
BRANCH  20   9
ATOM      4  O   UNL     1      14.576  14.515  20.773  0.00  0.00    -0.275 OA
ATOM      9  N   UNL     1      15.781  12.572  21.225  0.00  0.00    -0.281 N 
ATOM     23  C   UNL     1      15.430  13.902  21.413  0.00  0.00    +0.227 C 
ATOM     34  H   UNL     1      16.651  12.243  21.633  0.00  0.00    +0.155 HD
BRANCH  23  26
ATOM     26  C   UNL     1      16.231  14.568  22.508  0.00  0.00    +0.164 C 
BRANCH  26   1
ATOM      1  S   UNL     1      16.252  13.488  23.958  0.00  0.00    -0.155 S 
ATOM     31  C   UNL     1      14.530  13.691  24.470  0.00  0.00    +0.085 C 
ENDBRANCH  26   1
ENDBRANCH  23  26
ENDBRANCH  20   9
TORSDOF 5
ENDMDL
MODEL 4
REMARK VINA RESULT:      -6.3     25.637     28.864
REMARK  Name = 7155623
REMARK  7 active torsions:
REMARK  status: ('A' for Active; 'I' for Inactive)
REMARK    1  A    between atoms: S_1  and  C_26
REMARK    2  A    between atoms: S_1  and  C_31
REMARK    3  A    between atoms: N_8  and  C_22
REMARK    4  A    between atoms: N_9  and  C_20
REMARK    5  A    between atoms: C_23  and  C_26
REMARK    6  A    between atoms: C_29  and  C_30
REMARK    7  A    between atoms: C_30  and  C_32
REMARK                            x       y       z     vdW  Elec       q    Type
REMARK                         _______ _______ _______ _____ _____    ______ ____
ROOT
ATOM      2  O   UNL     1      10.173   7.390   1.199  0.00  0.00    -0.266 OA
ATOM      3  O   UNL     1      11.590   9.550   5.576  0.00  0.00    -0.252 OA
ATOM      6  N   UNL     1      10.332   7.699   6.151  0.00  0.00    -0.284 N 
ATOM      7  N   UNL     1       9.721   6.493   3.308  0.00  0.00    -0.310 N 
ATOM      8  N   UNL     1      12.688   7.588   6.150  0.00  0.00    -0.269 N 
ATOM     10  C   UNL     1       8.141   7.620   4.981  0.00  0.00    +0.027 C 
ATOM     11  C   UNL     1       9.285   5.524   5.594  0.00  0.00    +0.054 C 
ATOM     12  C   UNL     1       7.917   6.204   5.504  0.00  0.00    +0.018 C 
ATOM     13  C   UNL     1       9.071   8.407   5.928  0.00  0.00    +0.114 C 
ATOM     14  C   UNL     1       8.709   7.530   3.558  0.00  0.00    +0.130 C 
ATOM     15  C   UNL     1      10.168   6.301   6.588  0.00  0.00    +0.119 C 
ATOM     16  C   UNL     1       9.958   5.472   4.236  0.00  0.00    +0.027 A 
ATOM     17  C   UNL     1      10.808   4.474   3.940  0.00  0.00    +0.024 A 
ATOM     18  C   UNL     1      10.363   6.524   2.055  0.00  0.00    +0.273 A 
ATOM     19  C   UNL     1      11.554   8.373   5.944  0.00  0.00    +0.306 C 
ATOM     20  C   UNL     1      11.322   5.409   1.775  0.00  0.00    +0.099 A 
ATOM     21  C   UNL     1      11.503   4.446   2.685  0.00  0.00    +0.030 A 
ATOM     33  H   UNL     1      12.632   6.830   6.820  0.00  0.00    +0.156 HD
ENDROOT
BRANCH   8  22
ATOM     22  C   UNL     1      13.947   7.713   5.514  0.00  0.00    +0.035 A 
ATOM     24  C   UNL     1      14.102   7.307   4.189  0.00  0.00    +0.024 A 
ATOM     25  C   UNL     1      15.032   8.240   6.213  0.00  0.00    +0.024 A 
ATOM     27  C   UNL     1      15.343   7.428   3.562  0.00  0.00    +0.013 A 
ATOM     28  C   UNL     1      16.273   8.362   5.587  0.00  0.00    +0.013 A 
ATOM     29  C   UNL     1      16.428   7.956   4.262  0.00  0.00    +0.017 A 
BRANCH  29  30
ATOM      5  O   UNL     1      17.815   8.212   2.371  0.00  0.00    -0.292 OA
ATOM     30  C   UNL     1      17.721   8.084   3.608  0.00  0.00    +0.160 C 
ATOM     32  C   UNL     1      19.005   8.061   4.432  0.00  0.00    +0.091 C 
ENDBRANCH  29  30
ENDBRANCH   8  22
BRANCH  20   9
ATOM      4  O   UNL     1      10.560   3.972  -0.581  0.00  0.00    -0.275 OA
ATOM      9  N   UNL     1      11.977   5.413   0.578  0.00  0.00    -0.281 N 
ATOM     23  C   UNL     1      11.552   4.698  -0.533  0.00  0.00    +0.227 C 
ATOM     34  H   UNL     1      12.926   5.777   0.581  0.00  0.00    +0.155 HD
BRANCH  23  26
ATOM     26  C   UNL     1      12.460   4.879  -1.727  0.00  0.00    +0.164 C 
BRANCH  26   1
ATOM      1  S   UNL     1      13.968   5.722  -1.193  0.00  0.00    -0.155 S 
ATOM     31  C   UNL     1      15.110   4.324  -1.298  0.00  0.00    +0.085 C 
ENDBRANCH  26   1
ENDBRANCH  23  26
ENDBRANCH  20   9
TORSDOF 5
ENDMDL
MODEL 5
REMARK VINA RESULT:      -6.3     25.055     28.673
REMARK  Name = 7155623
REMARK  7 active torsions:
REMARK  status: ('A' for Active; 'I' for Inactive)
REMARK    1  A    between atoms: S_1  and  C_26
REMARK    2  A    between atoms: S_1  and  C_31
REMARK    3  A    between atoms: N_8  and  C_22
REMARK    4  A    between atoms: N_9  and  C_20
REMARK    5  A    between atoms: C_23  and  C_26
REMARK    6  A    between atoms: C_29  and  C_30
REMARK    7  A    between atoms: C_30  and  C_32
REMARK                            x       y       z     vdW  Elec       q    Type
REMARK                         _______ _______ _______ _____ _____    ______ ____
ROOT
ATOM      2  O   UNL     1      13.936   6.563   7.261  0.00  0.00    -0.266 OA
ATOM      3  O   UNL     1      10.158   3.951   5.085  0.00  0.00    -0.252 OA
ATOM      6  N   UNL     1       9.288   6.030   5.601  0.00  0.00    -0.284 N 
ATOM      7  N   UNL     1      11.833   7.459   6.779  0.00  0.00    -0.310 N 
ATOM      8  N   UNL     1      10.048   5.563   3.418  0.00  0.00    -0.269 N 
ATOM     10  C   UNL     1       9.696   6.686   7.963  0.00  0.00    +0.027 C 
ATOM     11  C   UNL     1       9.571   8.415   6.210  0.00  0.00    +0.054 C 
ATOM     12  C   UNL     1       9.189   8.093   7.656  0.00  0.00    +0.018 C 
ATOM     13  C   UNL     1       9.065   5.660   7.000  0.00  0.00    +0.114 C 
ATOM     14  C   UNL     1      11.228   6.691   7.878  0.00  0.00    +0.130 C 
ATOM     15  C   UNL     1       8.881   7.407   5.271  0.00  0.00    +0.119 C 
ATOM     16  C   UNL     1      11.074   8.355   6.016  0.00  0.00    +0.027 A 
ATOM     17  C   UNL     1      11.668   9.126   5.090  0.00  0.00    +0.024 A 
ATOM     18  C   UNL     1      13.224   7.323   6.601  0.00  0.00    +0.273 A 
ATOM     19  C   UNL     1       9.847   5.087   4.713  0.00  0.00    +0.306 C 
ATOM     20  C   UNL     1      13.843   8.180   5.542  0.00  0.00    +0.099 A 
ATOM     21  C   UNL     1      13.080   9.033   4.850  0.00  0.00    +0.030 A 
ATOM     33  H   UNL     1       9.428   6.285   3.070  0.00  0.00    +0.156 HD
ENDROOT
BRANCH   8  22
ATOM     22  C   UNL     1      11.049   5.160   2.500  0.00  0.00    +0.035 A 
ATOM     24  C   UNL     1      12.366   5.583   2.674  0.00  0.00    +0.024 A 
ATOM     25  C   UNL     1      10.716   4.342   1.421  0.00  0.00    +0.024 A 
ATOM     27  C   UNL     1      13.351   5.188   1.769  0.00  0.00    +0.013 A 
ATOM     28  C   UNL     1      11.701   3.946   0.516  0.00  0.00    +0.013 A 
ATOM     29  C   UNL     1      13.018   4.369   0.690  0.00  0.00    +0.017 A 
BRANCH  29  30
ATOM      5  O   UNL     1      13.760   3.596  -1.412  0.00  0.00    -0.292 OA
ATOM     30  C   UNL     1      14.046   3.956  -0.253  0.00  0.00    +0.160 C 
ATOM     32  C   UNL     1      15.514   3.953   0.163  0.00  0.00    +0.091 C 
ENDBRANCH  29  30
ENDBRANCH   8  22
BRANCH  20   9
ATOM      4  O   UNL     1      15.876   9.939   6.524  0.00  0.00    -0.275 OA
ATOM      9  N   UNL     1      15.185   8.064   5.327  0.00  0.00    -0.281 N 
ATOM     23  C   UNL     1      16.124   8.949   5.838  0.00  0.00    +0.227 C 
ATOM     34  H   UNL     1      15.473   7.434   4.583  0.00  0.00    +0.155 HD
BRANCH  23  26
ATOM     26  C   UNL     1      17.539   8.588   5.449  0.00  0.00    +0.164 C 
BRANCH  26   1
ATOM      1  S   UNL     1      18.677   9.756   6.231  0.00  0.00    -0.155 S 
ATOM     31  C   UNL     1      19.828   8.567   6.957  0.00  0.00    +0.085 C 
ENDBRANCH  26   1
ENDBRANCH  23  26
ENDBRANCH  20   9
TORSDOF 5
ENDMDL
MODEL 6
REMARK VINA RESULT:      -6.3     29.030     30.926
REMARK  Name = 7155623
REMARK  7 active torsions:
REMARK  status: ('A' for Active; 'I' for Inactive)
REMARK    1  A    between atoms: S_1  and  C_26
REMARK    2  A    between atoms: S_1  and  C_31
REMARK    3  A    between atoms: N_8  and  C_22
REMARK    4  A    between atoms: N_9  and  C_20
REMARK    5  A    between atoms: C_23  and  C_26
REMARK    6  A    between atoms: C_29  and  C_30
REMARK    7  A    between atoms: C_30  and  C_32
REMARK                            x       y       z     vdW  Elec       q    Type
REMARK                         _______ _______ _______ _____ _____    ______ ____
ROOT
ATOM      2  O   UNL     1      13.728  11.496  21.704  0.00  0.00    -0.266 OA
ATOM      3  O   UNL     1      14.096   6.429  21.589  0.00  0.00    -0.252 OA
ATOM      6  N   UNL     1      12.999   7.038  19.648  0.00  0.00    -0.284 N 
ATOM      7  N   UNL     1      13.038  10.175  19.906  0.00  0.00    -0.310 N 
ATOM      8  N   UNL     1      15.315   6.595  19.621  0.00  0.00    -0.269 N 
ATOM     10  C   UNL     1      11.067   8.545  20.064  0.00  0.00    +0.027 C 
ATOM     11  C   UNL     1      12.341   8.730  17.962  0.00  0.00    +0.054 C 
ATOM     12  C   UNL     1      10.935   8.785  18.563  0.00  0.00    +0.018 C 
ATOM     13  C   UNL     1      11.715   7.173  20.339  0.00  0.00    +0.114 C 
ATOM     14  C   UNL     1      11.877   9.698  20.673  0.00  0.00    +0.130 C 
ATOM     15  C   UNL     1      12.938   7.331  18.205  0.00  0.00    +0.119 C 
ATOM     16  C   UNL     1      13.238   9.787  18.576  0.00  0.00    +0.027 A 
ATOM     17  C   UNL     1      14.243  10.319  17.861  0.00  0.00    +0.024 A 
ATOM     18  C   UNL     1      13.875  11.111  20.543  0.00  0.00    +0.273 A 
ATOM     19  C   UNL     1      14.144   6.654  20.376  0.00  0.00    +0.306 C 
ATOM     20  C   UNL     1      15.000  11.660  19.721  0.00  0.00    +0.099 A 
ATOM     21  C   UNL     1      15.141  11.273  18.449  0.00  0.00    +0.030 A 
ATOM     33  H   UNL     1      15.240   6.373  18.635  0.00  0.00    +0.156 HD
ENDROOT
BRANCH   8  22
ATOM     22  C   UNL     1      16.639   6.825  20.069  0.00  0.00    +0.035 A 
ATOM     24  C   UNL     1      17.655   5.934  19.727  0.00  0.00    +0.024 A 
ATOM     25  C   UNL     1      16.924   7.943  20.853  0.00  0.00    +0.024 A 
ATOM     27  C   UNL     1      18.959   6.160  20.169  0.00  0.00    +0.013 A 
ATOM     28  C   UNL     1      18.228   8.169  21.295  0.00  0.00    +0.013 A 
ATOM     29  C   UNL     1      19.245   7.278  20.953  0.00  0.00    +0.017 A 
BRANCH  29  30
ATOM      5  O   UNL     1      20.842   7.879  22.582  0.00  0.00    -0.292 OA
ATOM     30  C   UNL     1      20.605   7.514  21.414  0.00  0.00    +0.160 C 
ATOM     32  C   UNL     1      21.782   7.320  20.464  0.00  0.00    +0.091 C 
ENDBRANCH  29  30
ENDBRANCH   8  22
BRANCH  20   9
ATOM      4  O   UNL     1      17.807  11.308  20.158  0.00  0.00    -0.275 OA
ATOM      9  N   UNL     1      15.844  12.556  20.308  0.00  0.00    -0.281 N 
ATOM     23  C   UNL     1      17.202  12.329  20.486  0.00  0.00    +0.227 C 
ATOM     34  H   UNL     1      15.412  13.315  20.828  0.00  0.00    +0.155 HD
BRANCH  23  26
ATOM     26  C   UNL     1      17.904  13.483  21.162  0.00  0.00    +0.164 C 
BRANCH  26   1
ATOM      1  S   UNL     1      19.353  13.942  20.182  0.00  0.00    -0.155 S 
ATOM     31  C   UNL     1      18.501  14.548  18.708  0.00  0.00    +0.085 C 
ENDBRANCH  26   1
ENDBRANCH  23  26
ENDBRANCH  20   9
TORSDOF 5
ENDMDL
MODEL 7
REMARK VINA RESULT:      -6.2     28.898     30.570
REMARK  Name = 7155623
REMARK  7 active torsions:
REMARK  status: ('A' for Active; 'I' for Inactive)
REMARK    1  A    between atoms: S_1  and  C_26
REMARK    2  A    between atoms: S_1  and  C_31
REMARK    3  A    between atoms: N_8  and  C_22
REMARK    4  A    between atoms: N_9  and  C_20
REMARK    5  A    between atoms: C_23  and  C_26
REMARK    6  A    between atoms: C_29  and  C_30
REMARK    7  A    between atoms: C_30  and  C_32
REMARK                            x       y       z     vdW  Elec       q    Type
REMARK                         _______ _______ _______ _____ _____    ______ ____
ROOT
ATOM      2  O   UNL     1      15.535   9.491  22.341  0.00  0.00    -0.266 OA
ATOM      3  O   UNL     1      14.351   7.432  17.848  0.00  0.00    -0.252 OA
ATOM      6  N   UNL     1      12.345   7.800  18.935  0.00  0.00    -0.284 N 
ATOM      7  N   UNL     1      13.349   9.187  21.576  0.00  0.00    -0.310 N 
ATOM      8  N   UNL     1      13.134   9.339  17.332  0.00  0.00    -0.269 N 
ATOM     10  C   UNL     1      12.312   6.869  21.239  0.00  0.00    +0.027 C 
ATOM     11  C   UNL     1      11.001   8.889  20.709  0.00  0.00    +0.054 C 
ATOM     12  C   UNL     1      10.988   7.581  21.504  0.00  0.00    +0.018 C 
ATOM     13  C   UNL     1      12.480   6.580  19.733  0.00  0.00    +0.114 C 
ATOM     14  C   UNL     1      13.451   7.736  21.791  0.00  0.00    +0.130 C 
ATOM     15  C   UNL     1      11.114   8.563  19.208  0.00  0.00    +0.119 C 
ATOM     16  C   UNL     1      12.157   9.774  21.134  0.00  0.00    +0.027 A 
ATOM     17  C   UNL     1      12.053  11.110  21.048  0.00  0.00    +0.024 A 
ATOM     18  C   UNL     1      14.473   9.960  21.929  0.00  0.00    +0.273 A 
ATOM     19  C   UNL     1      13.351   8.138  18.007  0.00  0.00    +0.306 C 
ATOM     20  C   UNL     1      14.324  11.444  21.794  0.00  0.00    +0.099 A 
ATOM     21  C   UNL     1      13.160  11.959  21.384  0.00  0.00    +0.030 A 
ATOM     33  H   UNL     1      12.177   9.636  17.178  0.00  0.00    +0.156 HD
ENDROOT
BRANCH   8  22
ATOM     22  C   UNL     1      14.111  10.231  16.828  0.00  0.00    +0.035 A 
ATOM     24  C   UNL     1      14.525  10.135  15.500  0.00  0.00    +0.024 A 
ATOM     25  C   UNL     1      14.662  11.204  17.662  0.00  0.00    +0.024 A 
ATOM     27  C   UNL     1      15.489  11.013  15.004  0.00  0.00    +0.013 A 
ATOM     28  C   UNL     1      15.627  12.082  17.166  0.00  0.00    +0.013 A 
ATOM     29  C   UNL     1      16.039  11.987  15.838  0.00  0.00    +0.017 A 
BRANCH  29  30
ATOM      5  O   UNL     1      16.839  13.582  14.294  0.00  0.00    -0.292 OA
ATOM     30  C   UNL     1      17.044  12.903  15.320  0.00  0.00    +0.160 C 
ATOM     32  C   UNL     1      18.386  13.052  16.029  0.00  0.00    +0.091 C 
ENDBRANCH  29  30
ENDBRANCH   8  22
BRANCH  20   9
ATOM      4  O   UNL     1      14.973  12.465  24.389  0.00  0.00    -0.275 OA
ATOM      9  N   UNL     1      15.396  12.226  22.110  0.00  0.00    -0.281 N 
ATOM     23  C   UNL     1      15.661  12.685  23.393  0.00  0.00    +0.227 C 
ATOM     34  H   UNL     1      15.885  12.663  21.333  0.00  0.00    +0.155 HD
BRANCH  23  26
ATOM     26  C   UNL     1      16.911  13.531  23.464  0.00  0.00    +0.164 C 
BRANCH  26   1
ATOM      1  S   UNL     1      18.152  12.659  24.448  0.00  0.00    -0.155 S 
ATOM     31  C   UNL     1      18.817  11.586  23.154  0.00  0.00    +0.085 C 
ENDBRANCH  26   1
ENDBRANCH  23  26
ENDBRANCH  20   9
TORSDOF 5
ENDMDL
MODEL 8
REMARK VINA RESULT:      -5.8      2.664      6.182
REMARK  Name = 7155623
REMARK  7 active torsions:
REMARK  status: ('A' for Active; 'I' for Inactive)
REMARK    1  A    between atoms: S_1  and  C_26
REMARK    2  A    between atoms: S_1  and  C_31
REMARK    3  A    between atoms: N_8  and  C_22
REMARK    4  A    between atoms: N_9  and  C_20
REMARK    5  A    between atoms: C_23  and  C_26
REMARK    6  A    between atoms: C_29  and  C_30
REMARK    7  A    between atoms: C_30  and  C_32
REMARK                            x       y       z     vdW  Elec       q    Type
REMARK                         _______ _______ _______ _____ _____    ______ ____
ROOT
ATOM      2  O   UNL     1      -7.233 -13.087  14.366  0.00  0.00    -0.266 OA
ATOM      3  O   UNL     1      -9.830 -11.284  18.345  0.00  0.00    -0.252 OA
ATOM      6  N   UNL     1      -7.594 -10.966  18.839  0.00  0.00    -0.284 N 
ATOM      7  N   UNL     1      -6.249 -12.017  16.195  0.00  0.00    -0.310 N 
ATOM      8  N   UNL     1      -8.888  -9.196  17.971  0.00  0.00    -0.269 N 
ATOM     10  C   UNL     1      -6.239 -13.029  18.548  0.00  0.00    +0.027 C 
ATOM     11  C   UNL     1      -5.216 -10.821  18.158  0.00  0.00    +0.054 C 
ATOM     12  C   UNL     1      -4.963 -12.214  18.737  0.00  0.00    +0.018 C 
ATOM     13  C   UNL     1      -7.425 -12.355  19.269  0.00  0.00    +0.114 C 
ATOM     14  C   UNL     1      -6.495 -13.192  17.044  0.00  0.00    +0.130 C 
ATOM     15  C   UNL     1      -6.368 -10.154  18.935  0.00  0.00    +0.119 C 
ATOM     16  C   UNL     1      -5.565 -10.898  16.684  0.00  0.00    +0.027 A 
ATOM     17  C   UNL     1      -5.256  -9.882  15.862  0.00  0.00    +0.024 A 
ATOM     18  C   UNL     1      -6.646 -12.116  14.847  0.00  0.00    +0.273 A 
ATOM     19  C   UNL     1      -8.856 -10.526  18.390  0.00  0.00    +0.306 C 
ATOM     20  C   UNL     1      -6.307 -10.951  13.969  0.00  0.00    +0.099 A 
ATOM     21  C   UNL     1      -5.637  -9.911  14.478  0.00  0.00    +0.030 A 
ATOM     33  H   UNL     1      -8.243  -8.542  18.401  0.00  0.00    +0.156 HD
ENDROOT
BRANCH   8  22
ATOM     22  C   UNL     1      -9.726  -8.626  16.982  0.00  0.00    +0.035 A 
ATOM     24  C   UNL     1     -10.562  -7.557  17.307  0.00  0.00    +0.024 A 
ATOM     25  C   UNL     1      -9.718  -9.135  15.684  0.00  0.00    +0.024 A 
ATOM     27  C   UNL     1     -11.388  -6.997  16.333  0.00  0.00    +0.013 A 
ATOM     28  C   UNL     1     -10.544  -8.574  14.710  0.00  0.00    +0.013 A 
ATOM     29  C   UNL     1     -11.379  -7.506  15.034  0.00  0.00    +0.017 A 
BRANCH  29  30
ATOM      5  O   UNL     1     -12.225  -7.325  12.839  0.00  0.00    -0.292 OA
ATOM     30  C   UNL     1     -12.240  -6.920  14.019  0.00  0.00    +0.160 C 
ATOM     32  C   UNL     1     -13.192  -5.784  14.380  0.00  0.00    +0.091 C 
ENDBRANCH  29  30
ENDBRANCH   8  22
BRANCH  20   9
ATOM      4  O   UNL     1      -4.631 -11.572  11.733  0.00  0.00    -0.275 OA
ATOM      9  N   UNL     1      -6.691 -11.001  12.662  0.00  0.00    -0.281 N 
ATOM     23  C   UNL     1      -5.829 -11.316  11.620  0.00  0.00    +0.227 C 
ATOM     34  H   UNL     1      -7.584 -10.574  12.433  0.00  0.00    +0.155 HD
BRANCH  23  26
ATOM     26  C   UNL     1      -6.512 -11.300  10.272  0.00  0.00    +0.164 C 
BRANCH  26   1
ATOM      1  S   UNL     1      -6.247  -9.686   9.500  0.00  0.00    -0.155 S 
ATOM     31  C   UNL     1      -4.862 -10.125   8.424  0.00  0.00    +0.085 C 
ENDBRANCH  26   1
ENDBRANCH  23  26
ENDBRANCH  20   9
TORSDOF 5
ENDMDL
MODEL 9
REMARK VINA RESULT:      -5.8     25.290     29.329
REMARK  Name = 7155623
REMARK  7 active torsions:
REMARK  status: ('A' for Active; 'I' for Inactive)
REMARK    1  A    between atoms: S_1  and  C_26
REMARK    2  A    between atoms: S_1  and  C_31
REMARK    3  A    between atoms: N_8  and  C_22
REMARK    4  A    between atoms: N_9  and  C_20
REMARK    5  A    between atoms: C_23  and  C_26
REMARK    6  A    between atoms: C_29  and  C_30
REMARK    7  A    between atoms: C_30  and  C_32
REMARK                            x       y       z     vdW  Elec       q    Type
REMARK                         _______ _______ _______ _____ _____    ______ ____
ROOT
ATOM      2  O   UNL     1      13.100   8.636   0.519  0.00  0.00    -0.266 OA
ATOM      3  O   UNL     1       9.812   4.901   1.552  0.00  0.00    -0.252 OA
ATOM      6  N   UNL     1      11.832   3.872   1.101  0.00  0.00    -0.284 N 
ATOM      7  N   UNL     1      13.683   6.377   0.648  0.00  0.00    -0.310 N 
ATOM      8  N   UNL     1      11.157   4.253   3.328  0.00  0.00    -0.269 N 
ATOM     10  C   UNL     1      12.848   4.634  -1.034  0.00  0.00    +0.027 C 
ATOM     11  C   UNL     1      14.295   3.939   0.836  0.00  0.00    +0.054 C 
ATOM     12  C   UNL     1      14.134   3.891  -0.684  0.00  0.00    +0.018 C 
ATOM     13  C   UNL     1      11.636   3.975  -0.346  0.00  0.00    +0.114 C 
ATOM     14  C   UNL     1      13.011   6.106  -0.632  0.00  0.00    +0.130 C 
ATOM     15  C   UNL     1      13.098   3.225   1.491  0.00  0.00    +0.119 C 
ATOM     16  C   UNL     1      14.375   5.370   1.331  0.00  0.00    +0.027 A 
ATOM     17  C   UNL     1      15.073   5.664   2.441  0.00  0.00    +0.024 A 
ATOM     18  C   UNL     1      13.678   7.713   1.095  0.00  0.00    +0.273 A 
ATOM     19  C   UNL     1      10.844   4.372   1.975  0.00  0.00    +0.306 C 
ATOM     20  C   UNL     1      14.446   7.993   2.350  0.00  0.00    +0.099 A 
ATOM     21  C   UNL     1      15.105   7.002   2.959  0.00  0.00    +0.030 A 
ATOM     33  H   UNL     1      11.752   3.485   3.618  0.00  0.00    +0.156 HD
ENDROOT
BRANCH   8  22
ATOM     22  C   UNL     1      10.746   5.103   4.384  0.00  0.00    +0.035 A 
ATOM     24  C   UNL     1       9.787   4.666   5.298  0.00  0.00    +0.024 A 
ATOM     25  C   UNL     1      11.297   6.378   4.507  0.00  0.00    +0.024 A 
ATOM     27  C   UNL     1       9.381   5.504   6.337  0.00  0.00    +0.013 A 
ATOM     28  C   UNL     1      10.891   7.216   5.546  0.00  0.00    +0.013 A 
ATOM     29  C   UNL     1       9.933   6.779   6.460  0.00  0.00    +0.017 A 
BRANCH  29  30
ATOM      5  O   UNL     1       8.551   7.354   8.283  0.00  0.00    -0.292 OA
ATOM     30  C   UNL     1       9.510   7.652   7.544  0.00  0.00    +0.160 C 
ATOM     32  C   UNL     1      10.238   8.968   7.800  0.00  0.00    +0.091 C 
ENDBRANCH  29  30
ENDBRANCH   8  22
BRANCH  20   9
ATOM      4  O   UNL     1      13.823   8.810   5.022  0.00  0.00    -0.275 OA
ATOM      9  N   UNL     1      14.450   9.271   2.826  0.00  0.00    -0.281 N 
ATOM     23  C   UNL     1      14.144   9.603   4.139  0.00  0.00    +0.227 C 
ATOM     34  H   UNL     1      14.461  10.015   2.133  0.00  0.00    +0.155 HD
BRANCH  23  26
ATOM     26  C   UNL     1      14.225  11.090   4.399  0.00  0.00    +0.164 C 
BRANCH  26   1
ATOM      1  S   UNL     1      13.884  11.396   6.149  0.00  0.00    -0.155 S 
ATOM     31  C   UNL     1      15.576  11.287   6.776  0.00  0.00    +0.085 C 
ENDBRANCH  26   1
ENDBRANCH  23  26
ENDBRANCH  20   9
TORSDOF 5
ENDMDL
MODEL 10
REMARK VINA RESULT:      -5.6     26.486     27.760
REMARK  Name = 7155623
REMARK  7 active torsions:
REMARK  status: ('A' for Active; 'I' for Inactive)
REMARK    1  A    between atoms: S_1  and  C_26
REMARK    2  A    between atoms: S_1  and  C_31
REMARK    3  A    between atoms: N_8  and  C_22
REMARK    4  A    between atoms: N_9  and  C_20
REMARK    5  A    between atoms: C_23  and  C_26
REMARK    6  A    between atoms: C_29  and  C_30
REMARK    7  A    between atoms: C_30  and  C_32
REMARK                            x       y       z     vdW  Elec       q    Type
REMARK                         _______ _______ _______ _____ _____    ______ ____
ROOT
ATOM      2  O   UNL     1       9.819  10.595   2.686  0.00  0.00    -0.266 OA
ATOM      3  O   UNL     1      13.612   7.299   3.447  0.00  0.00    -0.252 OA
ATOM      6  N   UNL     1      12.373   7.315   5.399  0.00  0.00    -0.284 N 
ATOM      7  N   UNL     1      10.053   9.290   4.610  0.00  0.00    -0.310 N 
ATOM      8  N   UNL     1      12.043   5.623   3.789  0.00  0.00    -0.269 N 
ATOM     10  C   UNL     1      11.977   9.608   6.271  0.00  0.00    +0.027 C 
ATOM     11  C   UNL     1      10.303   7.840   6.656  0.00  0.00    +0.054 C 
ATOM     12  C   UNL     1      10.996   9.045   7.295  0.00  0.00    +0.018 C 
ATOM     13  C   UNL     1      13.018   8.541   5.874  0.00  0.00    +0.114 C 
ATOM     14  C   UNL     1      11.182  10.117   5.062  0.00  0.00    +0.130 C 
ATOM     15  C   UNL     1      11.362   6.771   6.322  0.00  0.00    +0.119 C 
ATOM     16  C   UNL     1       9.561   8.241   5.396  0.00  0.00    +0.027 A 
ATOM     17  C   UNL     1       8.462   7.570   5.016  0.00  0.00    +0.024 A 
ATOM     18  C   UNL     1       9.435   9.668   3.402  0.00  0.00    +0.273 A 
ATOM     19  C   UNL     1      12.750   6.769   4.154  0.00  0.00    +0.306 C 
ATOM     20  C   UNL     1       8.228   8.877   3.000  0.00  0.00    +0.099 A 
ATOM     21  C   UNL     1       7.786   7.895   3.792  0.00  0.00    +0.030 A 
ATOM     33  H   UNL     1      11.692   5.021   4.525  0.00  0.00    +0.156 HD
ENDROOT
BRANCH   8  22
ATOM     22  C   UNL     1      11.733   5.186   2.479  0.00  0.00    +0.035 A 
ATOM     24  C   UNL     1      10.531   5.566   1.882  0.00  0.00    +0.024 A 
ATOM     25  C   UNL     1      12.629   4.373   1.785  0.00  0.00    +0.024 A 
ATOM     27  C   UNL     1      10.225   5.134   0.592  0.00  0.00    +0.013 A 
ATOM     28  C   UNL     1      12.323   3.941   0.494  0.00  0.00    +0.013 A 
ATOM     29  C   UNL     1      11.122   4.321  -0.102  0.00  0.00    +0.017 A 
BRANCH  29  30
ATOM      5  O   UNL     1       9.803   4.301  -2.058  0.00  0.00    -0.292 OA
ATOM     30  C   UNL     1      10.803   3.872  -1.448  0.00  0.00    +0.160 C 
ATOM     32  C   UNL     1      11.695   2.852  -2.150  0.00  0.00    +0.091 C 
ENDBRANCH  29  30
ENDBRANCH   8  22
BRANCH  20   9
ATOM      4  O   UNL     1       5.934  10.563   2.699  0.00  0.00    -0.275 OA
ATOM      9  N   UNL     1       7.612   9.201   1.827  0.00  0.00    -0.281 N 
ATOM     23  C   UNL     1       6.503  10.032   1.746  0.00  0.00    +0.227 C 
ATOM     34  H   UNL     1       7.845   8.632   1.018  0.00  0.00    +0.155 HD
BRANCH  23  26
ATOM     26  C   UNL     1       6.020  10.226   0.327  0.00  0.00    +0.164 C 
BRANCH  26   1
ATOM      1  S   UNL     1       4.552   9.204   0.065  0.00  0.00    -0.155 S 
ATOM     31  C   UNL     1       4.865   8.718  -1.648  0.00  0.00    +0.085 C 
ENDBRANCH  26   1
ENDBRANCH  23  26
ENDBRANCH  20   9
TORSDOF 5
ENDMDL
