MODEL 1
REMARK VINA RESULT:      -6.5      0.000      0.000
REMARK  Name = 56775241
REMARK  3 active torsions:
REMARK  status: ('A' for Active; 'I' for Inactive)
REMARK    1  A    between atoms: N_5  and  C_17
REMARK    2  A    between atoms: C_8  and  C_14
REMARK    3  A    between atoms: C_17  and  C_18
REMARK                            x       y       z     vdW  Elec       q    Type
REMARK                         _______ _______ _______ _____ _____    ______ ____
ROOT
ATOM      1  O   UNL     1      11.037   8.113  19.512  0.00  0.00    -0.364 OA
ATOM      2  O   UNL     1      12.923   8.979  15.211  0.00  0.00    -0.275 OA
ATOM      3  O   UNL     1      11.645   9.285  22.815  0.00  0.00    -0.273 OA
ATOM      4  N   UNL     1      13.124   8.914  17.516  0.00  0.00    -0.297 N 
ATOM      5  N   UNL     1      13.186   8.755  21.154  0.00  0.00    -0.288 N 
ATOM      7  C   UNL     1      13.419   8.318  19.784  0.00  0.00    +0.124 C 
ATOM      9  C   UNL     1      12.279   7.490  19.195  0.00  0.00    +0.158 C 
ATOM     10  C   UNL     1      13.535   9.482  18.796  0.00  0.00    +0.133 C 
ATOM     11  C   UNL     1      12.508   7.604  17.693  0.00  0.00    +0.141 C 
ATOM     14  C   UNL     1      13.283   9.491  16.267  0.00  0.00    +0.219 C 
ATOM     15  C   UNL     1      11.912   8.801  21.714  0.00  0.00    +0.242 C 
ATOM     16  C   UNL     1      10.823   8.119  20.905  0.00  0.00    +0.256 C 
ENDROOT
BRANCH  14   8
ATOM      8  C   UNL     1      13.970  10.817  16.225  0.00  0.00    +0.075 C 
ATOM     12  C   UNL     1      14.036  11.566  14.927  0.00  0.00    +0.013 C 
ATOM     13  C   UNL     1      15.275  10.941  15.496  0.00  0.00    +0.013 C 
ENDBRANCH  14   8
BRANCH   5  17
ATOM     17  C   UNL     1      14.326   9.303  21.876  0.00  0.00    +0.145 C 
BRANCH  17  18
ATOM      6  N   UNL     1      17.930   8.624  20.954  0.00  0.00    -0.263 NA
ATOM     18  C   UNL     1      15.594   8.558  21.572  0.00  0.00    -0.012 A 
ATOM     19  C   UNL     1      15.637   7.169  21.616  0.00  0.00    +0.008 A 
ATOM     20  C   UNL     1      16.758   9.233  21.239  0.00  0.00    +0.115 A 
ATOM     21  C   UNL     1      16.826   6.507  21.330  0.00  0.00    +0.020 A 
ATOM     22  C   UNL     1      17.934   7.273  21.007  0.00  0.00    +0.111 A 
ENDBRANCH  17  18
ENDBRANCH   5  17
TORSDOF 3
ENDMDL
MODEL 2
REMARK VINA RESULT:      -6.3      3.020      5.969
REMARK  Name = 56775241
REMARK  3 active torsions:
REMARK  status: ('A' for Active; 'I' for Inactive)
REMARK    1  A    between atoms: N_5  and  C_17
REMARK    2  A    between atoms: C_8  and  C_14
REMARK    3  A    between atoms: C_17  and  C_18
REMARK                            x       y       z     vdW  Elec       q    Type
REMARK                         _______ _______ _______ _____ _____    ______ ____
ROOT
ATOM      1  O   UNL     1      10.841   8.601  22.675  0.00  0.00    -0.364 OA
ATOM      2  O   UNL     1      13.195  12.402  24.351  0.00  0.00    -0.275 OA
ATOM      3  O   UNL     1      11.617   5.927  20.460  0.00  0.00    -0.273 OA
ATOM      4  N   UNL     1      12.871  10.803  22.709  0.00  0.00    -0.297 N 
ATOM      5  N   UNL     1      12.187   8.176  20.281  0.00  0.00    -0.288 N 
ATOM      7  C   UNL     1      12.147   9.508  20.870  0.00  0.00    +0.124 C 
ATOM      9  C   UNL     1      10.970   9.731  21.817  0.00  0.00    +0.158 C 
ATOM     10  C   UNL     1      13.356   9.807  21.759  0.00  0.00    +0.133 C 
ATOM     11  C   UNL     1      11.419  10.923  22.652  0.00  0.00    +0.141 C 
ATOM     14  C   UNL     1      13.642  11.572  23.565  0.00  0.00    +0.219 C 
ATOM     15  C   UNL     1      11.510   7.094  20.838  0.00  0.00    +0.242 C 
ATOM     16  C   UNL     1      10.518   7.446  21.934  0.00  0.00    +0.256 C 
ENDROOT
BRANCH  14   8
ATOM      8  C   UNL     1      15.122  11.379  23.489  0.00  0.00    +0.075 C 
ATOM     12  C   UNL     1      16.023  12.351  24.191  0.00  0.00    +0.013 C 
ATOM     13  C   UNL     1      15.945  12.349  22.693  0.00  0.00    +0.013 C 
ENDBRANCH  14   8
BRANCH   5  17
ATOM     17  C   UNL     1      13.104   7.974  19.167  0.00  0.00    +0.145 C 
BRANCH  17  18
ATOM      6  N   UNL     1      12.815   9.153  15.586  0.00  0.00    -0.263 NA
ATOM     18  C   UNL     1      12.498   8.392  17.858  0.00  0.00    -0.012 A 
ATOM     19  C   UNL     1      11.120   8.416  17.682  0.00  0.00    +0.008 A 
ATOM     20  C   UNL     1      13.296   8.766  16.788  0.00  0.00    +0.115 A 
ATOM     21  C   UNL     1      10.588   8.809  16.459  0.00  0.00    +0.020 A 
ATOM     22  C   UNL     1      11.470   9.165  15.452  0.00  0.00    +0.111 A 
ENDBRANCH  17  18
ENDBRANCH   5  17
TORSDOF 3
ENDMDL
MODEL 3
REMARK VINA RESULT:      -5.8     26.377     28.645
REMARK  Name = 56775241
REMARK  3 active torsions:
REMARK  status: ('A' for Active; 'I' for Inactive)
REMARK    1  A    between atoms: N_5  and  C_17
REMARK    2  A    between atoms: C_8  and  C_14
REMARK    3  A    between atoms: C_17  and  C_18
REMARK                            x       y       z     vdW  Elec       q    Type
REMARK                         _______ _______ _______ _____ _____    ______ ____
ROOT
ATOM      1  O   UNL     1      -7.788 -12.151  18.466  0.00  0.00    -0.364 OA
ATOM      2  O   UNL     1     -11.511  -9.667  16.803  0.00  0.00    -0.275 OA
ATOM      3  O   UNL     1      -4.328 -11.484  18.961  0.00  0.00    -0.273 OA
ATOM      4  N   UNL     1      -9.232 -10.061  16.878  0.00  0.00    -0.297 N 
ATOM      5  N   UNL     1      -5.691 -10.856  17.181  0.00  0.00    -0.288 N 
ATOM      7  C   UNL     1      -7.023 -10.851  16.592  0.00  0.00    +0.124 C 
ATOM      9  C   UNL     1      -7.910 -12.005  17.054  0.00  0.00    +0.158 C 
ATOM     10  C   UNL     1      -7.845  -9.619  16.980  0.00  0.00    +0.133 C 
ATOM     11  C   UNL     1      -9.315 -11.510  16.739  0.00  0.00    +0.141 C 
ATOM     14  C   UNL     1     -10.358  -9.255  16.892  0.00  0.00    +0.219 C 
ATOM     15  C   UNL     1      -5.396 -11.553  18.351  0.00  0.00    +0.242 C 
ATOM     16  C   UNL     1      -6.473 -12.517  18.819  0.00  0.00    +0.256 C 
ENDROOT
BRANCH  14   8
ATOM      8  C   UNL     1     -10.127  -7.783  16.996  0.00  0.00    +0.075 C 
ATOM     12  C   UNL     1     -11.269  -6.844  16.745  0.00  0.00    +0.013 C 
ATOM     13  C   UNL     1     -10.153  -6.950  15.748  0.00  0.00    +0.013 C 
ENDBRANCH  14   8
BRANCH   5  17
ATOM     17  C   UNL     1      -4.703  -9.965  16.589  0.00  0.00    +0.145 C 
BRANCH  17  18
ATOM      6  N   UNL     1      -3.085 -12.312  14.105  0.00  0.00    -0.263 NA
ATOM     18  C   UNL     1      -3.646 -10.719  15.834  0.00  0.00    -0.012 A 
ATOM     19  C   UNL     1      -2.299 -10.552  16.129  0.00  0.00    +0.008 A 
ATOM     20  C   UNL     1      -3.985 -11.602  14.821  0.00  0.00    +0.115 A 
ATOM     21  C   UNL     1      -1.342 -11.264  15.413  0.00  0.00    +0.020 A 
ATOM     22  C   UNL     1      -1.783 -12.124  14.420  0.00  0.00    +0.111 A 
ENDBRANCH  17  18
ENDBRANCH   5  17
TORSDOF 3
ENDMDL
MODEL 4
REMARK VINA RESULT:      -5.8      2.686      5.303
REMARK  Name = 56775241
REMARK  3 active torsions:
REMARK  status: ('A' for Active; 'I' for Inactive)
REMARK    1  A    between atoms: N_5  and  C_17
REMARK    2  A    between atoms: C_8  and  C_14
REMARK    3  A    between atoms: C_17  and  C_18
REMARK                            x       y       z     vdW  Elec       q    Type
REMARK                         _______ _______ _______ _____ _____    ______ ____
ROOT
ATOM      1  O   UNL     1      10.789   8.415  22.752  0.00  0.00    -0.364 OA
ATOM      2  O   UNL     1      12.474  12.137  25.223  0.00  0.00    -0.275 OA
ATOM      3  O   UNL     1      12.016   6.381  20.103  0.00  0.00    -0.273 OA
ATOM      4  N   UNL     1      12.434  10.860  23.294  0.00  0.00    -0.297 N 
ATOM      5  N   UNL     1      12.215   8.683  20.382  0.00  0.00    -0.288 N 
ATOM      7  C   UNL     1      11.951   9.851  21.211  0.00  0.00    +0.124 C 
ATOM      9  C   UNL     1      10.743   9.697  22.132  0.00  0.00    +0.158 C 
ATOM     10  C   UNL     1      13.085  10.157  22.193  0.00  0.00    +0.133 C 
ATOM     11  C   UNL     1      10.982  10.758  23.199  0.00  0.00    +0.141 C 
ATOM     14  C   UNL     1      13.059  11.558  24.313  0.00  0.00    +0.219 C 
ATOM     15  C   UNL     1      11.716   7.421  20.693  0.00  0.00    +0.242 C 
ATOM     16  C   UNL     1      10.667   7.391  21.791  0.00  0.00    +0.256 C 
ENDROOT
BRANCH  14   8
ATOM      8  C   UNL     1      14.551  11.618  24.265  0.00  0.00    +0.075 C 
ATOM     12  C   UNL     1      15.270  12.627  25.113  0.00  0.00    +0.013 C 
ATOM     13  C   UNL     1      15.214  12.803  23.624  0.00  0.00    +0.013 C 
ENDBRANCH  14   8
BRANCH   5  17
ATOM     17  C   UNL     1      13.165   8.849  19.290  0.00  0.00    +0.145 C 
BRANCH  17  18
ATOM      6  N   UNL     1      15.938   6.316  18.855  0.00  0.00    -0.263 NA
ATOM     18  C   UNL     1      14.435   8.085  19.529  0.00  0.00    -0.012 A 
ATOM     19  C   UNL     1      15.270   8.401  20.594  0.00  0.00    +0.008 A 
ATOM     20  C   UNL     1      14.810   7.044  18.695  0.00  0.00    +0.115 A 
ATOM     21  C   UNL     1      16.441   7.675  20.790  0.00  0.00    +0.020 A 
ATOM     22  C   UNL     1      16.727   6.652  19.902  0.00  0.00    +0.111 A 
ENDBRANCH  17  18
ENDBRANCH   5  17
TORSDOF 3
ENDMDL
MODEL 5
REMARK VINA RESULT:      -5.8     26.164     27.893
REMARK  Name = 56775241
REMARK  3 active torsions:
REMARK  status: ('A' for Active; 'I' for Inactive)
REMARK    1  A    between atoms: N_5  and  C_17
REMARK    2  A    between atoms: C_8  and  C_14
REMARK    3  A    between atoms: C_17  and  C_18
REMARK                            x       y       z     vdW  Elec       q    Type
REMARK                         _______ _______ _______ _____ _____    ______ ____
ROOT
ATOM      1  O   UNL     1      -1.754 -13.085  13.267  0.00  0.00    -0.364 OA
ATOM      2  O   UNL     1      -2.022  -9.172  10.544  0.00  0.00    -0.275 OA
ATOM      3  O   UNL     1      -4.115 -15.216  14.862  0.00  0.00    -0.273 OA
ATOM      4  N   UNL     1      -2.922 -10.555  12.167  0.00  0.00    -0.297 N 
ATOM      5  N   UNL     1      -4.143 -12.897  14.675  0.00  0.00    -0.288 N 
ATOM      7  C   UNL     1      -3.506 -11.695  14.153  0.00  0.00    +0.124 C 
ATOM      9  C   UNL     1      -2.005 -11.842  13.917  0.00  0.00    +0.158 C 
ATOM     10  C   UNL     1      -4.027 -11.294  12.770  0.00  0.00    +0.133 C 
ATOM     11  C   UNL     1      -1.696 -10.715  12.939  0.00  0.00    +0.141 C 
ATOM     14  C   UNL     1      -2.976  -9.779  11.021  0.00  0.00    +0.219 C 
ATOM     15  C   UNL     1      -3.563 -14.157  14.559  0.00  0.00    +0.242 C 
ATOM     16  C   UNL     1      -2.115 -14.165  14.099  0.00  0.00    +0.256 C 
ENDROOT
BRANCH  14   8
ATOM      8  C   UNL     1      -4.307  -9.667  10.351  0.00  0.00    +0.075 C 
ATOM     12  C   UNL     1      -4.449  -8.774   9.153  0.00  0.00    +0.013 C 
ATOM     13  C   UNL     1      -5.073  -8.381  10.460  0.00  0.00    +0.013 C 
ENDBRANCH  14   8
BRANCH   5  17
ATOM     17  C   UNL     1      -5.500 -12.757  15.186  0.00  0.00    +0.145 C 
BRANCH  17  18
ATOM      6  N   UNL     1      -6.340 -10.262  17.901  0.00  0.00    -0.263 NA
ATOM     18  C   UNL     1      -5.530 -12.076  16.524  0.00  0.00    -0.012 A 
ATOM     19  C   UNL     1      -4.813 -12.584  17.601  0.00  0.00    +0.008 A 
ATOM     20  C   UNL     1      -6.272 -10.924  16.724  0.00  0.00    +0.115 A 
ATOM     21  C   UNL     1      -4.859 -11.932  18.829  0.00  0.00    +0.020 A 
ATOM     22  C   UNL     1      -5.630 -10.785  18.926  0.00  0.00    +0.111 A 
ENDBRANCH  17  18
ENDBRANCH   5  17
TORSDOF 3
ENDMDL
MODEL 6
REMARK VINA RESULT:      -5.5     27.056     28.336
REMARK  Name = 56775241
REMARK  3 active torsions:
REMARK  status: ('A' for Active; 'I' for Inactive)
REMARK    1  A    between atoms: N_5  and  C_17
REMARK    2  A    between atoms: C_8  and  C_14
REMARK    3  A    between atoms: C_17  and  C_18
REMARK                            x       y       z     vdW  Elec       q    Type
REMARK                         _______ _______ _______ _____ _____    ______ ____
ROOT
ATOM      1  O   UNL     1      -8.458 -11.232  13.386  0.00  0.00    -0.364 OA
ATOM      2  O   UNL     1      -5.416 -11.327   9.707  0.00  0.00    -0.275 OA
ATOM      3  O   UNL     1      -8.729  -9.341  16.388  0.00  0.00    -0.273 OA
ATOM      4  N   UNL     1      -5.864 -10.872  11.931  0.00  0.00    -0.297 N 
ATOM      5  N   UNL     1      -6.818 -10.211  15.384  0.00  0.00    -0.288 N 
ATOM      7  C   UNL     1      -6.237 -10.940  14.264  0.00  0.00    +0.124 C 
ATOM      9  C   UNL     1      -7.211 -11.894  13.575  0.00  0.00    +0.158 C 
ATOM     10  C   UNL     1      -5.795 -10.026  13.118  0.00  0.00    +0.133 C 
ATOM     11  C   UNL     1      -6.571 -12.116  12.211  0.00  0.00    +0.141 C 
ATOM     14  C   UNL     1      -5.337 -10.587  10.683  0.00  0.00    +0.219 C 
ATOM     15  C   UNL     1      -8.193 -10.056  15.539  0.00  0.00    +0.242 C 
ATOM     16  C   UNL     1      -9.049 -10.917  14.626  0.00  0.00    +0.256 C 
ENDROOT
BRANCH  14   8
ATOM      8  C   UNL     1      -4.599  -9.295  10.546  0.00  0.00    +0.075 C 
ATOM     12  C   UNL     1      -4.005  -8.929   9.218  0.00  0.00    +0.013 C 
ATOM     13  C   UNL     1      -3.110  -9.320  10.358  0.00  0.00    +0.013 C 
ENDBRANCH  14   8
BRANCH   5  17
ATOM     17  C   UNL     1      -5.895  -9.500  16.258  0.00  0.00    +0.145 C 
BRANCH  17  18
ATOM      6  N   UNL     1      -3.625 -11.806  18.214  0.00  0.00    -0.263 NA
ATOM     18  C   UNL     1      -5.378 -10.377  17.362  0.00  0.00    -0.012 A 
ATOM     19  C   UNL     1      -6.121 -10.585  18.518  0.00  0.00    +0.008 A 
ATOM     20  C   UNL     1      -4.147 -11.004  17.259  0.00  0.00    +0.115 A 
ATOM     21  C   UNL     1      -5.616 -11.403  19.523  0.00  0.00    +0.020 A 
ATOM     22  C   UNL     1      -4.375 -11.986  19.325  0.00  0.00    +0.111 A 
ENDBRANCH  17  18
ENDBRANCH   5  17
TORSDOF 3
ENDMDL
MODEL 7
REMARK VINA RESULT:      -5.5     13.637     17.460
REMARK  Name = 56775241
REMARK  3 active torsions:
REMARK  status: ('A' for Active; 'I' for Inactive)
REMARK    1  A    between atoms: N_5  and  C_17
REMARK    2  A    between atoms: C_8  and  C_14
REMARK    3  A    between atoms: C_17  and  C_18
REMARK                            x       y       z     vdW  Elec       q    Type
REMARK                         _______ _______ _______ _____ _____    ______ ____
ROOT
ATOM      1  O   UNL     1      11.592   8.376   4.011  0.00  0.00    -0.364 OA
ATOM      2  O   UNL     1      11.571   6.497   8.401  0.00  0.00    -0.275 OA
ATOM      3  O   UNL     1       9.941   7.644   0.946  0.00  0.00    -0.273 OA
ATOM      4  N   UNL     1      11.273   6.269   6.117  0.00  0.00    -0.297 N 
ATOM      5  N   UNL     1      10.840   6.166   2.502  0.00  0.00    -0.288 N 
ATOM      7  C   UNL     1      11.509   5.982   3.783  0.00  0.00    +0.124 C 
ATOM      9  C   UNL     1      12.342   7.183   4.225  0.00  0.00    +0.158 C 
ATOM     10  C   UNL     1      10.533   5.803   4.949  0.00  0.00    +0.133 C 
ATOM     11  C   UNL     1      12.491   6.968   5.726  0.00  0.00    +0.141 C 
ATOM     14  C   UNL     1      10.920   6.088   7.444  0.00  0.00    +0.219 C 
ATOM     15  C   UNL     1      10.615   7.426   1.953  0.00  0.00    +0.242 C 
ATOM     16  C   UNL     1      11.344   8.570   2.637  0.00  0.00    +0.256 C 
ENDROOT
BRANCH  14   8
ATOM      8  C   UNL     1       9.668   5.315   7.704  0.00  0.00    +0.075 C 
ATOM     12  C   UNL     1       9.147   5.220   9.108  0.00  0.00    +0.013 C 
ATOM     13  C   UNL     1       9.754   4.016   8.450  0.00  0.00    +0.013 C 
ENDBRANCH  14   8
BRANCH   5  17
ATOM     17  C   UNL     1      10.260   4.982   1.883  0.00  0.00    +0.145 C 
BRANCH  17  18
ATOM      6  N   UNL     1      13.246   3.178   0.423  0.00  0.00    -0.263 NA
ATOM     18  C   UNL     1      11.188   4.361   0.878  0.00  0.00    -0.012 A 
ATOM     19  C   UNL     1      10.890   4.381  -0.479  0.00  0.00    +0.008 A 
ATOM     20  C   UNL     1      12.368   3.753   1.275  0.00  0.00    +0.115 A 
ATOM     21  C   UNL     1      11.768   3.799  -1.386  0.00  0.00    +0.020 A 
ATOM     22  C   UNL     1      12.923   3.216  -0.889  0.00  0.00    +0.111 A 
ENDBRANCH  17  18
ENDBRANCH   5  17
TORSDOF 3
ENDMDL
MODEL 8
REMARK VINA RESULT:      -5.4     15.573     19.197
REMARK  Name = 56775241
REMARK  3 active torsions:
REMARK  status: ('A' for Active; 'I' for Inactive)
REMARK    1  A    between atoms: N_5  and  C_17
REMARK    2  A    between atoms: C_8  and  C_14
REMARK    3  A    between atoms: C_17  and  C_18
REMARK                            x       y       z     vdW  Elec       q    Type
REMARK                         _______ _______ _______ _____ _____    ______ ____
ROOT
ATOM      1  O   UNL     1       9.489   7.406  -0.363  0.00  0.00    -0.364 OA
ATOM      2  O   UNL     1       9.149   8.826   4.183  0.00  0.00    -0.275 OA
ATOM      3  O   UNL     1       9.838   4.270  -2.007  0.00  0.00    -0.273 OA
ATOM      4  N   UNL     1       9.864   7.290   2.607  0.00  0.00    -0.297 N 
ATOM      5  N   UNL     1      10.861   5.009  -0.052  0.00  0.00    -0.288 N 
ATOM      7  C   UNL     1      11.007   6.068   0.938  0.00  0.00    +0.124 C 
ATOM      9  C   UNL     1      10.688   7.463   0.405  0.00  0.00    +0.158 C 
ATOM     10  C   UNL     1      10.037   5.927   2.114  0.00  0.00    +0.133 C 
ATOM     11  C   UNL     1      10.413   8.263   1.671  0.00  0.00    +0.141 C 
ATOM     14  C   UNL     1       9.276   7.666   3.803  0.00  0.00    +0.219 C 
ATOM     15  C   UNL     1      10.103   5.170  -1.209  0.00  0.00    +0.242 C 
ATOM     16  C   UNL     1       9.664   6.594  -1.503  0.00  0.00    +0.256 C 
ENDROOT
BRANCH  14   8
ATOM      8  C   UNL     1       8.793   6.563   4.688  0.00  0.00    +0.075 C 
ATOM     12  C   UNL     1       8.363   6.886   6.089  0.00  0.00    +0.013 C 
ATOM     13  C   UNL     1       9.641   6.137   5.851  0.00  0.00    +0.013 C 
ENDBRANCH  14   8
BRANCH   5  17
ATOM     17  C   UNL     1      11.409   3.703   0.292  0.00  0.00    +0.145 C 
BRANCH  17  18
ATOM      6  N   UNL     1      14.900   3.380   1.709  0.00  0.00    -0.263 NA
ATOM     18  C   UNL     1      12.907   3.729   0.385  0.00  0.00    -0.012 A 
ATOM     19  C   UNL     1      13.686   4.107  -0.702  0.00  0.00    +0.008 A 
ATOM     20  C   UNL     1      13.556   3.377   1.558  0.00  0.00    +0.115 A 
ATOM     21  C   UNL     1      15.072   4.121  -0.586  0.00  0.00    +0.020 A 
ATOM     22  C   UNL     1      15.625   3.753   0.630  0.00  0.00    +0.111 A 
ENDBRANCH  17  18
ENDBRANCH   5  17
TORSDOF 3
ENDMDL
MODEL 9
REMARK VINA RESULT:      -5.3     25.029     27.372
REMARK  Name = 56775241
REMARK  3 active torsions:
REMARK  status: ('A' for Active; 'I' for Inactive)
REMARK    1  A    between atoms: N_5  and  C_17
REMARK    2  A    between atoms: C_8  and  C_14
REMARK    3  A    between atoms: C_17  and  C_18
REMARK                            x       y       z     vdW  Elec       q    Type
REMARK                         _______ _______ _______ _____ _____    ______ ____
ROOT
ATOM      1  O   UNL     1     -14.931  11.562  22.565  0.00  0.00    -0.364 OA
ATOM      2  O   UNL     1     -12.489  12.659  26.519  0.00  0.00    -0.275 OA
ATOM      3  O   UNL     1     -15.199   8.692  20.479  0.00  0.00    -0.273 OA
ATOM      4  N   UNL     1     -12.713  11.424  24.574  0.00  0.00    -0.297 N 
ATOM      5  N   UNL     1     -13.300   9.588  21.484  0.00  0.00    -0.288 N 
ATOM      7  C   UNL     1     -12.733  10.607  22.357  0.00  0.00    +0.124 C 
ATOM      9  C   UNL     1     -13.553  11.894  22.421  0.00  0.00    +0.158 C 
ATOM     10  C   UNL     1     -12.671  10.174  23.823  0.00  0.00    +0.133 C 
ATOM     11  C   UNL     1     -13.076  12.544  23.714  0.00  0.00    +0.141 C 
ATOM     14  C   UNL     1     -12.442  11.588  25.923  0.00  0.00    +0.219 C 
ATOM     15  C   UNL     1     -14.640   9.596  21.102  0.00  0.00    +0.242 C 
ATOM     16  C   UNL     1     -15.399  10.870  21.429  0.00  0.00    +0.256 C 
ENDROOT
BRANCH  14   8
ATOM      8  C   UNL     1     -12.041  10.362  26.678  0.00  0.00    +0.075 C 
ATOM     12  C   UNL     1     -11.442  10.510  28.045  0.00  0.00    +0.013 C 
ATOM     13  C   UNL     1     -10.582  10.082  26.892  0.00  0.00    +0.013 C 
ENDBRANCH  14   8
BRANCH   5  17
ATOM     17  C   UNL     1     -12.448   8.455  21.151  0.00  0.00    +0.145 C 
BRANCH  17  18
ATOM      6  N   UNL     1     -11.555   8.087  17.495  0.00  0.00    -0.263 NA
ATOM     18  C   UNL     1     -11.744   8.647  19.839  0.00  0.00    -0.012 A 
ATOM     19  C   UNL     1     -10.668   9.519  19.725  0.00  0.00    +0.008 A 
ATOM     20  C   UNL     1     -12.146   7.961  18.705  0.00  0.00    +0.115 A 
ATOM     21  C   UNL     1     -10.035   9.677  18.497  0.00  0.00    +0.020 A 
ATOM     22  C   UNL     1     -10.512   8.944  17.422  0.00  0.00    +0.111 A 
ENDBRANCH  17  18
ENDBRANCH   5  17
TORSDOF 3
ENDMDL
MODEL 10
REMARK VINA RESULT:      -5.2     27.492     29.761
REMARK  Name = 56775241
REMARK  3 active torsions:
REMARK  status: ('A' for Active; 'I' for Inactive)
REMARK    1  A    between atoms: N_5  and  C_17
REMARK    2  A    between atoms: C_8  and  C_14
REMARK    3  A    between atoms: C_17  and  C_18
REMARK                            x       y       z     vdW  Elec       q    Type
REMARK                         _______ _______ _______ _____ _____    ______ ____
ROOT
ATOM      1  O   UNL     1     -10.577 -12.091  17.668  0.00  0.00    -0.364 OA
ATOM      2  O   UNL     1     -12.880  -8.900  14.963  0.00  0.00    -0.275 OA
ATOM      3  O   UNL     1      -7.966 -11.939  20.079  0.00  0.00    -0.273 OA
ATOM      4  N   UNL     1     -10.995  -9.548  16.140  0.00  0.00    -0.297 N 
ATOM      5  N   UNL     1      -8.163 -10.776  18.074  0.00  0.00    -0.288 N 
ATOM      7  C   UNL     1      -8.960 -10.489  16.888  0.00  0.00    +0.124 C 
ATOM      9  C   UNL     1      -9.917 -11.614  16.499  0.00  0.00    +0.158 C 
ATOM     10  C   UNL     1      -9.902  -9.296  17.073  0.00  0.00    +0.133 C 
ATOM     11  C   UNL     1     -10.941 -10.909  15.619  0.00  0.00    +0.141 C 
ATOM     14  C   UNL     1     -11.974  -8.649  15.753  0.00  0.00    +0.219 C 
ATOM     15  C   UNL     1      -8.528 -11.749  19.000  0.00  0.00    +0.242 C 
ATOM     16  C   UNL     1      -9.654 -12.670  18.562  0.00  0.00    +0.256 C 
ENDROOT
BRANCH  14   8
ATOM      8  C   UNL     1     -11.886  -7.273  16.331  0.00  0.00    +0.075 C 
ATOM     12  C   UNL     1     -12.649  -6.157  15.682  0.00  0.00    +0.013 C 
ATOM     13  C   UNL     1     -11.154  -6.207  15.570  0.00  0.00    +0.013 C 
ENDBRANCH  14   8
BRANCH   5  17
ATOM     17  C   UNL     1      -7.042  -9.886  18.346  0.00  0.00    +0.145 C 
BRANCH  17  18
ATOM      6  N   UNL     1      -4.373 -10.412  15.720  0.00  0.00    -0.263 NA
ATOM     18  C   UNL     1      -5.778 -10.356  17.686  0.00  0.00    -0.012 A 
ATOM     19  C   UNL     1      -4.860 -11.141  18.374  0.00  0.00    +0.008 A 
ATOM     20  C   UNL     1      -5.491 -10.021  16.372  0.00  0.00    +0.115 A 
ATOM     21  C   UNL     1      -3.698 -11.562  17.736  0.00  0.00    +0.020 A 
ATOM     22  C   UNL     1      -3.503 -11.174  16.420  0.00  0.00    +0.111 A 
ENDBRANCH  17  18
ENDBRANCH   5  17
TORSDOF 3
ENDMDL
