MODEL 1
REMARK VINA RESULT:      -6.9      0.000      0.000
REMARK  Name = 40777875
REMARK  13 active torsions:
REMARK  status: ('A' for Active; 'I' for Inactive)
REMARK    1  A    between atoms: O_3  and  C_10
REMARK    2  A    between atoms: O_4  and  C_11
REMARK    3  A    between atoms: N_7  and  C_13
REMARK    4  A    between atoms: N_8  and  C_20
REMARK    5  A    between atoms: C_9  and  C_13
REMARK    6  A    between atoms: C_12  and  C_14
REMARK    7  A    between atoms: C_14  and  C_15
REMARK    8  A    between atoms: C_16  and  C_17
REMARK    9  A    between atoms: C_16  and  C_18
REMARK   10  A    between atoms: C_16  and  C_19
REMARK   11  A    between atoms: C_18  and  C_21
REMARK   12  A    between atoms: C_19  and  C_22
REMARK   13  A    between atoms: C_20  and  C_23
REMARK                            x       y       z     vdW  Elec       q    Type
REMARK                         _______ _______ _______ _____ _____    ______ ____
ROOT
ATOM      2  O   UNL     1      11.131   8.498  20.299  0.00  0.00    -0.366 OA
ATOM      9  C   UNL     1      10.639   7.734  21.424  0.00  0.00    +0.167 C 
ATOM     10  C   UNL     1      11.612   6.575  21.615  0.00  0.00    +0.176 C 
ATOM     11  C   UNL     1      12.906   7.159  21.085  0.00  0.00    +0.175 C 
ATOM     12  C   UNL     1      12.411   7.973  19.903  0.00  0.00    +0.158 C 
ENDROOT
BRANCH  10   3
ATOM      3  O   UNL     1      11.181   5.495  20.788  0.00  0.00    -0.387 OA
ATOM     30  H   UNL     1      11.089   4.712  21.356  0.00  0.00    +0.210 HD
ENDBRANCH  10   3
BRANCH  11   4
ATOM      4  O   UNL     1      13.844   6.179  20.699  0.00  0.00    -0.387 OA
ATOM     31  H   UNL     1      13.439   5.309  20.856  0.00  0.00    +0.210 HD
ENDBRANCH  11   4
BRANCH   9  13
ATOM     13  C   UNL     1      10.577   8.664  22.628  0.00  0.00    +0.138 C 
BRANCH  13   7
ATOM      6  O   UNL     1      11.774  10.902  23.976  0.00  0.00    -0.276 OA
ATOM      7  N   UNL     1      10.520  10.050  22.223  0.00  0.00    -0.313 N 
ATOM     17  C   UNL     1      11.131  11.066  22.941  0.00  0.00    +0.216 C 
ATOM     29  H   UNL     1      10.013  10.265  21.371  0.00  0.00    +0.149 HD
BRANCH  17  16
ATOM     16  C   UNL     1      10.908  12.446  22.313  0.00  0.00    +0.074 C 
BRANCH  16  18
ATOM     18  C   UNL     1      11.829  12.689  21.105  0.00  0.00    +0.009 C 
ATOM     21  C   UNL     1      13.121  13.399  21.491  0.00  0.00    +0.004 C 
ENDBRANCH  16  18
BRANCH  16  19
ATOM     19  C   UNL     1      11.057  13.547  23.383  0.00  0.00    +0.009 C 
ATOM     22  C   UNL     1       9.803  14.380  23.619  0.00  0.00    +0.004 C 
ENDBRANCH  16  19
ENDBRANCH  17  16
ENDBRANCH  13   7
ENDBRANCH   9  13
BRANCH  12  14
ATOM     14  C   UNL     1      13.337   9.116  19.528  0.00  0.00    +0.130 C 
BRANCH  14  15
ATOM      5  O   UNL     1      14.214  10.021  21.593  0.00  0.00    -0.276 OA
ATOM      8  N   UNL     1      15.611   8.765  20.223  0.00  0.00    -0.311 N 
ATOM     15  C   UNL     1      14.409   9.365  20.573  0.00  0.00    +0.216 C 
ATOM     32  H   UNL     1      15.664   8.228  19.363  0.00  0.00    +0.149 HD
BRANCH   8  20
ATOM     20  C   UNL     1      16.799   8.847  21.040  0.00  0.00    +0.139 C 
BRANCH  20  23
ATOM      1  F   UNL     1      20.270   4.502  20.150  0.00  0.00    -0.205 F 
ATOM     23  C   UNL     1      17.725   7.688  20.803  0.00  0.00    -0.030 A 
ATOM     24  C   UNL     1      18.920   7.594  21.515  0.00  0.00    +0.008 A 
ATOM     25  C   UNL     1      17.389   6.706  19.870  0.00  0.00    +0.008 A 
ATOM     26  C   UNL     1      19.780   6.517  21.295  0.00  0.00    +0.038 A 
ATOM     27  C   UNL     1      18.248   5.631  19.649  0.00  0.00    +0.038 A 
ATOM     28  C   UNL     1      19.444   5.537  20.361  0.00  0.00    +0.123 A 
ENDBRANCH  20  23
ENDBRANCH   8  20
ENDBRANCH  14  15
ENDBRANCH  12  14
TORSDOF 11
ENDMDL
MODEL 2
REMARK VINA RESULT:      -6.5      2.464      4.424
REMARK  Name = 40777875
REMARK  13 active torsions:
REMARK  status: ('A' for Active; 'I' for Inactive)
REMARK    1  A    between atoms: O_3  and  C_10
REMARK    2  A    between atoms: O_4  and  C_11
REMARK    3  A    between atoms: N_7  and  C_13
REMARK    4  A    between atoms: N_8  and  C_20
REMARK    5  A    between atoms: C_9  and  C_13
REMARK    6  A    between atoms: C_12  and  C_14
REMARK    7  A    between atoms: C_14  and  C_15
REMARK    8  A    between atoms: C_16  and  C_17
REMARK    9  A    between atoms: C_16  and  C_18
REMARK   10  A    between atoms: C_16  and  C_19
REMARK   11  A    between atoms: C_18  and  C_21
REMARK   12  A    between atoms: C_19  and  C_22
REMARK   13  A    between atoms: C_20  and  C_23
REMARK                            x       y       z     vdW  Elec       q    Type
REMARK                         _______ _______ _______ _____ _____    ______ ____
ROOT
ATOM      2  O   UNL     1      13.713   7.935  20.262  0.00  0.00    -0.366 OA
ATOM      9  C   UNL     1      12.872   6.918  19.671  0.00  0.00    +0.167 C 
ATOM     10  C   UNL     1      11.705   6.714  20.631  0.00  0.00    +0.176 C 
ATOM     11  C   UNL     1      11.593   8.077  21.284  0.00  0.00    +0.175 C 
ATOM     12  C   UNL     1      13.054   8.467  21.425  0.00  0.00    +0.158 C 
ENDROOT
BRANCH  10   3
ATOM      3  O   UNL     1      12.089   5.734  21.593  0.00  0.00    -0.387 OA
ATOM     30  H   UNL     1      12.184   4.887  21.124  0.00  0.00    +0.210 HD
ENDBRANCH  10   3
BRANCH  11   4
ATOM      4  O   UNL     1      10.931   8.046  22.530  0.00  0.00    -0.387 OA
ATOM     31  H   UNL     1      10.413   8.865  22.605  0.00  0.00    +0.210 HD
ENDBRANCH  11   4
BRANCH   9  13
ATOM     13  C   UNL     1      12.437   7.412  18.298  0.00  0.00    +0.138 C 
BRANCH  13   7
ATOM      6  O   UNL     1      12.181   8.866  15.833  0.00  0.00    -0.276 OA
ATOM      7  N   UNL     1      13.357   8.395  17.774  0.00  0.00    -0.313 N 
ATOM     17  C   UNL     1      13.149   9.048  16.568  0.00  0.00    +0.216 C 
ATOM     29  H   UNL     1      14.178   8.607  18.331  0.00  0.00    +0.149 HD
BRANCH  17  16
ATOM     16  C   UNL     1      14.277  10.028  16.229  0.00  0.00    +0.074 C 
BRANCH  16  18
ATOM     18  C   UNL     1      14.794  10.771  17.473  0.00  0.00    +0.009 C 
ATOM     21  C   UNL     1      13.865  11.899  17.906  0.00  0.00    +0.004 C 
ENDBRANCH  16  18
BRANCH  16  19
ATOM     19  C   UNL     1      13.819  11.002  15.124  0.00  0.00    +0.009 C 
ATOM     22  C   UNL     1      14.951  11.712  14.391  0.00  0.00    +0.004 C 
ENDBRANCH  16  19
ENDBRANCH  17  16
ENDBRANCH  13   7
ENDBRANCH   9  13
BRANCH  12  14
ATOM     14  C   UNL     1      13.273   9.968  21.493  0.00  0.00    +0.130 C 
BRANCH  14  15
ATOM      5  O   UNL     1      15.141  11.486  21.252  0.00  0.00    -0.276 OA
ATOM      8  N   UNL     1      15.553   9.248  21.726  0.00  0.00    -0.311 N 
ATOM     15  C   UNL     1      14.743  10.345  21.472  0.00  0.00    +0.216 C 
ATOM     32  H   UNL     1      15.123   8.347  21.913  0.00  0.00    +0.149 HD
BRANCH   8  20
ATOM     20  C   UNL     1      16.996   9.325  21.763  0.00  0.00    +0.139 C 
BRANCH  20  23
ATOM      1  F   UNL     1      19.404   4.653  19.744  0.00  0.00    -0.205 F 
ATOM     23  C   UNL     1      17.639   8.079  21.225  0.00  0.00    -0.030 A 
ATOM     24  C   UNL     1      17.002   7.344  20.224  0.00  0.00    +0.008 A 
ATOM     25  C   UNL     1      18.870   7.657  21.725  0.00  0.00    +0.008 A 
ATOM     26  C   UNL     1      17.599   6.187  19.724  0.00  0.00    +0.038 A 
ATOM     27  C   UNL     1      19.467   6.500  21.225  0.00  0.00    +0.038 A 
ATOM     28  C   UNL     1      18.830   5.764  20.225  0.00  0.00    +0.123 A 
ENDBRANCH  20  23
ENDBRANCH   8  20
ENDBRANCH  14  15
ENDBRANCH  12  14
TORSDOF 11
ENDMDL
MODEL 3
REMARK VINA RESULT:      -6.5     16.920     18.304
REMARK  Name = 40777875
REMARK  13 active torsions:
REMARK  status: ('A' for Active; 'I' for Inactive)
REMARK    1  A    between atoms: O_3  and  C_10
REMARK    2  A    between atoms: O_4  and  C_11
REMARK    3  A    between atoms: N_7  and  C_13
REMARK    4  A    between atoms: N_8  and  C_20
REMARK    5  A    between atoms: C_9  and  C_13
REMARK    6  A    between atoms: C_12  and  C_14
REMARK    7  A    between atoms: C_14  and  C_15
REMARK    8  A    between atoms: C_16  and  C_17
REMARK    9  A    between atoms: C_16  and  C_18
REMARK   10  A    between atoms: C_16  and  C_19
REMARK   11  A    between atoms: C_18  and  C_21
REMARK   12  A    between atoms: C_19  and  C_22
REMARK   13  A    between atoms: C_20  and  C_23
REMARK                            x       y       z     vdW  Elec       q    Type
REMARK                         _______ _______ _______ _____ _____    ______ ____
ROOT
ATOM      2  O   UNL     1       9.415   5.931   5.690  0.00  0.00    -0.366 OA
ATOM      9  C   UNL     1       9.231   6.160   7.106  0.00  0.00    +0.167 C 
ATOM     10  C   UNL     1      10.622   6.142   7.729  0.00  0.00    +0.176 C 
ATOM     11  C   UNL     1      11.488   6.617   6.580  0.00  0.00    +0.175 C 
ATOM     12  C   UNL     1      10.824   5.936   5.397  0.00  0.00    +0.158 C 
ENDROOT
BRANCH  10   3
ATOM      3  O   UNL     1      10.940   4.792   8.063  0.00  0.00    -0.387 OA
ATOM     30  H   UNL     1      11.758   4.807   8.590  0.00  0.00    +0.210 HD
ENDBRANCH  10   3
BRANCH  11   4
ATOM      4  O   UNL     1      12.844   6.247   6.713  0.00  0.00    -0.387 OA
ATOM     31  H   UNL     1      13.228   6.222   5.820  0.00  0.00    +0.210 HD
ENDBRANCH  11   4
BRANCH   9  13
ATOM     13  C   UNL     1       8.519   7.495   7.274  0.00  0.00    +0.138 C 
BRANCH  13   7
ATOM      6  O   UNL     1       9.150  10.099   6.235  0.00  0.00    -0.276 OA
ATOM      7  N   UNL     1       8.111   8.041   6.000  0.00  0.00    -0.313 N 
ATOM     17  C   UNL     1       8.465   9.315   5.582  0.00  0.00    +0.216 C 
ATOM     29  H   UNL     1       7.549   7.447   5.399  0.00  0.00    +0.149 HD
BRANCH  17  16
ATOM     16  C   UNL     1       7.893   9.660   4.203  0.00  0.00    +0.074 C 
BRANCH  16  18
ATOM     18  C   UNL     1       6.432  10.134   4.283  0.00  0.00    +0.009 C 
ATOM     21  C   UNL     1       6.319  11.633   4.534  0.00  0.00    +0.004 C 
ENDBRANCH  16  18
BRANCH  16  19
ATOM     19  C   UNL     1       8.061   8.463   3.244  0.00  0.00    +0.009 C 
ATOM     22  C   UNL     1       8.213   8.840   1.775  0.00  0.00    +0.004 C 
ENDBRANCH  16  19
ENDBRANCH  17  16
ENDBRANCH  13   7
ENDBRANCH   9  13
BRANCH  12  14
ATOM     14  C   UNL     1      11.068   6.646   4.078  0.00  0.00    +0.130 C 
BRANCH  14  15
ATOM      5  O   UNL     1      10.280   5.968   1.893  0.00  0.00    -0.276 OA
ATOM      8  N   UNL     1      11.715   4.564   3.066  0.00  0.00    -0.311 N 
ATOM     15  C   UNL     1      10.960   5.715   2.884  0.00  0.00    +0.216 C 
ATOM     32  H   UNL     1      12.257   4.457   3.918  0.00  0.00    +0.149 HD
BRANCH   8  20
ATOM     20  C   UNL     1      11.789   3.507   2.084  0.00  0.00    +0.139 C 
BRANCH  20  23
ATOM      1  F   UNL     1      16.215   4.124  -1.342  0.00  0.00    -0.205 F 
ATOM     23  C   UNL     1      12.969   3.672   1.170  0.00  0.00    -0.030 A 
ATOM     24  C   UNL     1      14.262   3.654   1.692  0.00  0.00    +0.008 A 
ATOM     25  C   UNL     1      12.772   3.842  -0.200  0.00  0.00    +0.008 A 
ATOM     26  C   UNL     1      15.359   3.806   0.843  0.00  0.00    +0.038 A 
ATOM     27  C   UNL     1      13.868   3.995  -1.049  0.00  0.00    +0.038 A 
ATOM     28  C   UNL     1      15.162   3.978  -0.527  0.00  0.00    +0.123 A 
ENDBRANCH  20  23
ENDBRANCH   8  20
ENDBRANCH  14  15
ENDBRANCH  12  14
TORSDOF 11
ENDMDL
MODEL 4
REMARK VINA RESULT:      -6.3     26.044     28.947
REMARK  Name = 40777875
REMARK  13 active torsions:
REMARK  status: ('A' for Active; 'I' for Inactive)
REMARK    1  A    between atoms: O_3  and  C_10
REMARK    2  A    between atoms: O_4  and  C_11
REMARK    3  A    between atoms: N_7  and  C_13
REMARK    4  A    between atoms: N_8  and  C_20
REMARK    5  A    between atoms: C_9  and  C_13
REMARK    6  A    between atoms: C_12  and  C_14
REMARK    7  A    between atoms: C_14  and  C_15
REMARK    8  A    between atoms: C_16  and  C_17
REMARK    9  A    between atoms: C_16  and  C_18
REMARK   10  A    between atoms: C_16  and  C_19
REMARK   11  A    between atoms: C_18  and  C_21
REMARK   12  A    between atoms: C_19  and  C_22
REMARK   13  A    between atoms: C_20  and  C_23
REMARK                            x       y       z     vdW  Elec       q    Type
REMARK                         _______ _______ _______ _____ _____    ______ ____
ROOT
ATOM      2  O   UNL     1      -5.872  -9.838  17.157  0.00  0.00    -0.366 OA
ATOM      9  C   UNL     1      -5.387 -10.766  18.155  0.00  0.00    +0.167 C 
ATOM     10  C   UNL     1      -6.534 -10.980  19.137  0.00  0.00    +0.176 C 
ATOM     11  C   UNL     1      -7.747 -10.750  18.258  0.00  0.00    +0.175 C 
ATOM     12  C   UNL     1      -7.274  -9.605  17.380  0.00  0.00    +0.158 C 
ENDROOT
BRANCH  10   3
ATOM      3  O   UNL     1      -6.452  -9.971  20.141  0.00  0.00    -0.387 OA
ATOM     30  H   UNL     1      -5.541  -9.974  20.482  0.00  0.00    +0.210 HD
ENDBRANCH  10   3
BRANCH  11   4
ATOM      4  O   UNL     1      -8.908 -10.414  18.987  0.00  0.00    -0.387 OA
ATOM     31  H   UNL     1      -8.740  -9.565  19.428  0.00  0.00    +0.210 HD
ENDBRANCH  11   4
BRANCH   9  13
ATOM     13  C   UNL     1      -4.968 -12.043  17.440  0.00  0.00    +0.138 C 
BRANCH  13   7
ATOM      6  O   UNL     1      -4.564 -13.030  14.771  0.00  0.00    -0.276 OA
ATOM      7  N   UNL     1      -3.811 -11.825  16.602  0.00  0.00    -0.313 N 
ATOM     17  C   UNL     1      -3.705 -12.344  15.321  0.00  0.00    +0.216 C 
ATOM     29  H   UNL     1      -3.061 -11.258  16.984  0.00  0.00    +0.149 HD
BRANCH  17  16
ATOM     16  C   UNL     1      -2.376 -11.983  14.649  0.00  0.00    +0.074 C 
BRANCH  16  18
ATOM     18  C   UNL     1      -2.077 -10.476  14.725  0.00  0.00    +0.009 C 
ATOM     21  C   UNL     1      -0.909 -10.160  15.652  0.00  0.00    +0.004 C 
ENDBRANCH  16  18
BRANCH  16  19
ATOM     19  C   UNL     1      -2.357 -12.504  13.197  0.00  0.00    +0.009 C 
ATOM     22  C   UNL     1      -2.302 -11.416  12.131  0.00  0.00    +0.004 C 
ENDBRANCH  16  19
ENDBRANCH  17  16
ENDBRANCH  13   7
ENDBRANCH   9  13
BRANCH  12  14
ATOM     14  C   UNL     1      -7.997  -9.529  16.047  0.00  0.00    +0.130 C 
BRANCH  14  15
ATOM      5  O   UNL     1      -7.524 -11.524  14.764  0.00  0.00    -0.276 OA
ATOM      8  N   UNL     1      -6.411  -9.551  14.242  0.00  0.00    -0.311 N 
ATOM     15  C   UNL     1      -7.305 -10.332  14.961  0.00  0.00    +0.216 C 
ATOM     32  H   UNL     1      -6.315  -8.567  14.475  0.00  0.00    +0.149 HD
BRANCH   8  20
ATOM     20  C   UNL     1      -5.616 -10.065  13.151  0.00  0.00    +0.139 C 
BRANCH  20  23
ATOM      1  F   UNL     1      -7.098  -7.801   8.213  0.00  0.00    -0.205 F 
ATOM     23  C   UNL     1      -6.012  -9.461  11.834  0.00  0.00    -0.030 A 
ATOM     24  C   UNL     1      -5.042  -8.888  11.012  0.00  0.00    +0.008 A 
ATOM     25  C   UNL     1      -7.347  -9.474  11.434  0.00  0.00    +0.008 A 
ATOM     26  C   UNL     1      -5.409  -8.327   9.788  0.00  0.00    +0.038 A 
ATOM     27  C   UNL     1      -7.715  -8.913  10.211  0.00  0.00    +0.038 A 
ATOM     28  C   UNL     1      -6.746  -8.339   9.389  0.00  0.00    +0.123 A 
ENDBRANCH  20  23
ENDBRANCH   8  20
ENDBRANCH  14  15
ENDBRANCH  12  14
TORSDOF 11
ENDMDL
MODEL 5
REMARK VINA RESULT:      -6.3      2.928      4.631
REMARK  Name = 40777875
REMARK  13 active torsions:
REMARK  status: ('A' for Active; 'I' for Inactive)
REMARK    1  A    between atoms: O_3  and  C_10
REMARK    2  A    between atoms: O_4  and  C_11
REMARK    3  A    between atoms: N_7  and  C_13
REMARK    4  A    between atoms: N_8  and  C_20
REMARK    5  A    between atoms: C_9  and  C_13
REMARK    6  A    between atoms: C_12  and  C_14
REMARK    7  A    between atoms: C_14  and  C_15
REMARK    8  A    between atoms: C_16  and  C_17
REMARK    9  A    between atoms: C_16  and  C_18
REMARK   10  A    between atoms: C_16  and  C_19
REMARK   11  A    between atoms: C_18  and  C_21
REMARK   12  A    between atoms: C_19  and  C_22
REMARK   13  A    between atoms: C_20  and  C_23
REMARK                            x       y       z     vdW  Elec       q    Type
REMARK                         _______ _______ _______ _____ _____    ______ ____
ROOT
ATOM      2  O   UNL     1      13.329  10.837  17.619  0.00  0.00    -0.366 OA
ATOM      9  C   UNL     1      12.696   9.638  17.118  0.00  0.00    +0.167 C 
ATOM     10  C   UNL     1      13.101   9.518  15.653  0.00  0.00    +0.176 C 
ATOM     11  C   UNL     1      14.449  10.210  15.641  0.00  0.00    +0.175 C 
ATOM     12  C   UNL     1      14.210  11.357  16.608  0.00  0.00    +0.158 C 
ENDROOT
BRANCH  10   3
ATOM      3  O   UNL     1      12.160  10.253  14.872  0.00  0.00    -0.387 OA
ATOM     30  H   UNL     1      11.872  11.013  15.404  0.00  0.00    +0.210 HD
ENDBRANCH  10   3
BRANCH  11   4
ATOM      4  O   UNL     1      14.831  10.666  14.362  0.00  0.00    -0.387 OA
ATOM     31  H   UNL     1      15.615  11.229  14.475  0.00  0.00    +0.210 HD
ENDBRANCH  11   4
BRANCH   9  13
ATOM     13  C   UNL     1      13.174   8.468  17.967  0.00  0.00    +0.138 C 
BRANCH  13   7
ATOM      6  O   UNL     1      10.461   8.407  18.910  0.00  0.00    -0.276 OA
ATOM      7  N   UNL     1      12.731   8.592  19.336  0.00  0.00    -0.313 N 
ATOM     17  C   UNL     1      11.393   8.550  19.698  0.00  0.00    +0.216 C 
ATOM     29  H   UNL     1      13.446   8.704  20.048  0.00  0.00    +0.149 HD
BRANCH  17  16
ATOM     16  C   UNL     1      11.187   8.720  21.207  0.00  0.00    +0.074 C 
BRANCH  16  18
ATOM     18  C   UNL     1      12.494   9.078  21.935  0.00  0.00    +0.009 C 
ATOM     21  C   UNL     1      12.455  10.473  22.549  0.00  0.00    +0.004 C 
ENDBRANCH  16  18
BRANCH  16  19
ATOM     19  C   UNL     1      10.524   7.459  21.797  0.00  0.00    +0.009 C 
ATOM     22  C   UNL     1      11.268   6.158  21.520  0.00  0.00    +0.004 C 
ENDBRANCH  16  19
ENDBRANCH  17  16
ENDBRANCH  13   7
ENDBRANCH   9  13
BRANCH  12  14
ATOM     14  C   UNL     1      15.482  11.874  17.255  0.00  0.00    +0.130 C 
BRANCH  14  15
ATOM      5  O   UNL     1      15.185  12.773  19.481  0.00  0.00    -0.276 OA
ATOM      8  N   UNL     1      15.712  10.523  19.229  0.00  0.00    -0.311 N 
ATOM     15  C   UNL     1      15.436  11.804  18.770  0.00  0.00    +0.216 C 
ATOM     32  H   UNL     1      15.891   9.784  18.555  0.00  0.00    +0.149 HD
BRANCH   8  20
ATOM     20  C   UNL     1      15.736  10.176  20.631  0.00  0.00    +0.139 C 
BRANCH  20  23
ATOM      1  F   UNL     1      19.419   6.056  21.717  0.00  0.00    -0.205 F 
ATOM     23  C   UNL     1      16.718   9.077  20.920  0.00  0.00    -0.030 A 
ATOM     24  C   UNL     1      17.962   9.382  21.473  0.00  0.00    +0.008 A 
ATOM     25  C   UNL     1      16.387   7.752  20.637  0.00  0.00    +0.008 A 
ATOM     26  C   UNL     1      18.874   8.361  21.742  0.00  0.00    +0.038 A 
ATOM     27  C   UNL     1      17.298   6.732  20.906  0.00  0.00    +0.038 A 
ATOM     28  C   UNL     1      18.543   7.037  21.458  0.00  0.00    +0.123 A 
ENDBRANCH  20  23
ENDBRANCH   8  20
ENDBRANCH  14  15
ENDBRANCH  12  14
TORSDOF 11
ENDMDL
MODEL 6
REMARK VINA RESULT:      -6.2     29.806     31.420
REMARK  Name = 40777875
REMARK  13 active torsions:
REMARK  status: ('A' for Active; 'I' for Inactive)
REMARK    1  A    between atoms: O_3  and  C_10
REMARK    2  A    between atoms: O_4  and  C_11
REMARK    3  A    between atoms: N_7  and  C_13
REMARK    4  A    between atoms: N_8  and  C_20
REMARK    5  A    between atoms: C_9  and  C_13
REMARK    6  A    between atoms: C_12  and  C_14
REMARK    7  A    between atoms: C_14  and  C_15
REMARK    8  A    between atoms: C_16  and  C_17
REMARK    9  A    between atoms: C_16  and  C_18
REMARK   10  A    between atoms: C_16  and  C_19
REMARK   11  A    between atoms: C_18  and  C_21
REMARK   12  A    between atoms: C_19  and  C_22
REMARK   13  A    between atoms: C_20  and  C_23
REMARK                            x       y       z     vdW  Elec       q    Type
REMARK                         _______ _______ _______ _____ _____    ______ ____
ROOT
ATOM      2  O   UNL     1     -13.579   2.789  31.438  0.00  0.00    -0.366 OA
ATOM      9  C   UNL     1     -13.846   2.515  30.043  0.00  0.00    +0.167 C 
ATOM     10  C   UNL     1     -14.264   1.051  29.964  0.00  0.00    +0.176 C 
ATOM     11  C   UNL     1     -14.882   0.826  31.329  0.00  0.00    +0.175 C 
ATOM     12  C   UNL     1     -13.960   1.642  32.219  0.00  0.00    +0.158 C 
ENDROOT
BRANCH  10   3
ATOM      3  O   UNL     1     -13.085   0.261  29.818  0.00  0.00    -0.387 OA
ATOM     30  H   UNL     1     -13.270  -0.611  30.207  0.00  0.00    +0.210 HD
ENDBRANCH  10   3
BRANCH  11   4
ATOM      4  O   UNL     1     -14.919  -0.533  31.708  0.00  0.00    -0.387 OA
ATOM     31  H   UNL     1     -14.987  -1.061  30.895  0.00  0.00    +0.210 HD
ENDBRANCH  11   4
BRANCH   9  13
ATOM     13  C   UNL     1     -14.935   3.473  29.580  0.00  0.00    +0.138 C 
BRANCH  13   7
ATOM      6  O   UNL     1     -17.529   2.596  28.707  0.00  0.00    -0.276 OA
ATOM      7  N   UNL     1     -15.343   3.193  28.222  0.00  0.00    -0.313 N 
ATOM     17  C   UNL     1     -16.623   2.773  27.896  0.00  0.00    +0.216 C 
ATOM     29  H   UNL     1     -14.650   3.325  27.493  0.00  0.00    +0.149 HD
BRANCH  17  16
ATOM     16  C   UNL     1     -16.795   2.530  26.393  0.00  0.00    +0.074 C 
BRANCH  16  18
ATOM     18  C   UNL     1     -16.663   1.042  26.026  0.00  0.00    +0.009 C 
ATOM     21  C   UNL     1     -17.932   0.482  25.395  0.00  0.00    +0.004 C 
ENDBRANCH  16  18
BRANCH  16  19
ATOM     19  C   UNL     1     -15.810   3.411  25.596  0.00  0.00    +0.009 C 
ATOM     22  C   UNL     1     -16.468   4.467  24.717  0.00  0.00    +0.004 C 
ENDBRANCH  16  19
ENDBRANCH  17  16
ENDBRANCH  13   7
ENDBRANCH   9  13
BRANCH  12  14
ATOM     14  C   UNL     1     -14.616   2.097  33.510  0.00  0.00    +0.130 C 
BRANCH  14  15
ATOM      5  O   UNL     1     -16.468   3.588  33.059  0.00  0.00    -0.276 OA
ATOM      8  N   UNL     1     -14.408   4.487  33.653  0.00  0.00    -0.311 N 
ATOM     15  C   UNL     1     -15.289   3.451  33.376  0.00  0.00    +0.216 C 
ATOM     32  H   UNL     1     -13.454   4.267  33.923  0.00  0.00    +0.149 HD
BRANCH   8  20
ATOM     20  C   UNL     1     -14.788   5.880  33.598  0.00  0.00    +0.139 C 
BRANCH  20  23
ATOM      1  F   UNL     1     -11.166   9.159  36.400  0.00  0.00    -0.205 F 
ATOM     23  C   UNL     1     -13.822   6.755  34.345  0.00  0.00    -0.030 A 
ATOM     24  C   UNL     1     -13.449   6.426  35.648  0.00  0.00    +0.008 A 
ATOM     25  C   UNL     1     -13.299   7.895  33.736  0.00  0.00    +0.008 A 
ATOM     26  C   UNL     1     -12.551   7.238  36.342  0.00  0.00    +0.038 A 
ATOM     27  C   UNL     1     -12.402   8.708  34.429  0.00  0.00    +0.038 A 
ATOM     28  C   UNL     1     -12.029   8.379  35.733  0.00  0.00    +0.123 A 
ENDBRANCH  20  23
ENDBRANCH   8  20
ENDBRANCH  14  15
ENDBRANCH  12  14
TORSDOF 11
ENDMDL
MODEL 7
REMARK VINA RESULT:      -6.2      3.522      7.022
REMARK  Name = 40777875
REMARK  13 active torsions:
REMARK  status: ('A' for Active; 'I' for Inactive)
REMARK    1  A    between atoms: O_3  and  C_10
REMARK    2  A    between atoms: O_4  and  C_11
REMARK    3  A    between atoms: N_7  and  C_13
REMARK    4  A    between atoms: N_8  and  C_20
REMARK    5  A    between atoms: C_9  and  C_13
REMARK    6  A    between atoms: C_12  and  C_14
REMARK    7  A    between atoms: C_14  and  C_15
REMARK    8  A    between atoms: C_16  and  C_17
REMARK    9  A    between atoms: C_16  and  C_18
REMARK   10  A    between atoms: C_16  and  C_19
REMARK   11  A    between atoms: C_18  and  C_21
REMARK   12  A    between atoms: C_19  and  C_22
REMARK   13  A    between atoms: C_20  and  C_23
REMARK                            x       y       z     vdW  Elec       q    Type
REMARK                         _______ _______ _______ _____ _____    ______ ____
ROOT
ATOM      2  O   UNL     1      12.762   9.699  18.321  0.00  0.00    -0.366 OA
ATOM      9  C   UNL     1      12.260   8.712  17.391  0.00  0.00    +0.167 C 
ATOM     10  C   UNL     1      12.877   9.045  16.037  0.00  0.00    +0.176 C 
ATOM     11  C   UNL     1      14.181   9.705  16.438  0.00  0.00    +0.175 C 
ATOM     12  C   UNL     1      13.756  10.501  17.659  0.00  0.00    +0.158 C 
ENDROOT
BRANCH  10   3
ATOM      3  O   UNL     1      12.027   9.986  15.383  0.00  0.00    -0.387 OA
ATOM     30  H   UNL     1      11.122   9.833  15.704  0.00  0.00    +0.210 HD
ENDBRANCH  10   3
BRANCH  11   4
ATOM      4  O   UNL     1      14.723  10.529  15.429  0.00  0.00    -0.387 OA
ATOM     31  H   UNL     1      15.045  11.340  15.857  0.00  0.00    +0.210 HD
ENDBRANCH  11   4
BRANCH   9  13
ATOM     13  C   UNL     1      12.663   7.337  17.907  0.00  0.00    +0.138 C 
BRANCH  13   7
ATOM      6  O   UNL     1      15.408   6.785  18.551  0.00  0.00    -0.276 OA
ATOM      7  N   UNL     1      13.280   7.422  19.211  0.00  0.00    -0.313 N 
ATOM     17  C   UNL     1      14.619   7.134  19.427  0.00  0.00    +0.216 C 
ATOM     29  H   UNL     1      12.692   7.714  19.985  0.00  0.00    +0.149 HD
BRANCH  17  16
ATOM     16  C   UNL     1      15.022   7.283  20.897  0.00  0.00    +0.074 C 
BRANCH  16  18
ATOM     18  C   UNL     1      13.986   8.084  21.705  0.00  0.00    +0.009 C 
ATOM     21  C   UNL     1      14.588   9.323  22.356  0.00  0.00    +0.004 C 
ENDBRANCH  16  18
BRANCH  16  19
ATOM     19  C   UNL     1      16.434   7.896  21.001  0.00  0.00    +0.009 C 
ATOM     22  C   UNL     1      17.554   6.885  21.213  0.00  0.00    +0.004 C 
ENDBRANCH  16  19
ENDBRANCH  17  16
ENDBRANCH  13   7
ENDBRANCH   9  13
BRANCH  12  14
ATOM     14  C   UNL     1      14.897  10.793  18.616  0.00  0.00    +0.130 C 
BRANCH  14  15
ATOM      5  O   UNL     1      15.356  12.344  20.415  0.00  0.00    -0.276 OA
ATOM      8  N   UNL     1      13.176  12.122  19.638  0.00  0.00    -0.311 N 
ATOM     15  C   UNL     1      14.534  11.834  19.658  0.00  0.00    +0.216 C 
ATOM     32  H   UNL     1      12.581  11.656  18.959  0.00  0.00    +0.149 HD
BRANCH   8  20
ATOM     20  C   UNL     1      12.560  13.078  20.529  0.00  0.00    +0.139 C 
BRANCH  20  23
ATOM      1  F   UNL     1      10.990  10.715  25.394  0.00  0.00    -0.205 F 
ATOM     23  C   UNL     1      12.142  12.448  21.827  0.00  0.00    -0.030 A 
ATOM     24  C   UNL     1      11.402  11.265  21.820  0.00  0.00    +0.008 A 
ATOM     25  C   UNL     1      12.491  13.045  23.037  0.00  0.00    +0.008 A 
ATOM     26  C   UNL     1      11.014  10.680  23.025  0.00  0.00    +0.038 A 
ATOM     27  C   UNL     1      12.103  12.461  24.242  0.00  0.00    +0.038 A 
ATOM     28  C   UNL     1      11.363  11.278  24.236  0.00  0.00    +0.123 A 
ENDBRANCH  20  23
ENDBRANCH   8  20
ENDBRANCH  14  15
ENDBRANCH  12  14
TORSDOF 11
ENDMDL
MODEL 8
REMARK VINA RESULT:      -6.1     26.943     28.684
REMARK  Name = 40777875
REMARK  13 active torsions:
REMARK  status: ('A' for Active; 'I' for Inactive)
REMARK    1  A    between atoms: O_3  and  C_10
REMARK    2  A    between atoms: O_4  and  C_11
REMARK    3  A    between atoms: N_7  and  C_13
REMARK    4  A    between atoms: N_8  and  C_20
REMARK    5  A    between atoms: C_9  and  C_13
REMARK    6  A    between atoms: C_12  and  C_14
REMARK    7  A    between atoms: C_14  and  C_15
REMARK    8  A    between atoms: C_16  and  C_17
REMARK    9  A    between atoms: C_16  and  C_18
REMARK   10  A    between atoms: C_16  and  C_19
REMARK   11  A    between atoms: C_18  and  C_21
REMARK   12  A    between atoms: C_19  and  C_22
REMARK   13  A    between atoms: C_20  and  C_23
REMARK                            x       y       z     vdW  Elec       q    Type
REMARK                         _______ _______ _______ _____ _____    ______ ____
ROOT
ATOM      2  O   UNL     1      -5.236 -11.099  16.170  0.00  0.00    -0.366 OA
ATOM      9  C   UNL     1      -6.285 -11.044  17.163  0.00  0.00    +0.167 C 
ATOM     10  C   UNL     1      -5.709 -11.663  18.432  0.00  0.00    +0.176 C 
ATOM     11  C   UNL     1      -4.231 -11.361  18.287  0.00  0.00    +0.175 C 
ATOM     12  C   UNL     1      -4.025 -11.559  16.795  0.00  0.00    +0.158 C 
ENDROOT
BRANCH  10   3
ATOM      3  O   UNL     1      -5.933 -13.071  18.379  0.00  0.00    -0.387 OA
ATOM     30  H   UNL     1      -6.412 -13.320  19.188  0.00  0.00    +0.210 HD
ENDBRANCH  10   3
BRANCH  11   4
ATOM      4  O   UNL     1      -3.409 -12.213  19.054  0.00  0.00    -0.387 OA
ATOM     31  H   UNL     1      -2.493 -11.904  18.952  0.00  0.00    +0.210 HD
ENDBRANCH  11   4
BRANCH   9  13
ATOM     13  C   UNL     1      -6.685  -9.585  17.340  0.00  0.00    +0.138 C 
BRANCH  13   7
ATOM      6  O   UNL     1      -9.042  -8.666  15.978  0.00  0.00    -0.276 OA
ATOM      7  N   UNL     1      -8.013  -9.464  17.895  0.00  0.00    -0.313 N 
ATOM     17  C   UNL     1      -9.095  -9.009  17.158  0.00  0.00    +0.216 C 
ATOM     29  H   UNL     1      -8.138  -9.737  18.864  0.00  0.00    +0.149 HD
BRANCH  17  16
ATOM     16  C   UNL     1     -10.387  -8.957  17.980  0.00  0.00    +0.074 C 
BRANCH  16  18
ATOM     18  C   UNL     1     -10.729 -10.318  18.609  0.00  0.00    +0.009 C 
ATOM     21  C   UNL     1     -10.826 -10.250  20.128  0.00  0.00    +0.004 C 
ENDBRANCH  16  18
BRANCH  16  19
ATOM     19  C   UNL     1     -11.544  -8.412  17.117  0.00  0.00    +0.009 C 
ATOM     22  C   UNL     1     -12.732  -9.355  16.975  0.00  0.00    +0.004 C 
ENDBRANCH  16  19
ENDBRANCH  17  16
ENDBRANCH  13   7
ENDBRANCH   9  13
BRANCH  12  14
ATOM     14  C   UNL     1      -2.840 -10.788  16.243  0.00  0.00    +0.130 C 
BRANCH  14  15
ATOM      5  O   UNL     1      -1.614 -12.217  14.723  0.00  0.00    -0.276 OA
ATOM      8  N   UNL     1      -3.004 -10.568  13.856  0.00  0.00    -0.311 N 
ATOM     15  C   UNL     1      -2.403 -11.289  14.878  0.00  0.00    +0.216 C 
ATOM     32  H   UNL     1      -3.658  -9.826  14.091  0.00  0.00    +0.149 HD
BRANCH   8  20
ATOM     20  C   UNL     1      -2.763 -10.834  12.456  0.00  0.00    +0.139 C 
BRANCH  20  23
ATOM      1  F   UNL     1      -6.127  -7.784   9.125  0.00  0.00    -0.205 F 
ATOM     23  C   UNL     1      -3.660 -10.020  11.567  0.00  0.00    -0.030 A 
ATOM     24  C   UNL     1      -4.947  -9.690  11.992  0.00  0.00    +0.008 A 
ATOM     25  C   UNL     1      -3.207  -9.596  10.319  0.00  0.00    +0.008 A 
ATOM     26  C   UNL     1      -5.780  -8.934  11.167  0.00  0.00    +0.038 A 
ATOM     27  C   UNL     1      -4.039  -8.841   9.494  0.00  0.00    +0.038 A 
ATOM     28  C   UNL     1      -5.327  -8.511   9.918  0.00  0.00    +0.123 A 
ENDBRANCH  20  23
ENDBRANCH   8  20
ENDBRANCH  14  15
ENDBRANCH  12  14
TORSDOF 11
ENDMDL
MODEL 9
REMARK VINA RESULT:      -6.1     26.765     28.853
REMARK  Name = 40777875
REMARK  13 active torsions:
REMARK  status: ('A' for Active; 'I' for Inactive)
REMARK    1  A    between atoms: O_3  and  C_10
REMARK    2  A    between atoms: O_4  and  C_11
REMARK    3  A    between atoms: N_7  and  C_13
REMARK    4  A    between atoms: N_8  and  C_20
REMARK    5  A    between atoms: C_9  and  C_13
REMARK    6  A    between atoms: C_12  and  C_14
REMARK    7  A    between atoms: C_14  and  C_15
REMARK    8  A    between atoms: C_16  and  C_17
REMARK    9  A    between atoms: C_16  and  C_18
REMARK   10  A    between atoms: C_16  and  C_19
REMARK   11  A    between atoms: C_18  and  C_21
REMARK   12  A    between atoms: C_19  and  C_22
REMARK   13  A    between atoms: C_20  and  C_23
REMARK                            x       y       z     vdW  Elec       q    Type
REMARK                         _______ _______ _______ _____ _____    ______ ____
ROOT
ATOM      2  O   UNL     1      -5.630 -11.109  16.562  0.00  0.00    -0.366 OA
ATOM      9  C   UNL     1      -6.652 -11.411  17.539  0.00  0.00    +0.167 C 
ATOM     10  C   UNL     1      -6.023 -12.380  18.534  0.00  0.00    +0.176 C 
ATOM     11  C   UNL     1      -4.560 -11.995  18.467  0.00  0.00    +0.175 C 
ATOM     12  C   UNL     1      -4.390 -11.701  16.987  0.00  0.00    +0.158 C 
ENDROOT
BRANCH  10   3
ATOM      3  O   UNL     1      -6.209 -13.705  18.039  0.00  0.00    -0.387 OA
ATOM     30  H   UNL     1      -5.544 -13.852  17.344  0.00  0.00    +0.210 HD
ENDBRANCH  10   3
BRANCH  11   4
ATOM      4  O   UNL     1      -3.692 -13.016  18.908  0.00  0.00    -0.387 OA
ATOM     31  H   UNL     1      -3.031 -12.606  19.490  0.00  0.00    +0.210 HD
ENDBRANCH  11   4
BRANCH   9  13
ATOM     13  C   UNL     1      -7.088 -10.100  18.178  0.00  0.00    +0.138 C 
BRANCH  13   7
ATOM      6  O   UNL     1      -8.967 -11.170  20.071  0.00  0.00    -0.276 OA
ATOM      7  N   UNL     1      -8.525  -9.950  18.151  0.00  0.00    -0.313 N 
ATOM     17  C   UNL     1      -9.355 -10.505  19.113  0.00  0.00    +0.216 C 
ATOM     29  H   UNL     1      -8.921  -9.404  17.393  0.00  0.00    +0.149 HD
BRANCH  17  16
ATOM     16  C   UNL     1     -10.836 -10.215  18.849  0.00  0.00    +0.074 C 
BRANCH  16  18
ATOM     18  C   UNL     1     -11.034  -9.021  17.900  0.00  0.00    +0.009 C 
ATOM     21  C   UNL     1     -11.824  -9.395  16.651  0.00  0.00    +0.004 C 
ENDBRANCH  16  18
BRANCH  16  19
ATOM     19  C   UNL     1     -11.585 -10.022  20.184  0.00  0.00    +0.009 C 
ATOM     22  C   UNL     1     -12.730 -10.999  20.420  0.00  0.00    +0.004 C 
ENDBRANCH  16  19
ENDBRANCH  17  16
ENDBRANCH  13   7
ENDBRANCH   9  13
BRANCH  12  14
ATOM     14  C   UNL     1      -3.243 -10.752  16.688  0.00  0.00    +0.130 C 
BRANCH  14  15
ATOM      5  O   UNL     1      -1.185 -11.109  15.466  0.00  0.00    -0.276 OA
ATOM      8  N   UNL     1      -3.205 -11.710  14.484  0.00  0.00    -0.311 N 
ATOM     15  C   UNL     1      -2.409 -11.200  15.501  0.00  0.00    +0.216 C 
ATOM     32  H   UNL     1      -4.211 -11.757  14.619  0.00  0.00    +0.149 HD
BRANCH   8  20
ATOM     20  C   UNL     1      -2.669 -12.206  13.238  0.00  0.00    +0.139 C 
BRANCH  20  23
ATOM      1  F   UNL     1      -3.659  -8.673   8.966  0.00  0.00    -0.205 F 
ATOM     23  C   UNL     1      -2.932 -11.263  12.098  0.00  0.00    -0.030 A 
ATOM     24  C   UNL     1      -4.075 -11.422  11.314  0.00  0.00    +0.008 A 
ATOM     25  C   UNL     1      -2.036 -10.231  11.825  0.00  0.00    +0.008 A 
ATOM     26  C   UNL     1      -4.320 -10.546  10.256  0.00  0.00    +0.038 A 
ATOM     27  C   UNL     1      -2.280  -9.356  10.767  0.00  0.00    +0.038 A 
ATOM     28  C   UNL     1      -3.422  -9.514   9.982  0.00  0.00    +0.123 A 
ENDBRANCH  20  23
ENDBRANCH   8  20
ENDBRANCH  14  15
ENDBRANCH  12  14
TORSDOF 11
ENDMDL
MODEL 10
REMARK VINA RESULT:      -6.0     17.471     18.892
REMARK  Name = 40777875
REMARK  13 active torsions:
REMARK  status: ('A' for Active; 'I' for Inactive)
REMARK    1  A    between atoms: O_3  and  C_10
REMARK    2  A    between atoms: O_4  and  C_11
REMARK    3  A    between atoms: N_7  and  C_13
REMARK    4  A    between atoms: N_8  and  C_20
REMARK    5  A    between atoms: C_9  and  C_13
REMARK    6  A    between atoms: C_12  and  C_14
REMARK    7  A    between atoms: C_14  and  C_15
REMARK    8  A    between atoms: C_16  and  C_17
REMARK    9  A    between atoms: C_16  and  C_18
REMARK   10  A    between atoms: C_16  and  C_19
REMARK   11  A    between atoms: C_18  and  C_21
REMARK   12  A    between atoms: C_19  and  C_22
REMARK   13  A    between atoms: C_20  and  C_23
REMARK                            x       y       z     vdW  Elec       q    Type
REMARK                         _______ _______ _______ _____ _____    ______ ____
ROOT
ATOM      2  O   UNL     1       9.358   5.666   5.934  0.00  0.00    -0.366 OA
ATOM      9  C   UNL     1       9.353   6.063   7.325  0.00  0.00    +0.167 C 
ATOM     10  C   UNL     1      10.814   6.220   7.732  0.00  0.00    +0.176 C 
ATOM     11  C   UNL     1      11.468   6.600   6.420  0.00  0.00    +0.175 C 
ATOM     12  C   UNL     1      10.707   5.728   5.437  0.00  0.00    +0.158 C 
ENDROOT
BRANCH  10   3
ATOM      3  O   UNL     1      11.290   4.950   8.173  0.00  0.00    -0.387 OA
ATOM     30  H   UNL     1      10.514   4.376   8.297  0.00  0.00    +0.210 HD
ENDBRANCH  10   3
BRANCH  11   4
ATOM      4  O   UNL     1      12.855   6.343   6.392  0.00  0.00    -0.387 OA
ATOM     31  H   UNL     1      13.242   6.903   5.698  0.00  0.00    +0.210 HD
ENDBRANCH  11   4
BRANCH   9  13
ATOM     13  C   UNL     1       8.560   7.358   7.437  0.00  0.00    +0.138 C 
BRANCH  13   7
ATOM      6  O   UNL     1       8.970   9.723   5.858  0.00  0.00    -0.276 OA
ATOM      7  N   UNL     1       7.909   7.690   6.190  0.00  0.00    -0.313 N 
ATOM     17  C   UNL     1       8.173   8.861   5.496  0.00  0.00    +0.216 C 
ATOM     29  H   UNL     1       7.242   7.020   5.821  0.00  0.00    +0.149 HD
BRANCH  17  16
ATOM     16  C   UNL     1       7.342   8.983   4.214  0.00  0.00    +0.074 C 
BRANCH  16  18
ATOM     18  C   UNL     1       8.117   8.511   2.972  0.00  0.00    +0.009 C 
ATOM     21  C   UNL     1       9.040   9.590   2.418  0.00  0.00    +0.004 C 
ENDBRANCH  16  18
BRANCH  16  19
ATOM     19  C   UNL     1       6.820  10.426   4.055  0.00  0.00    +0.009 C 
ATOM     22  C   UNL     1       5.409  10.535   3.492  0.00  0.00    +0.004 C 
ENDBRANCH  16  19
ENDBRANCH  17  16
ENDBRANCH  13   7
ENDBRANCH   9  13
BRANCH  12  14
ATOM     14  C   UNL     1      10.704   6.276   4.021  0.00  0.00    +0.130 C 
BRANCH  14  15
ATOM      5  O   UNL     1      12.939   6.476   3.116  0.00  0.00    -0.276 OA
ATOM      8  N   UNL     1      11.681   4.585   2.621  0.00  0.00    -0.311 N 
ATOM     15  C   UNL     1      11.907   5.819   3.216  0.00  0.00    +0.216 C 
ATOM     32  H   UNL     1      10.796   4.113   2.780  0.00  0.00    +0.149 HD
BRANCH   8  20
ATOM     20  C   UNL     1      12.661   3.917   1.796  0.00  0.00    +0.139 C 
BRANCH  20  23
ATOM      1  F   UNL     1      11.030   3.627  -3.587  0.00  0.00    -0.205 F 
ATOM     23  C   UNL     1      12.227   3.840   0.360  0.00  0.00    -0.030 A 
ATOM     24  C   UNL     1      11.075   4.508  -0.056  0.00  0.00    +0.008 A 
ATOM     25  C   UNL     1      12.974   3.100  -0.556  0.00  0.00    +0.008 A 
ATOM     26  C   UNL     1      10.671   4.436  -1.389  0.00  0.00    +0.038 A 
ATOM     27  C   UNL     1      12.570   3.028  -1.889  0.00  0.00    +0.038 A 
ATOM     28  C   UNL     1      11.418   3.695  -2.305  0.00  0.00    +0.123 A 
ENDBRANCH  20  23
ENDBRANCH   8  20
ENDBRANCH  14  15
ENDBRANCH  12  14
TORSDOF 11
ENDMDL
