MODEL 1
REMARK VINA RESULT:      -7.4      0.000      0.000
REMARK  Name = 7127920
REMARK  11 active torsions:
REMARK  status: ('A' for Active; 'I' for Inactive)
REMARK    1  A    between atoms: O_2  and  C_12
REMARK    2  A    between atoms: O_3  and  C_13
REMARK    3  A    between atoms: O_7  and  C_29
REMARK    4  A    between atoms: O_7  and  C_35
REMARK    5  A    between atoms: N_8  and  C_14
REMARK    6  A    between atoms: N_9  and  C_19
REMARK    7  A    between atoms: N_10  and  C_26
REMARK    8  A    between atoms: C_16  and  C_18
REMARK    9  A    between atoms: C_19  and  C_21
REMARK   10  A    between atoms: C_19  and  C_23
REMARK   11  A    between atoms: C_21  and  C_22
REMARK                            x       y       z     vdW  Elec       q    Type
REMARK                         _______ _______ _______ _____ _____    ______ ____
ROOT
ATOM     12  C   UNL     1     -17.603   2.892  25.671  0.00  0.00    +0.167 C 
ATOM     13  C   UNL     1     -17.837   2.586  24.186  0.00  0.00    +0.149 C 
ATOM     14  C   UNL     1     -16.102   3.044  25.985  0.00  0.00    +0.129 C 
ATOM     15  C   UNL     1     -17.207   3.648  23.269  0.00  0.00    +0.074 C 
ATOM     16  C   UNL     1     -15.873   4.139  23.756  0.00  0.00    +0.015 C 
ATOM     17  C   UNL     1     -15.362   3.869  24.966  0.00  0.00    +0.006 C 
ENDROOT
BRANCH  14   8
ATOM      5  O   UNL     1     -15.614   1.616  28.419  0.00  0.00    -0.252 OA
ATOM      8  N   UNL     1     -15.887   3.615  27.292  0.00  0.00    -0.290 N 
ATOM     10  N   UNL     1     -15.484   3.668  29.552  0.00  0.00    -0.268 N 
ATOM     20  C   UNL     1     -15.655   2.844  28.436  0.00  0.00    +0.304 C 
ATOM     36  H   UNL     1     -15.822   4.626  27.370  0.00  0.00    +0.151 HD
ATOM     40  H   UNL     1     -15.549   4.671  29.396  0.00  0.00    +0.156 HD
BRANCH  10  26
ATOM      1 BR   UNL     1     -17.734   4.537  31.586  0.00  0.00    -0.048 Br
ATOM     26  C   UNL     1     -15.231   3.279  30.888  0.00  0.00    +0.049 A 
ATOM     30  C   UNL     1     -16.123   3.586  31.903  0.00  0.00    +0.039 A 
ATOM     31  C   UNL     1     -14.061   2.581  31.148  0.00  0.00    +0.024 A 
ATOM     32  C   UNL     1     -15.839   3.186  33.209  0.00  0.00    +0.017 A 
ATOM     33  C   UNL     1     -13.776   2.182  32.453  0.00  0.00    +0.002 A 
ATOM     34  C   UNL     1     -14.665   2.484  33.484  0.00  0.00    +0.001 A 
ENDBRANCH  10  26
ENDBRANCH  14   8
BRANCH  16  18
ATOM      4  O   UNL     1     -14.444   4.429  21.914  0.00  0.00    -0.271 OA
ATOM      9  N   UNL     1     -15.079   6.297  23.156  0.00  0.00    -0.300 N 
ATOM     18  C   UNL     1     -15.061   4.949  22.844  0.00  0.00    +0.241 C 
ATOM     39  H   UNL     1     -15.604   6.610  23.968  0.00  0.00    +0.150 HD
BRANCH   9  19
ATOM     19  C   UNL     1     -14.351   7.293  22.402  0.00  0.00    +0.163 C 
BRANCH  19  23
ATOM      6  O   UNL     1     -13.840   9.613  22.909  0.00  0.00    -0.274 OA
ATOM     11  N   UNL     1     -15.589   8.608  24.007  0.00  0.00    -0.328 N 
ATOM     23  C   UNL     1     -14.531   8.620  23.122  0.00  0.00    +0.231 C 
ATOM     41  H   UNL     1     -16.155   7.781  24.172  0.00  0.00    +0.145 HD
ATOM     42  H   UNL     1     -15.828   9.435  24.544  0.00  0.00    +0.145 HD
ENDBRANCH  19  23
BRANCH  19  21
ATOM     21  C   UNL     1     -14.846   7.398  20.955  0.00  0.00    +0.067 C 
BRANCH  21  22
ATOM     22  C   UNL     1     -13.721   7.546  19.961  0.00  0.00    -0.045 A 
ATOM     24  C   UNL     1     -13.980   8.101  18.717  0.00  0.00    +0.007 A 
ATOM     25  C   UNL     1     -12.447   7.125  20.310  0.00  0.00    +0.007 A 
ATOM     27  C   UNL     1     -12.938   8.237  17.799  0.00  0.00    +0.046 A 
ATOM     28  C   UNL     1     -11.406   7.262  19.392  0.00  0.00    +0.046 A 
ATOM     29  C   UNL     1     -11.651   7.817  18.137  0.00  0.00    +0.120 A 
BRANCH  29   7
ATOM      7  O   UNL     1     -10.636   7.952  17.240  0.00  0.00    -0.495 OA
ATOM     35  C   UNL     1     -10.203   9.280  16.945  0.00  0.00    +0.277 C 
ENDBRANCH  29   7
ENDBRANCH  21  22
ENDBRANCH  19  21
ENDBRANCH   9  19
ENDBRANCH  16  18
BRANCH  12   2
ATOM      2  O   UNL     1     -18.288   4.101  26.005  0.00  0.00    -0.387 OA
ATOM     37  H   UNL     1     -17.634   4.778  26.244  0.00  0.00    +0.210 HD
ENDBRANCH  12   2
BRANCH  13   3
ATOM      3  O   UNL     1     -17.327   1.294  23.864  0.00  0.00    -0.389 OA
ATOM     38  H   UNL     1     -18.087   0.701  23.736  0.00  0.00    +0.210 HD
ENDBRANCH  13   3
TORSDOF 10
ENDMDL
MODEL 2
REMARK VINA RESULT:      -7.2     30.745     34.936
REMARK  Name = 7127920
REMARK  11 active torsions:
REMARK  status: ('A' for Active; 'I' for Inactive)
REMARK    1  A    between atoms: O_2  and  C_12
REMARK    2  A    between atoms: O_3  and  C_13
REMARK    3  A    between atoms: O_7  and  C_29
REMARK    4  A    between atoms: O_7  and  C_35
REMARK    5  A    between atoms: N_8  and  C_14
REMARK    6  A    between atoms: N_9  and  C_19
REMARK    7  A    between atoms: N_10  and  C_26
REMARK    8  A    between atoms: C_16  and  C_18
REMARK    9  A    between atoms: C_19  and  C_21
REMARK   10  A    between atoms: C_19  and  C_23
REMARK   11  A    between atoms: C_21  and  C_22
REMARK                            x       y       z     vdW  Elec       q    Type
REMARK                         _______ _______ _______ _____ _____    ______ ____
ROOT
ATOM     12  C   UNL     1      12.991   3.803   1.609  0.00  0.00    +0.167 C 
ATOM     13  C   UNL     1      13.731   3.795   0.266  0.00  0.00    +0.149 C 
ATOM     14  C   UNL     1      11.683   4.612   1.528  0.00  0.00    +0.129 C 
ATOM     15  C   UNL     1      12.850   3.268  -0.879  0.00  0.00    +0.074 C 
ATOM     16  C   UNL     1      11.420   3.721  -0.786  0.00  0.00    +0.015 C 
ATOM     17  C   UNL     1      10.886   4.332   0.282  0.00  0.00    +0.006 C 
ENDROOT
BRANCH  14   8
ATOM      5  O   UNL     1      11.625   6.156   3.940  0.00  0.00    -0.252 OA
ATOM      8  N   UNL     1      10.843   4.384   2.679  0.00  0.00    -0.290 N 
ATOM     10  N   UNL     1       9.957   4.727   4.769  0.00  0.00    -0.268 N 
ATOM     20  C   UNL     1      10.877   5.188   3.823  0.00  0.00    +0.304 C 
ATOM     36  H   UNL     1      10.139   3.654   2.623  0.00  0.00    +0.151 HD
ATOM     40  H   UNL     1       9.411   3.907   4.516  0.00  0.00    +0.156 HD
BRANCH  10  26
ATOM      1 BR   UNL     1       8.293   7.407   4.711  0.00  0.00    -0.048 Br
ATOM     26  C   UNL     1       9.687   5.263   6.050  0.00  0.00    +0.049 A 
ATOM     30  C   UNL     1       8.967   6.437   6.197  0.00  0.00    +0.039 A 
ATOM     31  C   UNL     1      10.168   4.573   7.154  0.00  0.00    +0.024 A 
ATOM     32  C   UNL     1       8.721   6.935   7.477  0.00  0.00    +0.017 A 
ATOM     33  C   UNL     1       9.922   5.070   8.433  0.00  0.00    +0.002 A 
ATOM     34  C   UNL     1       9.199   6.252   8.595  0.00  0.00    +0.001 A 
ENDBRANCH  10  26
ENDBRANCH  14   8
BRANCH  16  18
ATOM      4  O   UNL     1      10.404   2.380  -2.426  0.00  0.00    -0.271 OA
ATOM      9  N   UNL     1       9.955   4.667  -2.401  0.00  0.00    -0.300 N 
ATOM     18  C   UNL     1      10.550   3.504  -1.946  0.00  0.00    +0.241 C 
ATOM     39  H   UNL     1      10.172   5.547  -1.942  0.00  0.00    +0.150 HD
BRANCH   9  19
ATOM     19  C   UNL     1       9.058   4.704  -3.534  0.00  0.00    +0.163 C 
BRANCH  19  23
ATOM      6  O   UNL     1      10.851   4.823  -5.170  0.00  0.00    -0.274 OA
ATOM     11  N   UNL     1       9.359   3.081  -5.299  0.00  0.00    -0.328 N 
ATOM     23  C   UNL     1       9.851   4.246  -4.748  0.00  0.00    +0.231 C 
ATOM     41  H   UNL     1       8.534   2.612  -4.939  0.00  0.00    +0.145 HD
ATOM     42  H   UNL     1       9.805   2.658  -6.106  0.00  0.00    +0.145 HD
ENDBRANCH  19  23
BRANCH  19  21
ATOM     21  C   UNL     1       8.482   6.105  -3.770  0.00  0.00    +0.067 C 
BRANCH  21  22
ATOM     22  C   UNL     1       6.980   6.104  -3.908  0.00  0.00    -0.045 A 
ATOM     24  C   UNL     1       6.397   5.453  -4.984  0.00  0.00    +0.007 A 
ATOM     25  C   UNL     1       6.210   6.755  -2.957  0.00  0.00    +0.007 A 
ATOM     27  C   UNL     1       5.007   5.453  -5.111  0.00  0.00    +0.046 A 
ATOM     28  C   UNL     1       4.821   6.755  -3.084  0.00  0.00    +0.046 A 
ATOM     29  C   UNL     1       4.219   6.104  -4.161  0.00  0.00    +0.120 A 
BRANCH  29   7
ATOM      7  O   UNL     1       2.864   6.102  -4.287  0.00  0.00    -0.495 OA
ATOM     35  C   UNL     1       2.221   4.829  -4.354  0.00  0.00    +0.277 C 
ENDBRANCH  29   7
ENDBRANCH  21  22
ENDBRANCH  19  21
ENDBRANCH   9  19
ENDBRANCH  16  18
BRANCH  12   2
ATOM      2  O   UNL     1      12.698   2.453   1.980  0.00  0.00    -0.387 OA
ATOM     37  H   UNL     1      13.526   2.009   2.230  0.00  0.00    +0.210 HD
ENDBRANCH  12   2
BRANCH  13   3
ATOM      3  O   UNL     1      14.203   5.105  -0.042  0.00  0.00    -0.389 OA
ATOM     38  H   UNL     1      14.946   5.011  -0.663  0.00  0.00    +0.210 HD
ENDBRANCH  13   3
TORSDOF 10
ENDMDL
MODEL 3
REMARK VINA RESULT:      -7.2     31.147     35.341
REMARK  Name = 7127920
REMARK  11 active torsions:
REMARK  status: ('A' for Active; 'I' for Inactive)
REMARK    1  A    between atoms: O_2  and  C_12
REMARK    2  A    between atoms: O_3  and  C_13
REMARK    3  A    between atoms: O_7  and  C_29
REMARK    4  A    between atoms: O_7  and  C_35
REMARK    5  A    between atoms: N_8  and  C_14
REMARK    6  A    between atoms: N_9  and  C_19
REMARK    7  A    between atoms: N_10  and  C_26
REMARK    8  A    between atoms: C_16  and  C_18
REMARK    9  A    between atoms: C_19  and  C_21
REMARK   10  A    between atoms: C_19  and  C_23
REMARK   11  A    between atoms: C_21  and  C_22
REMARK                            x       y       z     vdW  Elec       q    Type
REMARK                         _______ _______ _______ _____ _____    ______ ____
ROOT
ATOM     12  C   UNL     1      15.329   9.118   4.777  0.00  0.00    +0.167 C 
ATOM     13  C   UNL     1      14.701  10.153   5.720  0.00  0.00    +0.149 C 
ATOM     14  C   UNL     1      15.151   7.685   5.312  0.00  0.00    +0.129 C 
ATOM     15  C   UNL     1      13.214   9.866   5.986  0.00  0.00    +0.074 C 
ATOM     16  C   UNL     1      12.906   8.402   6.129  0.00  0.00    +0.015 C 
ATOM     17  C   UNL     1      13.767   7.415   5.839  0.00  0.00    +0.006 C 
ENDROOT
BRANCH  14   8
ATOM      5  O   UNL     1      13.475   6.847   3.146  0.00  0.00    -0.252 OA
ATOM      8  N   UNL     1      15.468   6.698   4.309  0.00  0.00    -0.290 N 
ATOM     10  N   UNL     1      15.163   5.366   2.463  0.00  0.00    -0.268 N 
ATOM     20  C   UNL     1      14.588   6.344   3.279  0.00  0.00    +0.304 C 
ATOM     36  H   UNL     1      16.402   6.301   4.303  0.00  0.00    +0.151 HD
ATOM     40  H   UNL     1      16.099   5.054   2.711  0.00  0.00    +0.156 HD
BRANCH  10  26
ATOM      1 BR   UNL     1      16.491   6.257  -0.257  0.00  0.00    -0.048 Br
ATOM     26  C   UNL     1      14.602   4.748   1.321  0.00  0.00    +0.049 A 
ATOM     30  C   UNL     1      15.073   5.033   0.050  0.00  0.00    +0.039 A 
ATOM     31  C   UNL     1      13.565   3.848   1.518  0.00  0.00    +0.024 A 
ATOM     32  C   UNL     1      14.494   4.404  -1.053  0.00  0.00    +0.017 A 
ATOM     33  C   UNL     1      12.986   3.219   0.416  0.00  0.00    +0.002 A 
ATOM     34  C   UNL     1      13.450   3.497  -0.869  0.00  0.00    +0.001 A 
ENDBRANCH  10  26
ENDBRANCH  14   8
BRANCH  16  18
ATOM      4  O   UNL     1      10.821   8.863   7.108  0.00  0.00    -0.271 OA
ATOM      9  N   UNL     1      11.336   6.664   6.532  0.00  0.00    -0.300 N 
ATOM     18  C   UNL     1      11.586   8.021   6.640  0.00  0.00    +0.241 C 
ATOM     39  H   UNL     1      12.057   6.056   6.153  0.00  0.00    +0.150 HD
BRANCH   9  19
ATOM     19  C   UNL     1      10.103   6.051   6.972  0.00  0.00    +0.163 C 
BRANCH  19  23
ATOM      6  O   UNL     1      10.808   5.619   9.257  0.00  0.00    -0.274 OA
ATOM     11  N   UNL     1      10.241   3.835   7.926  0.00  0.00    -0.328 N 
ATOM     23  C   UNL     1      10.440   5.177   8.171  0.00  0.00    +0.231 C 
ATOM     41  H   UNL     1       9.934   3.483   7.025  0.00  0.00    +0.145 HD
ATOM     42  H   UNL     1      10.415   3.143   8.648  0.00  0.00    +0.145 HD
ENDBRANCH  19  23
BRANCH  19  21
ATOM     21  C   UNL     1       9.448   5.213   5.867  0.00  0.00    +0.067 C 
BRANCH  21  22
ATOM     22  C   UNL     1       9.486   5.890   4.519  0.00  0.00    -0.045 A 
ATOM     24  C   UNL     1      10.247   5.338   3.502  0.00  0.00    +0.007 A 
ATOM     25  C   UNL     1       8.757   7.053   4.324  0.00  0.00    +0.007 A 
ATOM     27  C   UNL     1      10.282   5.966   2.256  0.00  0.00    +0.046 A 
ATOM     28  C   UNL     1       8.792   7.680   3.079  0.00  0.00    +0.046 A 
ATOM     29  C   UNL     1       9.554   7.137   2.045  0.00  0.00    +0.120 A 
BRANCH  29   7
ATOM      7  O   UNL     1       9.588   7.747   0.829  0.00  0.00    -0.495 OA
ATOM     35  C   UNL     1       8.860   8.968   0.695  0.00  0.00    +0.277 C 
ENDBRANCH  29   7
ENDBRANCH  21  22
ENDBRANCH  19  21
ENDBRANCH   9  19
ENDBRANCH  16  18
BRANCH  12   2
ATOM      2  O   UNL     1      14.710   9.232   3.493  0.00  0.00    -0.387 OA
ATOM     37  H   UNL     1      15.102   9.985   3.020  0.00  0.00    +0.210 HD
ENDBRANCH  12   2
BRANCH  13   3
ATOM      3  O   UNL     1      15.421  10.196   6.950  0.00  0.00    -0.389 OA
ATOM     38  H   UNL     1      14.865   9.779   7.630  0.00  0.00    +0.210 HD
ENDBRANCH  13   3
TORSDOF 10
ENDMDL
MODEL 4
REMARK VINA RESULT:      -7.1     27.570     31.202
REMARK  Name = 7127920
REMARK  11 active torsions:
REMARK  status: ('A' for Active; 'I' for Inactive)
REMARK    1  A    between atoms: O_2  and  C_12
REMARK    2  A    between atoms: O_3  and  C_13
REMARK    3  A    between atoms: O_7  and  C_29
REMARK    4  A    between atoms: O_7  and  C_35
REMARK    5  A    between atoms: N_8  and  C_14
REMARK    6  A    between atoms: N_9  and  C_19
REMARK    7  A    between atoms: N_10  and  C_26
REMARK    8  A    between atoms: C_16  and  C_18
REMARK    9  A    between atoms: C_19  and  C_21
REMARK   10  A    between atoms: C_19  and  C_23
REMARK   11  A    between atoms: C_21  and  C_22
REMARK                            x       y       z     vdW  Elec       q    Type
REMARK                         _______ _______ _______ _____ _____    ______ ____
ROOT
ATOM     12  C   UNL     1      12.584   7.381  21.906  0.00  0.00    +0.167 C 
ATOM     13  C   UNL     1      11.207   7.283  21.239  0.00  0.00    +0.149 C 
ATOM     14  C   UNL     1      13.720   7.119  20.898  0.00  0.00    +0.129 C 
ATOM     15  C   UNL     1      11.078   8.232  20.035  0.00  0.00    +0.074 C 
ATOM     16  C   UNL     1      12.331   8.322  19.211  0.00  0.00    +0.015 C 
ATOM     17  C   UNL     1      13.519   7.821  19.581  0.00  0.00    +0.006 C 
ENDROOT
BRANCH  14   8
ATOM      5  O   UNL     1      16.286   6.467  19.808  0.00  0.00    -0.252 OA
ATOM      8  N   UNL     1      15.005   7.495  21.435  0.00  0.00    -0.290 N 
ATOM     10  N   UNL     1      17.293   7.635  21.579  0.00  0.00    -0.268 N 
ATOM     20  C   UNL     1      16.218   7.133  20.839  0.00  0.00    +0.304 C 
ATOM     36  H   UNL     1      15.028   8.118  22.237  0.00  0.00    +0.151 HD
ATOM     40  H   UNL     1      17.064   8.171  22.413  0.00  0.00    +0.156 HD
BRANCH  10  26
ATOM      1 BR   UNL     1      18.923  10.328  21.785  0.00  0.00    -0.048 Br
ATOM     26  C   UNL     1      18.674   7.491  21.311  0.00  0.00    +0.049 A 
ATOM     30  C   UNL     1      19.529   8.580  21.360  0.00  0.00    +0.039 A 
ATOM     31  C   UNL     1      19.143   6.224  21.000  0.00  0.00    +0.024 A 
ATOM     32  C   UNL     1      20.886   8.399  21.090  0.00  0.00    +0.017 A 
ATOM     33  C   UNL     1      20.499   6.042  20.729  0.00  0.00    +0.002 A 
ATOM     34  C   UNL     1      21.371   7.130  20.774  0.00  0.00    +0.001 A 
ENDBRANCH  10  26
ENDBRANCH  14   8
BRANCH  16  18
ATOM      4  O   UNL     1      11.269   8.836  17.180  0.00  0.00    -0.271 OA
ATOM      9  N   UNL     1      13.372   9.742  17.615  0.00  0.00    -0.300 N 
ATOM     18  C   UNL     1      12.253   8.981  17.905  0.00  0.00    +0.241 C 
ATOM     39  H   UNL     1      14.140   9.767  18.280  0.00  0.00    +0.150 HD
BRANCH   9  19
ATOM     19  C   UNL     1      13.526  10.483  16.383  0.00  0.00    +0.163 C 
BRANCH  19  23
ATOM      6  O   UNL     1      14.016   8.444  15.157  0.00  0.00    -0.274 OA
ATOM     11  N   UNL     1      15.386  10.263  14.856  0.00  0.00    -0.328 N 
ATOM     23  C   UNL     1      14.318   9.604  15.428  0.00  0.00    +0.231 C 
ATOM     41  H   UNL     1      15.623  11.223  15.086  0.00  0.00    +0.145 HD
ATOM     42  H   UNL     1      15.989   9.794  14.187  0.00  0.00    +0.145 HD
ENDBRANCH  19  23
BRANCH  19  21
ATOM     21  C   UNL     1      14.244  11.820  16.599  0.00  0.00    +0.067 C 
BRANCH  21  22
ATOM     22  C   UNL     1      14.455  12.142  18.058  0.00  0.00    -0.045 A 
ATOM     24  C   UNL     1      15.668  11.833  18.654  0.00  0.00    +0.007 A 
ATOM     25  C   UNL     1      13.432  12.741  18.775  0.00  0.00    +0.007 A 
ATOM     27  C   UNL     1      15.862  12.131  20.003  0.00  0.00    +0.046 A 
ATOM     28  C   UNL     1      13.626  13.038  20.124  0.00  0.00    +0.046 A 
ATOM     29  C   UNL     1      14.840  12.733  20.738  0.00  0.00    +0.120 A 
BRANCH  29   7
ATOM      7  O   UNL     1      15.032  13.023  22.054  0.00  0.00    -0.495 OA
ATOM     35  C   UNL     1      15.558  11.983  22.878  0.00  0.00    +0.277 C 
ENDBRANCH  29   7
ENDBRANCH  21  22
ENDBRANCH  19  21
ENDBRANCH   9  19
ENDBRANCH  16  18
BRANCH  12   2
ATOM      2  O   UNL     1      12.731   8.688  22.466  0.00  0.00    -0.387 OA
ATOM     37  H   UNL     1      13.047   9.294  21.775  0.00  0.00    +0.210 HD
ENDBRANCH  12   2
BRANCH  13   3
ATOM      3  O   UNL     1      10.951   5.940  20.835  0.00  0.00    -0.389 OA
ATOM     38  H   UNL     1      11.261   5.845  19.918  0.00  0.00    +0.210 HD
ENDBRANCH  13   3
TORSDOF 10
ENDMDL
MODEL 5
REMARK VINA RESULT:      -7.1     20.004     21.618
REMARK  Name = 7127920
REMARK  11 active torsions:
REMARK  status: ('A' for Active; 'I' for Inactive)
REMARK    1  A    between atoms: O_2  and  C_12
REMARK    2  A    between atoms: O_3  and  C_13
REMARK    3  A    between atoms: O_7  and  C_29
REMARK    4  A    between atoms: O_7  and  C_35
REMARK    5  A    between atoms: N_8  and  C_14
REMARK    6  A    between atoms: N_9  and  C_19
REMARK    7  A    between atoms: N_10  and  C_26
REMARK    8  A    between atoms: C_16  and  C_18
REMARK    9  A    between atoms: C_19  and  C_21
REMARK   10  A    between atoms: C_19  and  C_23
REMARK   11  A    between atoms: C_21  and  C_22
REMARK                            x       y       z     vdW  Elec       q    Type
REMARK                         _______ _______ _______ _____ _____    ______ ____
ROOT
ATOM     12  C   UNL     1      -5.654 -11.660  19.369  0.00  0.00    +0.167 C 
ATOM     13  C   UNL     1      -4.551 -12.688  19.080  0.00  0.00    +0.149 C 
ATOM     14  C   UNL     1      -5.476 -10.388  18.519  0.00  0.00    +0.129 C 
ATOM     15  C   UNL     1      -4.475 -13.052  17.588  0.00  0.00    +0.074 C 
ATOM     16  C   UNL     1      -4.697 -11.878  16.676  0.00  0.00    +0.015 C 
ATOM     17  C   UNL     1      -5.136 -10.677  17.081  0.00  0.00    +0.006 C 
ENDROOT
BRANCH  14   8
ATOM      5  O   UNL     1      -7.764 -10.564  16.805  0.00  0.00    -0.252 OA
ATOM      8  N   UNL     1      -6.651  -9.552  18.560  0.00  0.00    -0.290 N 
ATOM     10  N   UNL     1      -8.720  -8.756  17.958  0.00  0.00    -0.268 N 
ATOM     20  C   UNL     1      -7.730  -9.704  17.682  0.00  0.00    +0.304 C 
ATOM     36  H   UNL     1      -6.733  -8.874  19.312  0.00  0.00    +0.151 HD
ATOM     40  H   UNL     1      -8.535  -8.111  18.723  0.00  0.00    +0.156 HD
BRANCH  10  26
ATOM      1 BR   UNL     1     -11.147 -10.158  19.406  0.00  0.00    -0.048 Br
ATOM     26  C   UNL     1      -9.959  -8.578  17.301  0.00  0.00    +0.049 A 
ATOM     30  C   UNL     1     -11.123  -9.132  17.809  0.00  0.00    +0.039 A 
ATOM     31  C   UNL     1      -9.970  -7.831  16.133  0.00  0.00    +0.024 A 
ATOM     32  C   UNL     1     -12.328  -8.936  17.133  0.00  0.00    +0.017 A 
ATOM     33  C   UNL     1     -11.174  -7.635  15.457  0.00  0.00    +0.002 A 
ATOM     34  C   UNL     1     -12.353  -8.187  15.956  0.00  0.00    +0.001 A 
ENDBRANCH  10  26
ENDBRANCH  14   8
BRANCH  16  18
ATOM      4  O   UNL     1      -5.133 -11.573  14.389  0.00  0.00    -0.271 OA
ATOM      9  N   UNL     1      -3.230 -12.758  15.026  0.00  0.00    -0.300 N 
ATOM     18  C   UNL     1      -4.393 -12.042  15.252  0.00  0.00    +0.241 C 
ATOM     39  H   UNL     1      -2.711 -13.124  15.820  0.00  0.00    +0.150 HD
BRANCH   9  19
ATOM     19  C   UNL     1      -2.727 -13.051  13.703  0.00  0.00    +0.163 C 
BRANCH  19  23
ATOM      6  O   UNL     1      -2.411 -15.389  14.283  0.00  0.00    -0.274 OA
ATOM     11  N   UNL     1      -0.698 -14.276  13.232  0.00  0.00    -0.328 N 
ATOM     23  C   UNL     1      -1.954 -14.357  13.797  0.00  0.00    +0.231 C 
ATOM     41  H   UNL     1      -0.333 -13.419  12.831  0.00  0.00    +0.145 HD
ATOM     42  H   UNL     1      -0.083 -15.083  13.215  0.00  0.00    +0.145 HD
ENDBRANCH  19  23
BRANCH  19  21
ATOM     21  C   UNL     1      -1.825 -11.933  13.166  0.00  0.00    +0.067 C 
BRANCH  21  22
ATOM     22  C   UNL     1      -2.437 -11.197  12.000  0.00  0.00    -0.045 A 
ATOM     24  C   UNL     1      -1.952  -9.945  11.655  0.00  0.00    +0.007 A 
ATOM     25  C   UNL     1      -3.473 -11.787  11.294  0.00  0.00    +0.007 A 
ATOM     27  C   UNL     1      -2.519  -9.266  10.576  0.00  0.00    +0.046 A 
ATOM     28  C   UNL     1      -4.040 -11.108  10.215  0.00  0.00    +0.046 A 
ATOM     29  C   UNL     1      -3.563  -9.847   9.857  0.00  0.00    +0.120 A 
BRANCH  29   7
ATOM      7  O   UNL     1      -4.114  -9.183   8.804  0.00  0.00    -0.495 OA
ATOM     35  C   UNL     1      -5.187  -9.829   8.120  0.00  0.00    +0.277 C 
ENDBRANCH  29   7
ENDBRANCH  21  22
ENDBRANCH  19  21
ENDBRANCH   9  19
ENDBRANCH  16  18
BRANCH  12   2
ATOM      2  O   UNL     1      -6.922 -12.256  19.084  0.00  0.00    -0.387 OA
ATOM     37  H   UNL     1      -7.378 -11.719  18.414  0.00  0.00    +0.210 HD
ENDBRANCH  12   2
BRANCH  13   3
ATOM      3  O   UNL     1      -3.291 -12.194  19.529  0.00  0.00    -0.389 OA
ATOM     38  H   UNL     1      -2.889 -11.703  18.793  0.00  0.00    +0.210 HD
ENDBRANCH  13   3
TORSDOF 10
ENDMDL
MODEL 6
REMARK VINA RESULT:      -6.9     30.399     35.881
REMARK  Name = 7127920
REMARK  11 active torsions:
REMARK  status: ('A' for Active; 'I' for Inactive)
REMARK    1  A    between atoms: O_2  and  C_12
REMARK    2  A    between atoms: O_3  and  C_13
REMARK    3  A    between atoms: O_7  and  C_29
REMARK    4  A    between atoms: O_7  and  C_35
REMARK    5  A    between atoms: N_8  and  C_14
REMARK    6  A    between atoms: N_9  and  C_19
REMARK    7  A    between atoms: N_10  and  C_26
REMARK    8  A    between atoms: C_16  and  C_18
REMARK    9  A    between atoms: C_19  and  C_21
REMARK   10  A    between atoms: C_19  and  C_23
REMARK   11  A    between atoms: C_21  and  C_22
REMARK                            x       y       z     vdW  Elec       q    Type
REMARK                         _______ _______ _______ _____ _____    ______ ____
ROOT
ATOM     12  C   UNL     1      14.398   7.415   3.039  0.00  0.00    +0.167 C 
ATOM     13  C   UNL     1      12.890   7.684   3.132  0.00  0.00    +0.149 C 
ATOM     14  C   UNL     1      15.129   7.846   4.324  0.00  0.00    +0.129 C 
ATOM     15  C   UNL     1      12.256   7.006   4.358  0.00  0.00    +0.074 C 
ATOM     16  C   UNL     1      13.127   7.051   5.581  0.00  0.00    +0.015 C 
ATOM     17  C   UNL     1      14.412   7.433   5.583  0.00  0.00    +0.006 C 
ENDROOT
BRANCH  14   8
ATOM      5  O   UNL     1      17.529   9.291   3.732  0.00  0.00    -0.252 OA
ATOM      8  N   UNL     1      16.477   7.334   4.367  0.00  0.00    -0.290 N 
ATOM     10  N   UNL     1      18.766   7.349   4.188  0.00  0.00    -0.268 N 
ATOM     20  C   UNL     1      17.600   8.109   4.061  0.00  0.00    +0.304 C 
ATOM     36  H   UNL     1      16.622   6.389   4.713  0.00  0.00    +0.151 HD
ATOM     40  H   UNL     1      18.652   6.378   4.471  0.00  0.00    +0.156 HD
BRANCH  10  26
ATOM      1 BR   UNL     1      20.208   8.438   6.774  0.00  0.00    -0.048 Br
ATOM     26  C   UNL     1      20.101   7.762   3.969  0.00  0.00    +0.049 A 
ATOM     30  C   UNL     1      20.872   8.267   5.004  0.00  0.00    +0.039 A 
ATOM     31  C   UNL     1      20.612   7.646   2.685  0.00  0.00    +0.024 A 
ATOM     32  C   UNL     1      22.185   8.665   4.750  0.00  0.00    +0.017 A 
ATOM     33  C   UNL     1      21.923   8.044   2.430  0.00  0.00    +0.002 A 
ATOM     34  C   UNL     1      22.710   8.554   3.462  0.00  0.00    +0.001 A 
ENDBRANCH  10  26
ENDBRANCH  14   8
BRANCH  16  18
ATOM      4  O   UNL     1      13.238   6.452   7.850  0.00  0.00    -0.271 OA
ATOM      9  N   UNL     1      11.150   6.606   6.824  0.00  0.00    -0.300 N 
ATOM     18  C   UNL     1      12.532   6.675   6.867  0.00  0.00    +0.241 C 
ATOM     39  H   UNL     1      10.672   6.783   5.945  0.00  0.00    +0.150 HD
BRANCH   9  19
ATOM     19  C   UNL     1      10.341   6.251   7.969  0.00  0.00    +0.163 C 
BRANCH  19  23
ATOM      6  O   UNL     1       9.920   4.054   8.917  0.00  0.00    -0.274 OA
ATOM     11  N   UNL     1      10.176   4.238   6.641  0.00  0.00    -0.328 N 
ATOM     23  C   UNL     1      10.138   4.744   7.924  0.00  0.00    +0.231 C 
ATOM     41  H   UNL     1      10.354   4.820   5.829  0.00  0.00    +0.145 HD
ATOM     42  H   UNL     1      10.040   3.247   6.469  0.00  0.00    +0.145 HD
ENDBRANCH  19  23
BRANCH  19  21
ATOM     21  C   UNL     1       8.989   6.973   7.966  0.00  0.00    +0.067 C 
BRANCH  21  22
ATOM     22  C   UNL     1       8.699   7.668   6.659  0.00  0.00    -0.045 A 
ATOM     24  C   UNL     1       8.871   9.041   6.566  0.00  0.00    +0.007 A 
ATOM     25  C   UNL     1       8.267   6.922   5.574  0.00  0.00    +0.007 A 
ATOM     27  C   UNL     1       8.602   9.683   5.356  0.00  0.00    +0.046 A 
ATOM     28  C   UNL     1       7.999   7.564   4.365  0.00  0.00    +0.046 A 
ATOM     29  C   UNL     1       8.166   8.944   4.256  0.00  0.00    +0.120 A 
BRANCH  29   7
ATOM      7  O   UNL     1       7.906   9.572   3.077  0.00  0.00    -0.495 OA
ATOM     35  C   UNL     1       6.548   9.926   2.817  0.00  0.00    +0.277 C 
ENDBRANCH  29   7
ENDBRANCH  21  22
ENDBRANCH  19  21
ENDBRANCH   9  19
ENDBRANCH  16  18
BRANCH  12   2
ATOM      2  O   UNL     1      14.601   6.017   2.816  0.00  0.00    -0.387 OA
ATOM     37  H   UNL     1      14.668   5.568   3.675  0.00  0.00    +0.210 HD
ENDBRANCH  12   2
BRANCH  13   3
ATOM      3  O   UNL     1      12.644   9.088   3.166  0.00  0.00    -0.389 OA
ATOM     38  H   UNL     1      12.091   9.308   2.397  0.00  0.00    +0.210 HD
ENDBRANCH  13   3
TORSDOF 10
ENDMDL
MODEL 7
REMARK VINA RESULT:      -6.9     27.950     31.416
REMARK  Name = 7127920
REMARK  11 active torsions:
REMARK  status: ('A' for Active; 'I' for Inactive)
REMARK    1  A    between atoms: O_2  and  C_12
REMARK    2  A    between atoms: O_3  and  C_13
REMARK    3  A    between atoms: O_7  and  C_29
REMARK    4  A    between atoms: O_7  and  C_35
REMARK    5  A    between atoms: N_8  and  C_14
REMARK    6  A    between atoms: N_9  and  C_19
REMARK    7  A    between atoms: N_10  and  C_26
REMARK    8  A    between atoms: C_16  and  C_18
REMARK    9  A    between atoms: C_19  and  C_21
REMARK   10  A    between atoms: C_19  and  C_23
REMARK   11  A    between atoms: C_21  and  C_22
REMARK                            x       y       z     vdW  Elec       q    Type
REMARK                         _______ _______ _______ _____ _____    ______ ____
ROOT
ATOM     12  C   UNL     1      13.613   6.742  21.067  0.00  0.00    +0.167 C 
ATOM     13  C   UNL     1      12.236   6.949  20.423  0.00  0.00    +0.149 C 
ATOM     14  C   UNL     1      14.752   7.063  20.080  0.00  0.00    +0.129 C 
ATOM     15  C   UNL     1      12.067   8.371  19.861  0.00  0.00    +0.074 C 
ATOM     16  C   UNL     1      13.312   8.907  19.214  0.00  0.00    +0.015 C 
ATOM     17  C   UNL     1      14.519   8.328  19.296  0.00  0.00    +0.006 C 
ENDROOT
BRANCH  14   8
ATOM      5  O   UNL     1      17.279   6.149  19.092  0.00  0.00    -0.252 OA
ATOM      8  N   UNL     1      16.025   7.159  20.751  0.00  0.00    -0.290 N 
ATOM     10  N   UNL     1      18.286   6.912  21.070  0.00  0.00    -0.268 N 
ATOM     20  C   UNL     1      17.219   6.684  20.196  0.00  0.00    +0.304 C 
ATOM     36  H   UNL     1      16.070   7.665  21.630  0.00  0.00    +0.151 HD
ATOM     40  H   UNL     1      18.067   7.370  21.952  0.00  0.00    +0.156 HD
BRANCH  10  26
ATOM      1 BR   UNL     1      20.247   9.367  21.361  0.00  0.00    -0.048 Br
ATOM     26  C   UNL     1      19.649   6.583  20.882  0.00  0.00    +0.049 A 
ATOM     30  C   UNL     1      20.637   7.550  20.975  0.00  0.00    +0.039 A 
ATOM     31  C   UNL     1      19.962   5.261  20.601  0.00  0.00    +0.024 A 
ATOM     32  C   UNL     1      21.971   7.187  20.783  0.00  0.00    +0.017 A 
ATOM     33  C   UNL     1      21.294   4.899  20.408  0.00  0.00    +0.002 A 
ATOM     34  C   UNL     1      22.299   5.862  20.499  0.00  0.00    +0.001 A 
ENDBRANCH  10  26
ENDBRANCH  14   8
BRANCH  16  18
ATOM      4  O   UNL     1      12.728  10.112  17.284  0.00  0.00    -0.271 OA
ATOM      9  N   UNL     1      13.685  11.250  19.078  0.00  0.00    -0.300 N 
ATOM     18  C   UNL     1      13.204  10.133  18.419  0.00  0.00    +0.241 C 
ATOM     39  H   UNL     1      14.085  11.143  20.007  0.00  0.00    +0.150 HD
BRANCH   9  19
ATOM     19  C   UNL     1      13.687  12.573  18.495  0.00  0.00    +0.163 C 
BRANCH  19  23
ATOM      6  O   UNL     1      16.039  12.724  17.906  0.00  0.00    -0.274 OA
ATOM     11  N   UNL     1      14.492  12.546  16.217  0.00  0.00    -0.328 N 
ATOM     23  C   UNL     1      14.869  12.640  17.541  0.00  0.00    +0.231 C 
ATOM     41  H   UNL     1      13.522  12.473  15.929  0.00  0.00    +0.145 HD
ATOM     42  H   UNL     1      15.186  12.562  15.476  0.00  0.00    +0.145 HD
ENDBRANCH  19  23
BRANCH  19  21
ATOM     21  C   UNL     1      13.795  13.673  19.558  0.00  0.00    +0.067 C 
BRANCH  21  22
ATOM     22  C   UNL     1      12.985  13.373  20.795  0.00  0.00    -0.045 A 
ATOM     24  C   UNL     1      13.636  13.007  21.962  0.00  0.00    +0.007 A 
ATOM     25  C   UNL     1      11.603  13.468  20.741  0.00  0.00    +0.007 A 
ATOM     27  C   UNL     1      12.885  12.730  23.105  0.00  0.00    +0.046 A 
ATOM     28  C   UNL     1      10.853  13.191  21.883  0.00  0.00    +0.046 A 
ATOM     29  C   UNL     1      11.494  12.821  23.065  0.00  0.00    +0.120 A 
BRANCH  29   7
ATOM      7  O   UNL     1      10.764  12.551  24.182  0.00  0.00    -0.495 OA
ATOM     35  C   UNL     1      11.131  11.394  24.933  0.00  0.00    +0.277 C 
ENDBRANCH  29   7
ENDBRANCH  21  22
ENDBRANCH  19  21
ENDBRANCH   9  19
ENDBRANCH  16  18
BRANCH  12   2
ATOM      2  O   UNL     1      13.716   7.590  22.213  0.00  0.00    -0.387 OA
ATOM     37  H   UNL     1      14.656   7.724  22.421  0.00  0.00    +0.210 HD
ENDBRANCH  12   2
BRANCH  13   3
ATOM      3  O   UNL     1      12.027   5.986  19.391  0.00  0.00    -0.389 OA
ATOM     38  H   UNL     1      12.460   5.161  19.668  0.00  0.00    +0.210 HD
ENDBRANCH  13   3
TORSDOF 10
ENDMDL
MODEL 8
REMARK VINA RESULT:      -6.8     20.030     23.030
REMARK  Name = 7127920
REMARK  11 active torsions:
REMARK  status: ('A' for Active; 'I' for Inactive)
REMARK    1  A    between atoms: O_2  and  C_12
REMARK    2  A    between atoms: O_3  and  C_13
REMARK    3  A    between atoms: O_7  and  C_29
REMARK    4  A    between atoms: O_7  and  C_35
REMARK    5  A    between atoms: N_8  and  C_14
REMARK    6  A    between atoms: N_9  and  C_19
REMARK    7  A    between atoms: N_10  and  C_26
REMARK    8  A    between atoms: C_16  and  C_18
REMARK    9  A    between atoms: C_19  and  C_21
REMARK   10  A    between atoms: C_19  and  C_23
REMARK   11  A    between atoms: C_21  and  C_22
REMARK                            x       y       z     vdW  Elec       q    Type
REMARK                         _______ _______ _______ _____ _____    ______ ____
ROOT
ATOM     12  C   UNL     1      -2.397 -11.305  13.412  0.00  0.00    +0.167 C 
ATOM     13  C   UNL     1      -2.213 -11.845  14.836  0.00  0.00    +0.149 C 
ATOM     14  C   UNL     1      -3.880 -11.306  12.995  0.00  0.00    +0.129 C 
ATOM     15  C   UNL     1      -3.054 -11.068  15.863  0.00  0.00    +0.074 C 
ATOM     16  C   UNL     1      -4.414 -10.684  15.350  0.00  0.00    +0.015 C 
ATOM     17  C   UNL     1      -4.800 -10.794  14.071  0.00  0.00    +0.006 C 
ENDROOT
BRANCH  14   8
ATOM      5  O   UNL     1      -4.876 -12.283  10.494  0.00  0.00    -0.252 OA
ATOM      8  N   UNL     1      -4.095 -10.538  11.793  0.00  0.00    -0.290 N 
ATOM     10  N   UNL     1      -4.690 -10.114   9.616  0.00  0.00    -0.268 N 
ATOM     20  C   UNL     1      -4.586 -11.094  10.607  0.00  0.00    +0.304 C 
ATOM     36  H   UNL     1      -3.959  -9.532  11.834  0.00  0.00    +0.151 HD
ATOM     40  H   UNL     1      -4.407  -9.171   9.872  0.00  0.00    +0.156 HD
BRANCH  10  26
ATOM      1 BR   UNL     1      -7.088  -8.213   8.850  0.00  0.00    -0.048 Br
ATOM     26  C   UNL     1      -5.142 -10.269   8.284  0.00  0.00    +0.049 A 
ATOM     30  C   UNL     1      -6.190  -9.508   7.792  0.00  0.00    +0.039 A 
ATOM     31  C   UNL     1      -4.501 -11.208   7.489  0.00  0.00    +0.024 A 
ATOM     32  C   UNL     1      -6.608  -9.689   6.474  0.00  0.00    +0.017 A 
ATOM     33  C   UNL     1      -4.920 -11.390   6.172  0.00  0.00    +0.002 A 
ATOM     34  C   UNL     1      -5.974 -10.631   5.664  0.00  0.00    +0.001 A 
ENDBRANCH  10  26
ENDBRANCH  14   8
BRANCH  16  18
ATOM      4  O   UNL     1      -5.625  -8.971  16.406  0.00  0.00    -0.271 OA
ATOM      9  N   UNL     1      -5.992 -11.178  17.057  0.00  0.00    -0.300 N 
ATOM     18  C   UNL     1      -5.396 -10.176  16.312  0.00  0.00    +0.241 C 
ATOM     39  H   UNL     1      -5.702 -12.142  16.913  0.00  0.00    +0.150 HD
BRANCH   9  19
ATOM     19  C   UNL     1      -6.990 -10.922  18.071  0.00  0.00    +0.163 C 
BRANCH  19  23
ATOM      6  O   UNL     1      -6.393 -11.423  20.372  0.00  0.00    -0.274 OA
ATOM     11  N   UNL     1      -6.793 -13.170  18.935  0.00  0.00    -0.328 N 
ATOM     23  C   UNL     1      -6.676 -11.832  19.248  0.00  0.00    +0.231 C 
ATOM     41  H   UNL     1      -7.031 -13.495  18.003  0.00  0.00    +0.145 HD
ATOM     42  H   UNL     1      -6.625 -13.885  19.636  0.00  0.00    +0.145 HD
ENDBRANCH  19  23
BRANCH  19  21
ATOM     21  C   UNL     1      -8.413 -11.180  17.560  0.00  0.00    +0.067 C 
BRANCH  21  22
ATOM     22  C   UNL     1      -9.032  -9.964  16.916  0.00  0.00    -0.045 A 
ATOM     24  C   UNL     1      -9.113  -9.894  15.534  0.00  0.00    +0.007 A 
ATOM     25  C   UNL     1      -9.509  -8.940  17.719  0.00  0.00    +0.007 A 
ATOM     27  C   UNL     1      -9.686  -8.768  14.940  0.00  0.00    +0.046 A 
ATOM     28  C   UNL     1     -10.081  -7.816  17.124  0.00  0.00    +0.046 A 
ATOM     29  C   UNL     1     -10.170  -7.729  15.735  0.00  0.00    +0.120 A 
BRANCH  29   7
ATOM      7  O   UNL     1     -10.729  -6.634  15.154  0.00  0.00    -0.495 OA
ATOM     35  C   UNL     1     -11.721  -5.935  15.906  0.00  0.00    +0.277 C 
ENDBRANCH  29   7
ENDBRANCH  21  22
ENDBRANCH  19  21
ENDBRANCH   9  19
ENDBRANCH  16  18
BRANCH  12   2
ATOM      2  O   UNL     1      -1.883  -9.973  13.356  0.00  0.00    -0.387 OA
ATOM     37  H   UNL     1      -1.127  -9.952  12.745  0.00  0.00    +0.210 HD
ENDBRANCH  12   2
BRANCH  13   3
ATOM      3  O   UNL     1      -2.541 -13.232  14.882  0.00  0.00    -0.389 OA
ATOM     38  H   UNL     1      -2.716 -13.522  13.970  0.00  0.00    +0.210 HD
ENDBRANCH  13   3
TORSDOF 10
ENDMDL
MODEL 9
REMARK VINA RESULT:      -6.7     30.161     36.169
REMARK  Name = 7127920
REMARK  11 active torsions:
REMARK  status: ('A' for Active; 'I' for Inactive)
REMARK    1  A    between atoms: O_2  and  C_12
REMARK    2  A    between atoms: O_3  and  C_13
REMARK    3  A    between atoms: O_7  and  C_29
REMARK    4  A    between atoms: O_7  and  C_35
REMARK    5  A    between atoms: N_8  and  C_14
REMARK    6  A    between atoms: N_9  and  C_19
REMARK    7  A    between atoms: N_10  and  C_26
REMARK    8  A    between atoms: C_16  and  C_18
REMARK    9  A    between atoms: C_19  and  C_21
REMARK   10  A    between atoms: C_19  and  C_23
REMARK   11  A    between atoms: C_21  and  C_22
REMARK                            x       y       z     vdW  Elec       q    Type
REMARK                         _______ _______ _______ _____ _____    ______ ____
ROOT
ATOM     12  C   UNL     1      15.013   9.942   5.213  0.00  0.00    +0.167 C 
ATOM     13  C   UNL     1      13.623  10.245   5.786  0.00  0.00    +0.149 C 
ATOM     14  C   UNL     1      15.265   8.426   5.113  0.00  0.00    +0.129 C 
ATOM     15  C   UNL     1      12.502   9.572   4.974  0.00  0.00    +0.074 C 
ATOM     16  C   UNL     1      12.859   8.193   4.497  0.00  0.00    +0.015 C 
ATOM     17  C   UNL     1      14.090   7.664   4.560  0.00  0.00    +0.006 C 
ENDROOT
BRANCH  14   8
ATOM      5  O   UNL     1      18.001   8.610   5.938  0.00  0.00    -0.252 OA
ATOM      8  N   UNL     1      16.429   8.131   4.313  0.00  0.00    -0.290 N 
ATOM     10  N   UNL     1      18.654   7.898   3.798  0.00  0.00    -0.268 N 
ATOM     20  C   UNL     1      17.737   8.248   4.793  0.00  0.00    +0.304 C 
ATOM     36  H   UNL     1      16.288   7.745   3.383  0.00  0.00    +0.151 HD
ATOM     40  H   UNL     1      18.270   7.620   2.898  0.00  0.00    +0.156 HD
BRANCH  10  26
ATOM      1 BR   UNL     1      20.031  10.502   2.668  0.00  0.00    -0.048 Br
ATOM     26  C   UNL     1      20.066   7.884   3.884  0.00  0.00    +0.049 A 
ATOM     30  C   UNL     1      20.821   8.954   3.429  0.00  0.00    +0.039 A 
ATOM     31  C   UNL     1      20.669   6.765   4.438  0.00  0.00    +0.024 A 
ATOM     32  C   UNL     1      22.211   8.903   3.530  0.00  0.00    +0.017 A 
ATOM     33  C   UNL     1      22.058   6.714   4.539  0.00  0.00    +0.002 A 
ATOM     34  C   UNL     1      22.830   7.783   4.085  0.00  0.00    +0.001 A 
ENDBRANCH  10  26
ENDBRANCH  14   8
BRANCH  16  18
ATOM      4  O   UNL     1      12.025   6.220   3.533  0.00  0.00    -0.271 OA
ATOM      9  N   UNL     1      10.558   7.984   3.942  0.00  0.00    -0.300 N 
ATOM     18  C   UNL     1      11.791   7.356   3.943  0.00  0.00    +0.241 C 
ATOM     39  H   UNL     1      10.488   8.940   4.280  0.00  0.00    +0.150 HD
BRANCH   9  19
ATOM     19  C   UNL     1       9.353   7.360   3.442  0.00  0.00    +0.163 C 
BRANCH  19  23
ATOM      6  O   UNL     1       7.898   9.015   2.419  0.00  0.00    -0.274 OA
ATOM     11  N   UNL     1       9.566   8.082   1.145  0.00  0.00    -0.328 N 
ATOM     23  C   UNL     1       8.836   8.230   2.306  0.00  0.00    +0.231 C 
ATOM     41  H   UNL     1      10.342   7.432   1.066  0.00  0.00    +0.145 HD
ATOM     42  H   UNL     1       9.335   8.617   0.314  0.00  0.00    +0.145 HD
ENDBRANCH  19  23
BRANCH  19  21
ATOM     21  C   UNL     1       8.284   7.210   4.531  0.00  0.00    +0.067 C 
BRANCH  21  22
ATOM     22  C   UNL     1       8.790   6.478   5.749  0.00  0.00    -0.045 A 
ATOM     24  C   UNL     1       8.733   7.098   6.987  0.00  0.00    +0.007 A 
ATOM     25  C   UNL     1       9.301   5.198   5.608  0.00  0.00    +0.007 A 
ATOM     27  C   UNL     1       9.201   6.419   8.114  0.00  0.00    +0.046 A 
ATOM     28  C   UNL     1       9.769   4.520   6.733  0.00  0.00    +0.046 A 
ATOM     29  C   UNL     1       9.719   5.130   7.986  0.00  0.00    +0.120 A 
BRANCH  29   7
ATOM      7  O   UNL     1      10.173   4.470   9.086  0.00  0.00    -0.495 OA
ATOM     35  C   UNL     1       9.397   4.584  10.278  0.00  0.00    +0.277 C 
ENDBRANCH  29   7
ENDBRANCH  21  22
ENDBRANCH  19  21
ENDBRANCH   9  19
ENDBRANCH  16  18
BRANCH  12   2
ATOM      2  O   UNL     1      15.113  10.533   3.915  0.00  0.00    -0.387 OA
ATOM     37  H   UNL     1      14.891  11.477   3.981  0.00  0.00    +0.210 HD
ENDBRANCH  12   2
BRANCH  13   3
ATOM      3  O   UNL     1      13.554   9.834   7.150  0.00  0.00    -0.389 OA
ATOM     38  H   UNL     1      12.920   9.099   7.204  0.00  0.00    +0.210 HD
ENDBRANCH  13   3
TORSDOF 10
ENDMDL
MODEL 10
REMARK VINA RESULT:      -6.7     30.403     34.855
REMARK  Name = 7127920
REMARK  11 active torsions:
REMARK  status: ('A' for Active; 'I' for Inactive)
REMARK    1  A    between atoms: O_2  and  C_12
REMARK    2  A    between atoms: O_3  and  C_13
REMARK    3  A    between atoms: O_7  and  C_29
REMARK    4  A    between atoms: O_7  and  C_35
REMARK    5  A    between atoms: N_8  and  C_14
REMARK    6  A    between atoms: N_9  and  C_19
REMARK    7  A    between atoms: N_10  and  C_26
REMARK    8  A    between atoms: C_16  and  C_18
REMARK    9  A    between atoms: C_19  and  C_21
REMARK   10  A    between atoms: C_19  and  C_23
REMARK   11  A    between atoms: C_21  and  C_22
REMARK                            x       y       z     vdW  Elec       q    Type
REMARK                         _______ _______ _______ _____ _____    ______ ____
ROOT
ATOM     12  C   UNL     1      14.848   8.678   4.176  0.00  0.00    +0.167 C 
ATOM     13  C   UNL     1      15.120   9.020   5.646  0.00  0.00    +0.149 C 
ATOM     14  C   UNL     1      14.005   7.395   4.042  0.00  0.00    +0.129 C 
ATOM     15  C   UNL     1      13.822   9.149   6.461  0.00  0.00    +0.074 C 
ATOM     16  C   UNL     1      12.779   8.136   6.084  0.00  0.00    +0.015 C 
ATOM     17  C   UNL     1      12.852   7.338   5.008  0.00  0.00    +0.006 C 
ENDROOT
BRANCH  14   8
ATOM      5  O   UNL     1      14.095   5.008   2.462  0.00  0.00    -0.252 OA
ATOM      8  N   UNL     1      13.498   7.228   2.701  0.00  0.00    -0.290 N 
ATOM     10  N   UNL     1      13.012   6.161   0.727  0.00  0.00    -0.268 N 
ATOM     20  C   UNL     1      13.583   6.023   1.996  0.00  0.00    +0.304 C 
ATOM     36  H   UNL     1      12.986   7.999   2.282  0.00  0.00    +0.151 HD
ATOM     40  H   UNL     1      12.629   7.074   0.494  0.00  0.00    +0.156 HD
BRANCH  10  26
ATOM      1 BR   UNL     1      10.214   4.704   0.668  0.00  0.00    -0.048 Br
ATOM     26  C   UNL     1      12.898   5.180  -0.285  0.00  0.00    +0.049 A 
ATOM     30  C   UNL     1      11.731   4.449  -0.444  0.00  0.00    +0.039 A 
ATOM     31  C   UNL     1      13.992   4.975  -1.113  0.00  0.00    +0.024 A 
ATOM     32  C   UNL     1      11.656   3.489  -1.454  0.00  0.00    +0.017 A 
ATOM     33  C   UNL     1      13.917   4.016  -2.122  0.00  0.00    +0.002 A 
ATOM     34  C   UNL     1      12.750   3.272  -2.292  0.00  0.00    +0.001 A 
ENDBRANCH  10  26
ENDBRANCH  14   8
BRANCH  16  18
ATOM      4  O   UNL     1      11.228   8.920   7.664  0.00  0.00    -0.271 OA
ATOM      9  N   UNL     1      11.035   6.733   6.882  0.00  0.00    -0.300 N 
ATOM     18  C   UNL     1      11.611   7.989   6.957  0.00  0.00    +0.241 C 
ATOM     39  H   UNL     1      11.456   6.029   6.281  0.00  0.00    +0.150 HD
BRANCH   9  19
ATOM     19  C   UNL     1       9.873   6.349   7.653  0.00  0.00    +0.163 C 
BRANCH  19  23
ATOM      6  O   UNL     1      10.539   5.083   9.617  0.00  0.00    -0.274 OA
ATOM     11  N   UNL     1      10.164   3.950   7.654  0.00  0.00    -0.328 N 
ATOM     23  C   UNL     1      10.244   5.092   8.425  0.00  0.00    +0.231 C 
ATOM     41  H   UNL     1       9.915   3.971   6.670  0.00  0.00    +0.145 HD
ATOM     42  H   UNL     1      10.371   3.039   8.051  0.00  0.00    +0.145 HD
ENDBRANCH  19  23
BRANCH  19  21
ATOM     21  C   UNL     1       8.649   6.092   6.767  0.00  0.00    +0.067 C 
BRANCH  21  22
ATOM     22  C   UNL     1       8.500   7.113   5.666  0.00  0.00    -0.045 A 
ATOM     24  C   UNL     1       8.810   6.757   4.362  0.00  0.00    +0.007 A 
ATOM     25  C   UNL     1       8.057   8.388   5.978  0.00  0.00    +0.007 A 
ATOM     27  C   UNL     1       8.672   7.703   3.345  0.00  0.00    +0.046 A 
ATOM     28  C   UNL     1       7.919   9.333   4.961  0.00  0.00    +0.046 A 
ATOM     29  C   UNL     1       8.227   8.990   3.645  0.00  0.00    +0.120 A 
BRANCH  29   7
ATOM      7  O   UNL     1       8.091   9.910   2.651  0.00  0.00    -0.495 OA
ATOM     35  C   UNL     1       9.253  10.663   2.301  0.00  0.00    +0.277 C 
ENDBRANCH  29   7
ENDBRANCH  21  22
ENDBRANCH  19  21
ENDBRANCH   9  19
ENDBRANCH  16  18
BRANCH  12   2
ATOM      2  O   UNL     1      14.156   9.772   3.570  0.00  0.00    -0.387 OA
ATOM     37  H   UNL     1      13.218   9.537   3.474  0.00  0.00    +0.210 HD
ENDBRANCH  12   2
BRANCH  13   3
ATOM      3  O   UNL     1      15.970   8.035   6.230  0.00  0.00    -0.389 OA
ATOM     38  H   UNL     1      16.064   7.311   5.589  0.00  0.00    +0.210 HD
ENDBRANCH  13   3
TORSDOF 10
ENDMDL
