MODEL 1
REMARK VINA RESULT:      -7.1      0.000      0.000
REMARK  Name = 40587810
REMARK  4 active torsions:
REMARK  status: ('A' for Active; 'I' for Inactive)
REMARK    1  A    between atoms: O_3  and  C_25
REMARK    2  A    between atoms: O_3  and  C_31
REMARK    3  A    between atoms: N_6  and  C_22
REMARK    4  A    between atoms: C_14  and  C_19
REMARK                            x       y       z     vdW  Elec       q    Type
REMARK                         _______ _______ _______ _____ _____    ______ ____
ROOT
ATOM      1  O   UNL     1      -1.421 -11.802  14.556  0.00  0.00    -0.268 OA
ATOM      2  O   UNL     1      -6.922 -11.050  12.979  0.00  0.00    -0.252 OA
ATOM      4  N   UNL     1      -3.491 -12.711  15.171  0.00  0.00    -0.311 N 
ATOM      5  N   UNL     1      -6.077 -13.169  13.364  0.00  0.00    -0.284 N 
ATOM      6  N   UNL     1      -5.613 -12.045  11.343  0.00  0.00    -0.269 N 
ATOM      7  C   UNL     1      -4.383 -14.857  14.096  0.00  0.00    +0.027 C 
ATOM      8  C   UNL     1      -5.730 -13.679  15.778  0.00  0.00    +0.054 C 
ATOM      9  C   UNL     1      -5.135 -15.035  15.405  0.00  0.00    +0.018 C 
ATOM     10  C   UNL     1      -3.224 -13.889  14.336  0.00  0.00    +0.130 C 
ATOM     11  C   UNL     1      -5.317 -14.365  12.973  0.00  0.00    +0.114 C 
ATOM     12  C   UNL     1      -6.721 -13.251  14.679  0.00  0.00    +0.119 C 
ATOM     13  C   UNL     1      -4.649 -12.610  15.965  0.00  0.00    +0.034 A 
ATOM     14  C   UNL     1      -4.786 -11.575  16.834  0.00  0.00    +0.002 A 
ATOM     15  C   UNL     1      -2.459 -11.755  15.215  0.00  0.00    +0.252 A 
ATOM     16  C   UNL     1      -6.247 -12.004  12.584  0.00  0.00    +0.306 C 
ATOM     17  C   UNL     1      -3.745 -10.566  16.904  0.00  0.00    +0.015 A 
ATOM     18  C   UNL     1      -2.650 -10.619  16.145  0.00  0.00    +0.071 A 
ATOM     32  H   UNL     1      -5.513 -12.947  10.888  0.00  0.00    +0.156 HD
ENDROOT
BRANCH  14  19
ATOM     19  C   UNL     1      -5.977 -11.434  17.700  0.00  0.00    -0.016 A 
ATOM     20  C   UNL     1      -6.058 -12.144  18.897  0.00  0.00    +0.012 A 
ATOM     21  C   UNL     1      -7.021 -10.592  17.317  0.00  0.00    +0.012 A 
ATOM     23  C   UNL     1      -7.181 -12.011  19.713  0.00  0.00    +0.046 A 
ATOM     24  C   UNL     1      -8.145 -10.458  18.133  0.00  0.00    +0.046 A 
ATOM     25  C   UNL     1      -8.224 -11.168  19.330  0.00  0.00    +0.120 A 
BRANCH  25   3
ATOM      3  O   UNL     1      -9.322 -11.039  20.126  0.00  0.00    -0.495 OA
ATOM     31  C   UNL     1     -10.431 -10.318  19.590  0.00  0.00    +0.277 C 
ENDBRANCH  25   3
ENDBRANCH  14  19
BRANCH   6  22
ATOM     22  C   UNL     1      -5.088 -10.950  10.612  0.00  0.00    +0.035 A 
ATOM     26  C   UNL     1      -3.861 -10.395  10.973  0.00  0.00    +0.023 A 
ATOM     27  C   UNL     1      -5.798 -10.430   9.530  0.00  0.00    +0.023 A 
ATOM     28  C   UNL     1      -3.345  -9.317  10.253  0.00  0.00    +0.002 A 
ATOM     29  C   UNL     1      -5.282  -9.354   8.811  0.00  0.00    +0.002 A 
ATOM     30  C   UNL     1      -4.055  -8.796   9.172  0.00  0.00    +0.000 A 
ENDBRANCH   6  22
TORSDOF 3
ENDMDL
MODEL 2
REMARK VINA RESULT:      -6.8     24.971     27.996
REMARK  Name = 40587810
REMARK  4 active torsions:
REMARK  status: ('A' for Active; 'I' for Inactive)
REMARK    1  A    between atoms: O_3  and  C_25
REMARK    2  A    between atoms: O_3  and  C_31
REMARK    3  A    between atoms: N_6  and  C_22
REMARK    4  A    between atoms: C_14  and  C_19
REMARK                            x       y       z     vdW  Elec       q    Type
REMARK                         _______ _______ _______ _____ _____    ______ ____
ROOT
ATOM      1  O   UNL     1      10.207   9.779   8.346  0.00  0.00    -0.268 OA
ATOM      2  O   UNL     1      11.919   7.862   3.178  0.00  0.00    -0.252 OA
ATOM      4  N   UNL     1       9.246   8.545   6.602  0.00  0.00    -0.311 N 
ATOM      5  N   UNL     1      10.660   6.523   4.583  0.00  0.00    -0.284 N 
ATOM      6  N   UNL     1      12.971   6.809   4.957  0.00  0.00    -0.269 N 
ATOM      7  C   UNL     1       9.280   5.984   6.597  0.00  0.00    +0.027 C 
ATOM      8  C   UNL     1       8.266   7.199   4.719  0.00  0.00    +0.054 C 
ATOM      9  C   UNL     1       8.018   6.107   5.759  0.00  0.00    +0.018 C 
ATOM     10  C   UNL     1       9.490   7.302   7.345  0.00  0.00    +0.130 C 
ATOM     11  C   UNL     1      10.499   5.618   5.729  0.00  0.00    +0.114 C 
ATOM     12  C   UNL     1       9.435   6.768   3.814  0.00  0.00    +0.119 C 
ATOM     13  C   UNL     1       8.566   8.552   5.369  0.00  0.00    +0.034 A 
ATOM     14  C   UNL     1       8.230   9.734   4.789  0.00  0.00    +0.002 A 
ATOM     15  C   UNL     1       9.627   9.728   7.262  0.00  0.00    +0.252 A 
ATOM     16  C   UNL     1      11.866   7.130   4.169  0.00  0.00    +0.306 C 
ATOM     17  C   UNL     1       8.610  10.975   5.437  0.00  0.00    +0.015 A 
ATOM     18  C   UNL     1       9.279  11.000   6.590  0.00  0.00    +0.071 A 
ATOM     32  H   UNL     1      12.991   5.896   5.400  0.00  0.00    +0.156 HD
ENDROOT
BRANCH  14  19
ATOM     19  C   UNL     1       7.504   9.792   3.501  0.00  0.00    -0.016 A 
ATOM     20  C   UNL     1       6.114   9.904   3.489  0.00  0.00    +0.012 A 
ATOM     21  C   UNL     1       8.210   9.736   2.300  0.00  0.00    +0.012 A 
ATOM     23  C   UNL     1       5.429   9.960   2.275  0.00  0.00    +0.046 A 
ATOM     24  C   UNL     1       7.525   9.792   1.085  0.00  0.00    +0.046 A 
ATOM     25  C   UNL     1       6.135   9.903   1.073  0.00  0.00    +0.120 A 
BRANCH  25   3
ATOM      3  O   UNL     1       5.467   9.956  -0.112  0.00  0.00    -0.495 OA
ATOM     31  C   UNL     1       4.286   9.162  -0.228  0.00  0.00    +0.277 C 
ENDBRANCH  25   3
ENDBRANCH  14  19
BRANCH   6  22
ATOM     22  C   UNL     1      14.107   7.617   5.210  0.00  0.00    +0.035 A 
ATOM     26  C   UNL     1      14.023   8.675   6.114  0.00  0.00    +0.023 A 
ATOM     27  C   UNL     1      15.311   7.353   4.556  0.00  0.00    +0.023 A 
ATOM     28  C   UNL     1      15.142   9.471   6.363  0.00  0.00    +0.002 A 
ATOM     29  C   UNL     1      16.428   8.147   4.805  0.00  0.00    +0.002 A 
ATOM     30  C   UNL     1      16.344   9.207   5.708  0.00  0.00    +0.000 A 
ENDBRANCH   6  22
TORSDOF 3
ENDMDL
MODEL 3
REMARK VINA RESULT:      -6.8     24.843     28.173
REMARK  Name = 40587810
REMARK  4 active torsions:
REMARK  status: ('A' for Active; 'I' for Inactive)
REMARK    1  A    between atoms: O_3  and  C_25
REMARK    2  A    between atoms: O_3  and  C_31
REMARK    3  A    between atoms: N_6  and  C_22
REMARK    4  A    between atoms: C_14  and  C_19
REMARK                            x       y       z     vdW  Elec       q    Type
REMARK                         _______ _______ _______ _____ _____    ______ ____
ROOT
ATOM      1  O   UNL     1       7.140   9.278   4.671  0.00  0.00    -0.268 OA
ATOM      2  O   UNL     1      12.792   9.065   5.821  0.00  0.00    -0.252 OA
ATOM      4  N   UNL     1       8.696   7.601   5.177  0.00  0.00    -0.311 N 
ATOM      5  N   UNL     1      11.287   7.785   7.025  0.00  0.00    -0.284 N 
ATOM      6  N   UNL     1      11.541  10.084   7.487  0.00  0.00    -0.269 N 
ATOM      7  C   UNL     1       9.059   6.794   7.581  0.00  0.00    +0.027 C 
ATOM      8  C   UNL     1      10.393   5.839   5.753  0.00  0.00    +0.054 C 
ATOM      9  C   UNL     1       9.485   5.488   6.930  0.00  0.00    +0.018 C 
ATOM     10  C   UNL     1       8.228   7.586   6.569  0.00  0.00    +0.130 C 
ATOM     11  C   UNL     1      10.276   7.599   8.076  0.00  0.00    +0.114 C 
ATOM     12  C   UNL     1      11.640   6.569   6.287  0.00  0.00    +0.119 C 
ATOM     13  C   UNL     1       9.676   6.703   4.713  0.00  0.00    +0.034 A 
ATOM     14  C   UNL     1       9.971   6.651   3.388  0.00  0.00    +0.002 A 
ATOM     15  C   UNL     1       8.014   8.486   4.321  0.00  0.00    +0.252 A 
ATOM     16  C   UNL     1      11.936   8.998   6.707  0.00  0.00    +0.306 C 
ATOM     17  C   UNL     1       9.293   7.551   2.474  0.00  0.00    +0.015 A 
ATOM     18  C   UNL     1       8.382   8.432   2.888  0.00  0.00    +0.071 A 
ATOM     32  H   UNL     1      11.250   9.904   8.442  0.00  0.00    +0.156 HD
ENDROOT
BRANCH  14  19
ATOM     19  C   UNL     1      10.983   5.714   2.850  0.00  0.00    -0.016 A 
ATOM     20  C   UNL     1      10.658   4.372   2.657  0.00  0.00    +0.012 A 
ATOM     21  C   UNL     1      12.261   6.175   2.536  0.00  0.00    +0.012 A 
ATOM     23  C   UNL     1      11.611   3.489   2.150  0.00  0.00    +0.046 A 
ATOM     24  C   UNL     1      13.216   5.292   2.028  0.00  0.00    +0.046 A 
ATOM     25  C   UNL     1      12.890   3.950   1.836  0.00  0.00    +0.120 A 
BRANCH  25   3
ATOM      3  O   UNL     1      13.821   3.088   1.342  0.00  0.00    -0.495 OA
ATOM     31  C   UNL     1      15.179   3.527   1.347  0.00  0.00    +0.277 C 
ENDBRANCH  25   3
ENDBRANCH  14  19
BRANCH   6  22
ATOM     22  C   UNL     1      11.509  11.449   7.104  0.00  0.00    +0.035 A 
ATOM     26  C   UNL     1      10.334  12.004   6.601  0.00  0.00    +0.023 A 
ATOM     27  C   UNL     1      12.654  12.236   7.233  0.00  0.00    +0.023 A 
ATOM     28  C   UNL     1      10.303  13.347   6.224  0.00  0.00    +0.002 A 
ATOM     29  C   UNL     1      12.623  13.577   6.857  0.00  0.00    +0.002 A 
ATOM     30  C   UNL     1      11.447  14.134   6.352  0.00  0.00    +0.000 A 
ENDBRANCH   6  22
TORSDOF 3
ENDMDL
MODEL 4
REMARK VINA RESULT:      -6.8      2.510      7.696
REMARK  Name = 40587810
REMARK  4 active torsions:
REMARK  status: ('A' for Active; 'I' for Inactive)
REMARK    1  A    between atoms: O_3  and  C_25
REMARK    2  A    between atoms: O_3  and  C_31
REMARK    3  A    between atoms: N_6  and  C_22
REMARK    4  A    between atoms: C_14  and  C_19
REMARK                            x       y       z     vdW  Elec       q    Type
REMARK                         _______ _______ _______ _____ _____    ______ ____
ROOT
ATOM      1  O   UNL     1      -6.859 -15.041  17.057  0.00  0.00    -0.268 OA
ATOM      2  O   UNL     1      -8.377  -9.473  16.912  0.00  0.00    -0.252 OA
ATOM      4  N   UNL     1      -5.789 -13.013  16.577  0.00  0.00    -0.311 N 
ATOM      5  N   UNL     1      -6.348 -10.127  17.812  0.00  0.00    -0.284 N 
ATOM      6  N   UNL     1      -8.341 -10.373  19.049  0.00  0.00    -0.269 N 
ATOM      7  C   UNL     1      -4.503 -11.718  18.375  0.00  0.00    +0.027 C 
ATOM      8  C   UNL     1      -4.674 -10.811  16.099  0.00  0.00    +0.054 C 
ATOM      9  C   UNL     1      -3.691 -11.180  17.209  0.00  0.00    +0.018 C 
ATOM     10  C   UNL     1      -5.200 -13.003  17.922  0.00  0.00    +0.130 C 
ATOM     11  C   UNL     1      -5.511 -10.673  18.890  0.00  0.00    +0.114 C 
ATOM     12  C   UNL     1      -5.614  -9.706  16.614  0.00  0.00    +0.119 C 
ATOM     13  C   UNL     1      -5.484 -12.021  15.625  0.00  0.00    +0.034 A 
ATOM     14  C   UNL     1      -5.931 -12.148  14.348  0.00  0.00    +0.002 A 
ATOM     15  C   UNL     1      -6.576 -14.138  16.270  0.00  0.00    +0.252 A 
ATOM     16  C   UNL     1      -7.750  -9.961  17.855  0.00  0.00    +0.306 C 
ATOM     17  C   UNL     1      -6.750 -13.293  13.995  0.00  0.00    +0.015 A 
ATOM     18  C   UNL     1      -7.079 -14.233  14.881  0.00  0.00    +0.071 A 
ATOM     32  H   UNL     1      -7.797 -10.293  19.902  0.00  0.00    +0.156 HD
ENDROOT
BRANCH  14  19
ATOM     19  C   UNL     1      -5.624 -11.140  13.310  0.00  0.00    -0.016 A 
ATOM     20  C   UNL     1      -6.510 -10.089  13.075  0.00  0.00    +0.012 A 
ATOM     21  C   UNL     1      -4.449 -11.241  12.566  0.00  0.00    +0.012 A 
ATOM     23  C   UNL     1      -6.221  -9.138  12.096  0.00  0.00    +0.046 A 
ATOM     24  C   UNL     1      -4.159 -10.290  11.587  0.00  0.00    +0.046 A 
ATOM     25  C   UNL     1      -5.046  -9.239  11.352  0.00  0.00    +0.120 A 
BRANCH  25   3
ATOM      3  O   UNL     1      -4.763  -8.312  10.396  0.00  0.00    -0.495 OA
ATOM     31  C   UNL     1      -4.189  -8.788   9.180  0.00  0.00    +0.277 C 
ENDBRANCH  25   3
ENDBRANCH  14  19
BRANCH   6  22
ATOM     22  C   UNL     1      -9.649 -10.888  19.225  0.00  0.00    +0.035 A 
ATOM     26  C   UNL     1     -10.008 -12.098  18.633  0.00  0.00    +0.023 A 
ATOM     27  C   UNL     1     -10.578 -10.186  19.993  0.00  0.00    +0.023 A 
ATOM     28  C   UNL     1     -11.296 -12.606  18.807  0.00  0.00    +0.002 A 
ATOM     29  C   UNL     1     -11.865 -10.692  20.167  0.00  0.00    +0.002 A 
ATOM     30  C   UNL     1     -12.224 -11.903  19.573  0.00  0.00    +0.000 A 
ENDBRANCH   6  22
TORSDOF 3
ENDMDL
MODEL 5
REMARK VINA RESULT:      -6.7     23.535     27.327
REMARK  Name = 40587810
REMARK  4 active torsions:
REMARK  status: ('A' for Active; 'I' for Inactive)
REMARK    1  A    between atoms: O_3  and  C_25
REMARK    2  A    between atoms: O_3  and  C_31
REMARK    3  A    between atoms: N_6  and  C_22
REMARK    4  A    between atoms: C_14  and  C_19
REMARK                            x       y       z     vdW  Elec       q    Type
REMARK                         _______ _______ _______ _____ _____    ______ ____
ROOT
ATOM      1  O   UNL     1       9.323   9.532   0.561  0.00  0.00    -0.268 OA
ATOM      2  O   UNL     1      10.896   4.004   1.099  0.00  0.00    -0.252 OA
ATOM      4  N   UNL     1      10.714   8.306   1.993  0.00  0.00    -0.311 N 
ATOM      5  N   UNL     1      12.443   5.707   1.342  0.00  0.00    -0.284 N 
ATOM      6  N   UNL     1      11.736   5.030  -0.804  0.00  0.00    -0.269 N 
ATOM      7  C   UNL     1      13.225   8.074   1.545  0.00  0.00    +0.027 C 
ATOM      8  C   UNL     1      12.219   6.956   3.486  0.00  0.00    +0.054 C 
ATOM      9  C   UNL     1      13.337   7.902   3.051  0.00  0.00    +0.018 C 
ATOM     10  C   UNL     1      11.890   8.755   1.237  0.00  0.00    +0.130 C 
ATOM     11  C   UNL     1      13.361   6.725   0.812  0.00  0.00    +0.114 C 
ATOM     12  C   UNL     1      12.428   5.591   2.804  0.00  0.00    +0.119 C 
ATOM     13  C   UNL     1      10.833   7.512   3.150  0.00  0.00    +0.034 A 
ATOM     14  C   UNL     1       9.734   7.244   3.902  0.00  0.00    +0.002 A 
ATOM     15  C   UNL     1       9.481   8.821   1.553  0.00  0.00    +0.252 A 
ATOM     16  C   UNL     1      11.625   4.850   0.574  0.00  0.00    +0.306 C 
ATOM     17  C   UNL     1       8.443   7.755   3.478  0.00  0.00    +0.015 A 
ATOM     18  C   UNL     1       8.295   8.484   2.373  0.00  0.00    +0.071 A 
ATOM     32  H   UNL     1      12.629   5.341  -1.173  0.00  0.00    +0.156 HD
ENDROOT
BRANCH  14  19
ATOM     19  C   UNL     1       9.811   6.427   5.133  0.00  0.00    -0.016 A 
ATOM     20  C   UNL     1       9.600   5.050   5.071  0.00  0.00    +0.012 A 
ATOM     21  C   UNL     1      10.094   7.035   6.356  0.00  0.00    +0.012 A 
ATOM     23  C   UNL     1       9.674   4.280   6.231  0.00  0.00    +0.046 A 
ATOM     24  C   UNL     1      10.167   6.265   7.518  0.00  0.00    +0.046 A 
ATOM     25  C   UNL     1       9.957   4.888   7.454  0.00  0.00    +0.120 A 
BRANCH  25   3
ATOM      3  O   UNL     1      10.027   4.137   8.588  0.00  0.00    -0.495 OA
ATOM     31  C   UNL     1       9.286   4.595   9.718  0.00  0.00    +0.277 C 
ENDBRANCH  25   3
ENDBRANCH  14  19
BRANCH   6  22
ATOM     22  C   UNL     1      10.733   4.815  -1.781  0.00  0.00    +0.035 A 
ATOM     26  C   UNL     1       9.698   5.736  -1.933  0.00  0.00    +0.023 A 
ATOM     27  C   UNL     1      10.781   3.680  -2.591  0.00  0.00    +0.023 A 
ATOM     28  C   UNL     1       8.710   5.524  -2.895  0.00  0.00    +0.002 A 
ATOM     29  C   UNL     1       9.795   3.468  -3.553  0.00  0.00    +0.002 A 
ATOM     30  C   UNL     1       8.758   4.389  -3.705  0.00  0.00    +0.000 A 
ENDBRANCH   6  22
TORSDOF 3
ENDMDL
MODEL 6
REMARK VINA RESULT:      -6.5      2.659      7.256
REMARK  Name = 40587810
REMARK  4 active torsions:
REMARK  status: ('A' for Active; 'I' for Inactive)
REMARK    1  A    between atoms: O_3  and  C_25
REMARK    2  A    between atoms: O_3  and  C_31
REMARK    3  A    between atoms: N_6  and  C_22
REMARK    4  A    between atoms: C_14  and  C_19
REMARK                            x       y       z     vdW  Elec       q    Type
REMARK                         _______ _______ _______ _____ _____    ______ ____
ROOT
ATOM      1  O   UNL     1      -7.835 -14.762  17.298  0.00  0.00    -0.268 OA
ATOM      2  O   UNL     1      -7.679  -9.163  15.902  0.00  0.00    -0.252 OA
ATOM      4  N   UNL     1      -6.187 -13.101  17.168  0.00  0.00    -0.311 N 
ATOM      5  N   UNL     1      -6.472  -9.971  17.703  0.00  0.00    -0.284 N 
ATOM      6  N   UNL     1      -8.794  -9.596  17.889  0.00  0.00    -0.269 N 
ATOM      7  C   UNL     1      -5.517 -11.717  19.217  0.00  0.00    +0.027 C 
ATOM      8  C   UNL     1      -4.458 -11.281  17.044  0.00  0.00    +0.054 C 
ATOM      9  C   UNL     1      -4.176 -11.584  18.514  0.00  0.00    +0.018 C 
ATOM     10  C   UNL     1      -6.251 -12.922  18.624  0.00  0.00    +0.130 C 
ATOM     11  C   UNL     1      -6.347 -10.425  19.095  0.00  0.00    +0.114 C 
ATOM     12  C   UNL     1      -5.215  -9.943  16.948  0.00  0.00    +0.119 C 
ATOM     13  C   UNL     1      -5.263 -12.397  16.373  0.00  0.00    +0.034 A 
ATOM     14  C   UNL     1      -5.135 -12.701  15.054  0.00  0.00    +0.002 A 
ATOM     15  C   UNL     1      -7.023 -14.106  16.646  0.00  0.00    +0.252 A 
ATOM     16  C   UNL     1      -7.664  -9.552  17.073  0.00  0.00    +0.306 C 
ATOM     17  C   UNL     1      -5.983 -13.728  14.479  0.00  0.00    +0.015 A 
ATOM     18  C   UNL     1      -6.887 -14.391  15.199  0.00  0.00    +0.071 A 
ATOM     32  H   UNL     1      -8.668  -9.443  18.885  0.00  0.00    +0.156 HD
ENDROOT
BRANCH  14  19
ATOM     19  C   UNL     1      -4.169 -11.999  14.182  0.00  0.00    -0.016 A 
ATOM     20  C   UNL     1      -2.829 -12.387  14.171  0.00  0.00    +0.012 A 
ATOM     21  C   UNL     1      -4.597 -10.948  13.371  0.00  0.00    +0.012 A 
ATOM     23  C   UNL     1      -1.918 -11.725  13.347  0.00  0.00    +0.046 A 
ATOM     24  C   UNL     1      -3.686 -10.286  12.547  0.00  0.00    +0.046 A 
ATOM     25  C   UNL     1      -2.347 -10.675  12.536  0.00  0.00    +0.120 A 
BRANCH  25   3
ATOM      3  O   UNL     1      -1.457 -10.029  11.733  0.00  0.00    -0.495 OA
ATOM     31  C   UNL     1      -1.995  -9.185  10.715  0.00  0.00    +0.277 C 
ENDBRANCH  25   3
ENDBRANCH  14  19
BRANCH   6  22
ATOM     22  C   UNL     1     -10.134  -9.822  17.488  0.00  0.00    +0.035 A 
ATOM     26  C   UNL     1     -11.129  -8.910  17.836  0.00  0.00    +0.023 A 
ATOM     27  C   UNL     1     -10.457 -10.957  16.745  0.00  0.00    +0.023 A 
ATOM     28  C   UNL     1     -12.448  -9.132  17.442  0.00  0.00    +0.002 A 
ATOM     29  C   UNL     1     -11.776 -11.179  16.350  0.00  0.00    +0.002 A 
ATOM     30  C   UNL     1     -12.772 -10.267  16.699  0.00  0.00    +0.000 A 
ENDBRANCH   6  22
TORSDOF 3
ENDMDL
MODEL 7
REMARK VINA RESULT:      -6.5     24.850     28.383
REMARK  Name = 40587810
REMARK  4 active torsions:
REMARK  status: ('A' for Active; 'I' for Inactive)
REMARK    1  A    between atoms: O_3  and  C_25
REMARK    2  A    between atoms: O_3  and  C_31
REMARK    3  A    between atoms: N_6  and  C_22
REMARK    4  A    between atoms: C_14  and  C_19
REMARK                            x       y       z     vdW  Elec       q    Type
REMARK                         _______ _______ _______ _____ _____    ______ ____
ROOT
ATOM      1  O   UNL     1      10.922   5.643   8.677  0.00  0.00    -0.268 OA
ATOM      2  O   UNL     1      10.955  10.810   6.104  0.00  0.00    -0.252 OA
ATOM      4  N   UNL     1      11.761   6.525   6.675  0.00  0.00    -0.311 N 
ATOM      5  N   UNL     1      12.840   9.469   6.096  0.00  0.00    -0.284 N 
ATOM      6  N   UNL     1      12.265  10.714   8.015  0.00  0.00    -0.269 N 
ATOM      7  C   UNL     1      14.166   7.386   6.495  0.00  0.00    +0.027 C 
ATOM      8  C   UNL     1      12.669   7.521   4.553  0.00  0.00    +0.054 C 
ATOM      9  C   UNL     1      14.037   7.029   5.023  0.00  0.00    +0.018 C 
ATOM     10  C   UNL     1      13.099   6.613   7.272  0.00  0.00    +0.130 C 
ATOM     11  C   UNL     1      14.047   8.906   6.718  0.00  0.00    +0.114 C 
ATOM     12  C   UNL     1      12.609   9.052   4.710  0.00  0.00    +0.119 C 
ATOM     13  C   UNL     1      11.525   6.862   5.328  0.00  0.00    +0.034 A 
ATOM     14  C   UNL     1      10.306   6.625   4.775  0.00  0.00    +0.002 A 
ATOM     15  C   UNL     1      10.766   5.970   7.500  0.00  0.00    +0.252 A 
ATOM     16  C   UNL     1      11.936  10.367   6.705  0.00  0.00    +0.306 C 
ATOM     17  C   UNL     1       9.253   6.058   5.596  0.00  0.00    +0.015 A 
ATOM     18  C   UNL     1       9.438   5.755   6.881  0.00  0.00    +0.071 A 
ATOM     32  H   UNL     1      13.247  10.736   8.270  0.00  0.00    +0.156 HD
ENDROOT
BRANCH  14  19
ATOM     19  C   UNL     1      10.015   6.948   3.361  0.00  0.00    -0.016 A 
ATOM     20  C   UNL     1       9.342   8.126   3.039  0.00  0.00    +0.012 A 
ATOM     21  C   UNL     1      10.414   6.074   2.350  0.00  0.00    +0.012 A 
ATOM     23  C   UNL     1       9.068   8.431   1.706  0.00  0.00    +0.046 A 
ATOM     24  C   UNL     1      10.140   6.378   1.016  0.00  0.00    +0.046 A 
ATOM     25  C   UNL     1       9.467   7.557   0.695  0.00  0.00    +0.120 A 
BRANCH  25   3
ATOM      3  O   UNL     1       9.198   7.854  -0.607  0.00  0.00    -0.495 OA
ATOM     31  C   UNL     1       9.292   6.786  -1.549  0.00  0.00    +0.277 C 
ENDBRANCH  25   3
ENDBRANCH  14  19
BRANCH   6  22
ATOM     22  C   UNL     1      11.373  11.063   9.060  0.00  0.00    +0.035 A 
ATOM     26  C   UNL     1      10.026  10.716   8.972  0.00  0.00    +0.023 A 
ATOM     27  C   UNL     1      11.844  11.754  10.176  0.00  0.00    +0.023 A 
ATOM     28  C   UNL     1       9.148  11.060  10.000  0.00  0.00    +0.002 A 
ATOM     29  C   UNL     1      10.967  12.098  11.204  0.00  0.00    +0.002 A 
ATOM     30  C   UNL     1       9.619  11.751  11.116  0.00  0.00    +0.000 A 
ENDBRANCH   6  22
TORSDOF 3
ENDMDL
MODEL 8
REMARK VINA RESULT:      -6.5     25.196     28.363
REMARK  Name = 40587810
REMARK  4 active torsions:
REMARK  status: ('A' for Active; 'I' for Inactive)
REMARK    1  A    between atoms: O_3  and  C_25
REMARK    2  A    between atoms: O_3  and  C_31
REMARK    3  A    between atoms: N_6  and  C_22
REMARK    4  A    between atoms: C_14  and  C_19
REMARK                            x       y       z     vdW  Elec       q    Type
REMARK                         _______ _______ _______ _____ _____    ______ ____
ROOT
ATOM      1  O   UNL     1      10.133   4.946   2.864  0.00  0.00    -0.268 OA
ATOM      2  O   UNL     1       9.729  10.285   5.018  0.00  0.00    -0.252 OA
ATOM      4  N   UNL     1      10.952   6.070   4.749  0.00  0.00    -0.311 N 
ATOM      5  N   UNL     1       9.593   8.435   6.400  0.00  0.00    -0.284 N 
ATOM      6  N   UNL     1       7.740   9.096   5.100  0.00  0.00    -0.269 N 
ATOM      7  C   UNL     1       9.712   6.007   6.989  0.00  0.00    +0.027 C 
ATOM      8  C   UNL     1      11.783   7.308   6.772  0.00  0.00    +0.054 C 
ATOM      9  C   UNL     1      11.086   6.228   7.598  0.00  0.00    +0.018 C 
ATOM     10  C   UNL     1       9.896   5.465   5.571  0.00  0.00    +0.130 C 
ATOM     11  C   UNL     1       8.875   7.302   7.001  0.00  0.00    +0.114 C 
ATOM     12  C   UNL     1      10.970   8.613   6.871  0.00  0.00    +0.119 C 
ATOM     13  C   UNL     1      11.948   6.893   5.308  0.00  0.00    +0.034 A 
ATOM     14  C   UNL     1      12.989   7.311   4.541  0.00  0.00    +0.002 A 
ATOM     15  C   UNL     1      10.967   5.675   3.399  0.00  0.00    +0.252 A 
ATOM     16  C   UNL     1       9.064   9.345   5.458  0.00  0.00    +0.306 C 
ATOM     17  C   UNL     1      13.037   6.928   3.142  0.00  0.00    +0.015 A 
ATOM     18  C   UNL     1      12.094   6.174   2.578  0.00  0.00    +0.071 A 
ATOM     32  H   UNL     1       7.129   8.675   5.793  0.00  0.00    +0.156 HD
ENDROOT
BRANCH  14  19
ATOM     19  C   UNL     1      14.067   8.165   5.087  0.00  0.00    -0.016 A 
ATOM     20  C   UNL     1      13.968   9.553   5.002  0.00  0.00    +0.012 A 
ATOM     21  C   UNL     1      15.183   7.580   5.685  0.00  0.00    +0.012 A 
ATOM     23  C   UNL     1      14.984  10.358   5.517  0.00  0.00    +0.046 A 
ATOM     24  C   UNL     1      16.200   8.385   6.200  0.00  0.00    +0.046 A 
ATOM     25  C   UNL     1      16.100   9.774   6.116  0.00  0.00    +0.120 A 
BRANCH  25   3
ATOM      3  O   UNL     1      17.092  10.559   6.618  0.00  0.00    -0.495 OA
ATOM     31  C   UNL     1      18.410  10.339   6.116  0.00  0.00    +0.277 C 
ENDBRANCH  25   3
ENDBRANCH  14  19
BRANCH   6  22
ATOM     22  C   UNL     1       7.120   9.379   3.857  0.00  0.00    +0.035 A 
ATOM     26  C   UNL     1       5.887  10.029   3.825  0.00  0.00    +0.023 A 
ATOM     27  C   UNL     1       7.744   9.009   2.666  0.00  0.00    +0.023 A 
ATOM     28  C   UNL     1       5.276  10.307   2.602  0.00  0.00    +0.002 A 
ATOM     29  C   UNL     1       7.135   9.288   1.444  0.00  0.00    +0.002 A 
ATOM     30  C   UNL     1       5.900   9.937   1.411  0.00  0.00    +0.000 A 
ENDBRANCH   6  22
TORSDOF 3
ENDMDL
MODEL 9
REMARK VINA RESULT:      -6.3      3.043      7.368
REMARK  Name = 40587810
REMARK  4 active torsions:
REMARK  status: ('A' for Active; 'I' for Inactive)
REMARK    1  A    between atoms: O_3  and  C_25
REMARK    2  A    between atoms: O_3  and  C_31
REMARK    3  A    between atoms: N_6  and  C_22
REMARK    4  A    between atoms: C_14  and  C_19
REMARK                            x       y       z     vdW  Elec       q    Type
REMARK                         _______ _______ _______ _____ _____    ______ ____
ROOT
ATOM      1  O   UNL     1      -1.130 -10.435  15.144  0.00  0.00    -0.268 OA
ATOM      2  O   UNL     1      -4.398 -14.346  12.434  0.00  0.00    -0.252 OA
ATOM      4  N   UNL     1      -3.238 -10.455  14.124  0.00  0.00    -0.311 N 
ATOM      5  N   UNL     1      -5.333 -12.851  13.932  0.00  0.00    -0.284 N 
ATOM      6  N   UNL     1      -4.159 -14.746  14.706  0.00  0.00    -0.269 N 
ATOM      7  C   UNL     1      -5.374 -10.881  15.472  0.00  0.00    +0.027 C 
ATOM      8  C   UNL     1      -5.508 -10.531  13.045  0.00  0.00    +0.054 C 
ATOM      9  C   UNL     1      -6.055 -10.058  14.390  0.00  0.00    +0.018 C 
ATOM     10  C   UNL     1      -3.877 -10.570  15.441  0.00  0.00    +0.130 C 
ATOM     11  C   UNL     1      -5.649 -12.387  15.291  0.00  0.00    +0.114 C 
ATOM     12  C   UNL     1      -5.869 -12.015  12.854  0.00  0.00    +0.119 C 
ATOM     13  C   UNL     1      -3.993 -10.334  12.941  0.00  0.00    +0.034 A 
ATOM     14  C   UNL     1      -3.366 -10.081  11.762  0.00  0.00    +0.002 A 
ATOM     15  C   UNL     1      -1.835 -10.353  14.139  0.00  0.00    +0.252 A 
ATOM     16  C   UNL     1      -4.601 -14.014  13.604  0.00  0.00    +0.306 C 
ATOM     17  C   UNL     1      -1.920  -9.974  11.737  0.00  0.00    +0.015 A 
ATOM     18  C   UNL     1      -1.177 -10.113  12.835  0.00  0.00    +0.071 A 
ATOM     32  H   UNL     1      -4.725 -14.727  15.549  0.00  0.00    +0.156 HD
ENDROOT
BRANCH  14  19
ATOM     19  C   UNL     1      -4.117  -9.932  10.496  0.00  0.00    -0.016 A 
ATOM     20  C   UNL     1      -4.848  -8.769  10.251  0.00  0.00    +0.012 A 
ATOM     21  C   UNL     1      -4.093 -10.953   9.547  0.00  0.00    +0.012 A 
ATOM     23  C   UNL     1      -5.555  -8.628   9.057  0.00  0.00    +0.046 A 
ATOM     24  C   UNL     1      -4.800 -10.812   8.352  0.00  0.00    +0.046 A 
ATOM     25  C   UNL     1      -5.531  -9.650   8.108  0.00  0.00    +0.120 A 
BRANCH  25   3
ATOM      3  O   UNL     1      -6.222  -9.513   6.943  0.00  0.00    -0.495 OA
ATOM     31  C   UNL     1      -6.014 -10.510   5.944  0.00  0.00    +0.277 C 
ENDBRANCH  25   3
ENDBRANCH  14  19
BRANCH   6  22
ATOM     22  C   UNL     1      -2.993 -15.547  14.793  0.00  0.00    +0.035 A 
ATOM     26  C   UNL     1      -2.957 -16.634  15.665  0.00  0.00    +0.023 A 
ATOM     27  C   UNL     1      -1.882 -15.248  14.004  0.00  0.00    +0.023 A 
ATOM     28  C   UNL     1      -1.809 -17.422  15.750  0.00  0.00    +0.002 A 
ATOM     29  C   UNL     1      -0.735 -16.036  14.089  0.00  0.00    +0.002 A 
ATOM     30  C   UNL     1      -0.698 -17.123  14.962  0.00  0.00    +0.000 A 
ENDBRANCH   6  22
TORSDOF 3
ENDMDL
MODEL 10
REMARK VINA RESULT:      -6.3     19.669     22.654
REMARK  Name = 40587810
REMARK  4 active torsions:
REMARK  status: ('A' for Active; 'I' for Inactive)
REMARK    1  A    between atoms: O_3  and  C_25
REMARK    2  A    between atoms: O_3  and  C_31
REMARK    3  A    between atoms: N_6  and  C_22
REMARK    4  A    between atoms: C_14  and  C_19
REMARK                            x       y       z     vdW  Elec       q    Type
REMARK                         _______ _______ _______ _____ _____    ______ ____
ROOT
ATOM      1  O   UNL     1       7.737  -7.500  32.769  0.00  0.00    -0.268 OA
ATOM      2  O   UNL     1      11.505 -11.071  30.246  0.00  0.00    -0.252 OA
ATOM      4  N   UNL     1       8.037  -9.820  32.643  0.00  0.00    -0.311 N 
ATOM      5  N   UNL     1      10.759 -11.462  32.400  0.00  0.00    -0.284 N 
ATOM      6  N   UNL     1      12.415  -9.835  31.984  0.00  0.00    -0.269 N 
ATOM      7  C   UNL     1       9.349 -11.099  34.434  0.00  0.00    +0.027 C 
ATOM      8  C   UNL     1       8.416 -12.301  32.506  0.00  0.00    +0.054 C 
ATOM      9  C   UNL     1       8.477 -12.278  34.032  0.00  0.00    +0.018 C 
ATOM     10  C   UNL     1       8.659  -9.813  33.974  0.00  0.00    +0.130 C 
ATOM     11  C   UNL     1      10.770 -11.225  33.851  0.00  0.00    +0.114 C 
ATOM     12  C   UNL     1       9.838 -12.512  31.954  0.00  0.00    +0.119 C 
ATOM     13  C   UNL     1       7.809 -11.016  31.936  0.00  0.00    +0.034 A 
ATOM     14  C   UNL     1       7.099 -10.992  30.778  0.00  0.00    +0.002 A 
ATOM     15  C   UNL     1       7.579  -8.572  32.184  0.00  0.00    +0.252 A 
ATOM     16  C   UNL     1      11.559 -10.796  31.447  0.00  0.00    +0.306 C 
ATOM     17  C   UNL     1       6.614  -9.723  30.270  0.00  0.00    +0.015 A 
ATOM     18  C   UNL     1       6.838  -8.571  30.902  0.00  0.00    +0.071 A 
ATOM     32  H   UNL     1      12.768  -9.983  32.924  0.00  0.00    +0.156 HD
ENDROOT
BRANCH  14  19
ATOM     19  C   UNL     1       6.821 -12.224  30.008  0.00  0.00    -0.016 A 
ATOM     20  C   UNL     1       7.677 -12.610  28.976  0.00  0.00    +0.012 A 
ATOM     21  C   UNL     1       5.703 -13.000  30.313  0.00  0.00    +0.012 A 
ATOM     23  C   UNL     1       7.416 -13.771  28.250  0.00  0.00    +0.046 A 
ATOM     24  C   UNL     1       5.441 -14.163  29.586  0.00  0.00    +0.046 A 
ATOM     25  C   UNL     1       6.298 -14.547  28.555  0.00  0.00    +0.120 A 
BRANCH  25   3
ATOM      3  O   UNL     1       6.042 -15.681  27.845  0.00  0.00    -0.495 OA
ATOM     31  C   UNL     1       6.180 -15.604  26.427  0.00  0.00    +0.277 C 
ENDBRANCH  25   3
ENDBRANCH  14  19
BRANCH   6  22
ATOM     22  C   UNL     1      12.876  -8.650  31.358  0.00  0.00    +0.035 A 
ATOM     26  C   UNL     1      14.146  -8.613  30.786  0.00  0.00    +0.023 A 
ATOM     27  C   UNL     1      12.057  -7.522  31.312  0.00  0.00    +0.023 A 
ATOM     28  C   UNL     1      14.600  -7.446  30.170  0.00  0.00    +0.002 A 
ATOM     29  C   UNL     1      12.510  -6.356  30.696  0.00  0.00    +0.002 A 
ATOM     30  C   UNL     1      13.782  -6.318  30.125  0.00  0.00    +0.000 A 
ENDBRANCH   6  22
TORSDOF 3
ENDMDL
