MODEL 1
REMARK VINA RESULT:      -7.1      0.000      0.000
REMARK  Name = 26761883
REMARK  9 active torsions:
REMARK  status: ('A' for Active; 'I' for Inactive)
REMARK    1  A    between atoms: O_3  and  C_29
REMARK    2  A    between atoms: O_3  and  C_30
REMARK    3  A    between atoms: N_9  and  C_21
REMARK    4  A    between atoms: C_11  and  C_16
REMARK    5  A    between atoms: C_19  and  C_20
REMARK    6  A    between atoms: C_20  and  C_22
REMARK    7  A    between atoms: C_20  and  C_23
REMARK    8  A    between atoms: C_28  and  C_29
REMARK    9  A    between atoms: C_30  and  C_31
REMARK                            x       y       z     vdW  Elec       q    Type
REMARK                         _______ _______ _______ _____ _____    ______ ____
ROOT
ATOM      2  O   UNL     1      -7.517  -9.825   8.064  0.00  0.00    -0.252 OA
ATOM      5  N   UNL     1      -8.228  -7.617   7.939  0.00  0.00    -0.267 N 
ATOM      6  N   UNL     1      -9.468  -4.194   8.809  0.00  0.00    -0.347 N 
ATOM      7  N   UNL     1     -11.496  -5.108   8.604  0.00  0.00    -0.240 NA
ATOM      9  N   UNL     1      -6.096  -8.145   8.810  0.00  0.00    -0.269 N 
ATOM     11  C   UNL     1      -9.486  -8.013   7.213  0.00  0.00    +0.172 C 
ATOM     12  C   UNL     1     -10.759  -7.422   7.889  0.00  0.00    +0.089 C 
ATOM     13  C   UNL     1      -7.982  -6.164   8.177  0.00  0.00    +0.165 C 
ATOM     14  C   UNL     1     -10.527  -6.023   8.302  0.00  0.00    +0.066 A 
ATOM     15  C   UNL     1      -9.269  -5.487   8.424  0.00  0.00    +0.056 A 
ATOM     17  C   UNL     1      -7.288  -8.630   8.271  0.00  0.00    +0.307 C 
ATOM     18  C   UNL     1     -10.825  -4.015   8.905  0.00  0.00    +0.197 A 
ATOM     32  H   UNL     1      -8.755  -3.499   8.991  0.00  0.00    +0.167 HD
ATOM     33  H   UNL     1      -5.803  -7.209   8.545  0.00  0.00    +0.156 HD
ENDROOT
BRANCH   9  21
ATOM     21  C   UNL     1      -5.245  -8.790   9.741  0.00  0.00    +0.035 A 
ATOM     24  C   UNL     1      -5.765  -9.278  10.940  0.00  0.00    +0.024 A 
ATOM     25  C   UNL     1      -3.887  -8.938   9.459  0.00  0.00    +0.024 A 
ATOM     26  C   UNL     1      -4.928  -9.912  11.857  0.00  0.00    +0.017 A 
ATOM     27  C   UNL     1      -3.049  -9.573  10.376  0.00  0.00    +0.017 A 
ATOM     28  C   UNL     1      -3.570 -10.060  11.575  0.00  0.00    +0.059 A 
BRANCH  28  29
ATOM      4  O   UNL     1      -1.864 -11.589  12.237  0.00  0.00    -0.245 OA
ATOM     29  C   UNL     1      -2.698 -10.722  12.532  0.00  0.00    +0.339 C 
BRANCH  29   3
ATOM      3  O   UNL     1      -2.913 -10.269  13.805  0.00  0.00    -0.461 OA
BRANCH   3  30
ATOM     30  C   UNL     1      -2.205 -10.934  14.857  0.00  0.00    +0.229 C 
ATOM     31  C   UNL     1      -1.140 -10.005  15.399  0.00  0.00    +0.048 C 
ENDBRANCH   3  30
ENDBRANCH  29   3
ENDBRANCH  28  29
ENDBRANCH   9  21
BRANCH  11  16
ATOM      1  O   UNL     1      -8.185  -8.205   5.138  0.00  0.00    -0.336 OA
ATOM      8  N   UNL     1     -10.161  -7.180   4.882  0.00  0.00    -0.194 NA
ATOM     10  N   UNL     1      -8.276  -7.867   3.781  0.00  0.00    -0.061 NA
ATOM     16  C   UNL     1      -9.335  -7.765   5.712  0.00  0.00    +0.248 A 
ATOM     19  C   UNL     1      -9.467  -7.266   3.709  0.00  0.00    +0.174 A 
BRANCH  19  20
ATOM     20  C   UNL     1      -9.994  -6.734   2.448  0.00  0.00    +0.054 C 
ATOM     22  C   UNL     1     -11.511  -6.416   2.503  0.00  0.00    +0.015 C 
ATOM     23  C   UNL     1      -9.720  -7.654   1.231  0.00  0.00    +0.015 C 
ENDBRANCH  19  20
ENDBRANCH  11  16
TORSDOF 6
ENDMDL
MODEL 2
REMARK VINA RESULT:      -7.0     28.202     33.493
REMARK  Name = 26761883
REMARK  9 active torsions:
REMARK  status: ('A' for Active; 'I' for Inactive)
REMARK    1  A    between atoms: O_3  and  C_29
REMARK    2  A    between atoms: O_3  and  C_30
REMARK    3  A    between atoms: N_9  and  C_21
REMARK    4  A    between atoms: C_11  and  C_16
REMARK    5  A    between atoms: C_19  and  C_20
REMARK    6  A    between atoms: C_20  and  C_22
REMARK    7  A    between atoms: C_20  and  C_23
REMARK    8  A    between atoms: C_28  and  C_29
REMARK    9  A    between atoms: C_30  and  C_31
REMARK                            x       y       z     vdW  Elec       q    Type
REMARK                         _______ _______ _______ _____ _____    ______ ____
ROOT
ATOM      2  O   UNL     1      18.415   5.613  19.815  0.00  0.00    -0.252 OA
ATOM      5  N   UNL     1      19.677   6.823  21.344  0.00  0.00    -0.267 N 
ATOM      6  N   UNL     1      21.267   9.608  23.275  0.00  0.00    -0.347 N 
ATOM      7  N   UNL     1      22.836   9.529  21.685  0.00  0.00    -0.240 NA
ATOM      9  N   UNL     1      17.328   6.688  21.564  0.00  0.00    -0.269 N 
ATOM     11  C   UNL     1      20.965   6.372  20.712  0.00  0.00    +0.172 C 
ATOM     12  C   UNL     1      21.903   7.570  20.380  0.00  0.00    +0.089 C 
ATOM     13  C   UNL     1      19.755   7.688  22.559  0.00  0.00    +0.165 C 
ATOM     14  C   UNL     1      21.899   8.555  21.482  0.00  0.00    +0.066 A 
ATOM     15  C   UNL     1      20.921   8.583  22.445  0.00  0.00    +0.056 A 
ATOM     17  C   UNL     1      18.453   6.325  20.821  0.00  0.00    +0.307 C 
ATOM     18  C   UNL     1      22.426  10.147  22.775  0.00  0.00    +0.197 A 
ATOM     32  H   UNL     1      20.769   9.915  24.100  0.00  0.00    +0.167 HD
ATOM     33  H   UNL     1      17.452   6.866  22.557  0.00  0.00    +0.156 HD
ENDROOT
BRANCH   9  21
ATOM     21  C   UNL     1      16.009   6.890  21.088  0.00  0.00    +0.035 A 
ATOM     24  C   UNL     1      15.687   6.573  19.768  0.00  0.00    +0.024 A 
ATOM     25  C   UNL     1      15.031   7.407  21.938  0.00  0.00    +0.024 A 
ATOM     26  C   UNL     1      14.390   6.773  19.298  0.00  0.00    +0.017 A 
ATOM     27  C   UNL     1      13.733   7.607  21.468  0.00  0.00    +0.017 A 
ATOM     28  C   UNL     1      13.412   7.290  20.148  0.00  0.00    +0.059 A 
BRANCH  28  29
ATOM      4  O   UNL     1      11.082   7.737  20.378  0.00  0.00    -0.245 OA
ATOM     29  C   UNL     1      12.060   7.498  19.657  0.00  0.00    +0.339 C 
BRANCH  29   3
ATOM      3  O   UNL     1      11.999   7.395  18.294  0.00  0.00    -0.461 OA
BRANCH   3  30
ATOM     30  C   UNL     1      11.557   8.554  17.577  0.00  0.00    +0.229 C 
ATOM     31  C   UNL     1      12.693   9.066  16.720  0.00  0.00    +0.048 C 
ENDBRANCH   3  30
ENDBRANCH  29   3
ENDBRANCH  28  29
ENDBRANCH   9  21
BRANCH  11  16
ATOM      1  O   UNL     1      21.335   5.227  22.854  0.00  0.00    -0.336 OA
ATOM      8  N   UNL     1      22.329   4.234  21.109  0.00  0.00    -0.194 NA
ATOM     10  N   UNL     1      21.995   4.104  23.369  0.00  0.00    -0.061 NA
ATOM     16  C   UNL     1      21.582   5.229  21.518  0.00  0.00    +0.248 A 
ATOM     19  C   UNL     1      22.558   3.571  22.280  0.00  0.00    +0.174 A 
BRANCH  19  20
ATOM     20  C   UNL     1      23.370   2.352  22.343  0.00  0.00    +0.054 C 
ATOM     22  C   UNL     1      24.530   2.440  23.368  0.00  0.00    +0.015 C 
ATOM     23  C   UNL     1      23.949   1.928  20.969  0.00  0.00    +0.015 C 
ENDBRANCH  19  20
ENDBRANCH  11  16
TORSDOF 6
ENDMDL
MODEL 3
REMARK VINA RESULT:      -7.0     28.104     32.137
REMARK  Name = 26761883
REMARK  9 active torsions:
REMARK  status: ('A' for Active; 'I' for Inactive)
REMARK    1  A    between atoms: O_3  and  C_29
REMARK    2  A    between atoms: O_3  and  C_30
REMARK    3  A    between atoms: N_9  and  C_21
REMARK    4  A    between atoms: C_11  and  C_16
REMARK    5  A    between atoms: C_19  and  C_20
REMARK    6  A    between atoms: C_20  and  C_22
REMARK    7  A    between atoms: C_20  and  C_23
REMARK    8  A    between atoms: C_28  and  C_29
REMARK    9  A    between atoms: C_30  and  C_31
REMARK                            x       y       z     vdW  Elec       q    Type
REMARK                         _______ _______ _______ _____ _____    ______ ____
ROOT
ATOM      2  O   UNL     1      17.810   9.248  20.828  0.00  0.00    -0.252 OA
ATOM      5  N   UNL     1      15.721   8.376  21.349  0.00  0.00    -0.267 N 
ATOM      6  N   UNL     1      12.621   6.279  21.396  0.00  0.00    -0.347 N 
ATOM      7  N   UNL     1      11.901   7.687  19.817  0.00  0.00    -0.240 NA
ATOM      9  N   UNL     1      17.692   7.236  21.983  0.00  0.00    -0.269 N 
ATOM     11  C   UNL     1      15.024   9.599  20.818  0.00  0.00    +0.172 C 
ATOM     12  C   UNL     1      13.904   9.235  19.799  0.00  0.00    +0.089 C 
ATOM     13  C   UNL     1      14.885   7.300  21.959  0.00  0.00    +0.165 C 
ATOM     14  C   UNL     1      13.135   8.064  20.266  0.00  0.00    +0.066 A 
ATOM     15  C   UNL     1      13.602   7.213  21.238  0.00  0.00    +0.056 A 
ATOM     17  C   UNL     1      17.142   8.346  21.340  0.00  0.00    +0.307 C 
ATOM     18  C   UNL     1      11.618   6.608  20.518  0.00  0.00    +0.197 A 
ATOM     32  H   UNL     1      12.627   5.495  22.035  0.00  0.00    +0.167 HD
ATOM     33  H   UNL     1      17.153   6.805  22.728  0.00  0.00    +0.156 HD
ENDROOT
BRANCH   9  21
ATOM     21  C   UNL     1      18.917   6.588  21.688  0.00  0.00    +0.035 A 
ATOM     24  C   UNL     1      19.976   6.654  22.593  0.00  0.00    +0.024 A 
ATOM     25  C   UNL     1      19.064   5.886  20.492  0.00  0.00    +0.024 A 
ATOM     26  C   UNL     1      21.183   6.018  22.302  0.00  0.00    +0.017 A 
ATOM     27  C   UNL     1      20.271   5.249  20.201  0.00  0.00    +0.017 A 
ATOM     28  C   UNL     1      21.330   5.315  21.106  0.00  0.00    +0.059 A 
BRANCH  28  29
ATOM      4  O   UNL     1      23.620   5.237  20.448  0.00  0.00    -0.245 OA
ATOM     29  C   UNL     1      22.589   4.652  20.805  0.00  0.00    +0.339 C 
BRANCH  29   3
ATOM      3  O   UNL     1      22.493   3.296  20.963  0.00  0.00    -0.461 OA
BRANCH   3  30
ATOM     30  C   UNL     1      23.457   2.676  21.823  0.00  0.00    +0.229 C 
ATOM     31  C   UNL     1      24.106   1.525  21.086  0.00  0.00    +0.048 C 
ENDBRANCH   3  30
ENDBRANCH  29   3
ENDBRANCH  28  29
ENDBRANCH   9  21
BRANCH  11  16
ATOM      1  O   UNL     1      15.633  11.179  22.599  0.00  0.00    -0.336 OA
ATOM      8  N   UNL     1      13.433  10.785  22.445  0.00  0.00    -0.194 NA
ATOM     10  N   UNL     1      15.028  11.952  23.598  0.00  0.00    -0.061 NA
ATOM     16  C   UNL     1      14.623  10.525  21.967  0.00  0.00    +0.248 A 
ATOM     19  C   UNL     1      13.732  11.665  23.445  0.00  0.00    +0.174 A 
BRANCH  19  20
ATOM     20  C   UNL     1      12.698  12.261  24.298  0.00  0.00    +0.054 C 
ATOM     22  C   UNL     1      13.221  12.670  25.699  0.00  0.00    +0.015 C 
ATOM     23  C   UNL     1      11.452  11.356  24.475  0.00  0.00    +0.015 C 
ENDBRANCH  19  20
ENDBRANCH  11  16
TORSDOF 6
ENDMDL
MODEL 4
REMARK VINA RESULT:      -6.6     22.936     25.056
REMARK  Name = 26761883
REMARK  9 active torsions:
REMARK  status: ('A' for Active; 'I' for Inactive)
REMARK    1  A    between atoms: O_3  and  C_29
REMARK    2  A    between atoms: O_3  and  C_30
REMARK    3  A    between atoms: N_9  and  C_21
REMARK    4  A    between atoms: C_11  and  C_16
REMARK    5  A    between atoms: C_19  and  C_20
REMARK    6  A    between atoms: C_20  and  C_22
REMARK    7  A    between atoms: C_20  and  C_23
REMARK    8  A    between atoms: C_28  and  C_29
REMARK    9  A    between atoms: C_30  and  C_31
REMARK                            x       y       z     vdW  Elec       q    Type
REMARK                         _______ _______ _______ _____ _____    ______ ____
ROOT
ATOM      2  O   UNL     1      10.217   7.778   3.896  0.00  0.00    -0.252 OA
ATOM      5  N   UNL     1      10.588   6.852   5.993  0.00  0.00    -0.267 N 
ATOM      6  N   UNL     1      10.571   4.569   8.959  0.00  0.00    -0.347 N 
ATOM      7  N   UNL     1       8.687   5.640   9.505  0.00  0.00    -0.240 NA
ATOM      9  N   UNL     1      11.676   5.981   4.085  0.00  0.00    -0.269 N 
ATOM     11  C   UNL     1       9.762   7.916   6.663  0.00  0.00    +0.172 C 
ATOM     12  C   UNL     1       8.677   7.308   7.600  0.00  0.00    +0.089 C 
ATOM     13  C   UNL     1      11.255   5.833   6.857  0.00  0.00    +0.165 C 
ATOM     14  C   UNL     1       9.230   6.176   8.371  0.00  0.00    +0.066 A 
ATOM     15  C   UNL     1      10.390   5.533   8.012  0.00  0.00    +0.056 A 
ATOM     17  C   UNL     1      10.780   6.926   4.587  0.00  0.00    +0.307 C 
ATOM     18  C   UNL     1       9.520   4.673   9.835  0.00  0.00    +0.197 A 
ATOM     32  H   UNL     1      11.332   3.904   9.010  0.00  0.00    +0.167 HD
ATOM     33  H   UNL     1      12.404   5.640   4.707  0.00  0.00    +0.156 HD
ENDROOT
BRANCH   9  21
ATOM     21  C   UNL     1      11.670   5.385   2.799  0.00  0.00    +0.035 A 
ATOM     24  C   UNL     1      12.735   5.603   1.924  0.00  0.00    +0.024 A 
ATOM     25  C   UNL     1      10.599   4.582   2.408  0.00  0.00    +0.024 A 
ATOM     26  C   UNL     1      12.729   5.019   0.658  0.00  0.00    +0.017 A 
ATOM     27  C   UNL     1      10.593   3.997   1.141  0.00  0.00    +0.017 A 
ATOM     28  C   UNL     1      11.658   4.215   0.267  0.00  0.00    +0.059 A 
BRANCH  28  29
ATOM      4  O   UNL     1      12.580   2.929  -1.516  0.00  0.00    -0.245 OA
ATOM     29  C   UNL     1      11.652   3.606  -1.054  0.00  0.00    +0.339 C 
BRANCH  29   3
ATOM      3  O   UNL     1      10.491   3.875  -1.727  0.00  0.00    -0.461 OA
BRANCH   3  30
ATOM     30  C   UNL     1      10.353   5.189  -2.278  0.00  0.00    +0.229 C 
ATOM     31  C   UNL     1       8.955   5.697  -1.998  0.00  0.00    +0.048 C 
ENDBRANCH   3  30
ENDBRANCH  29   3
ENDBRANCH  28  29
ENDBRANCH   9  21
BRANCH  11  16
ATOM      1  O   UNL     1      11.856   9.202   6.655  0.00  0.00    -0.336 OA
ATOM      8  N   UNL     1      10.465   9.739   8.327  0.00  0.00    -0.194 NA
ATOM     10  N   UNL     1      12.498  10.209   7.387  0.00  0.00    -0.061 NA
ATOM     16  C   UNL     1      10.666   8.987   7.274  0.00  0.00    +0.248 A 
ATOM     19  C   UNL     1      11.616  10.473   8.356  0.00  0.00    +0.174 A 
BRANCH  19  20
ATOM     20  C   UNL     1      11.872  11.486   9.385  0.00  0.00    +0.054 C 
ATOM     22  C   UNL     1      10.662  11.723  10.325  0.00  0.00    +0.015 C 
ATOM     23  C   UNL     1      12.329  12.849   8.804  0.00  0.00    +0.015 C 
ENDBRANCH  19  20
ENDBRANCH  11  16
TORSDOF 6
ENDMDL
MODEL 5
REMARK VINA RESULT:      -6.4      4.213      6.019
REMARK  Name = 26761883
REMARK  9 active torsions:
REMARK  status: ('A' for Active; 'I' for Inactive)
REMARK    1  A    between atoms: O_3  and  C_29
REMARK    2  A    between atoms: O_3  and  C_30
REMARK    3  A    between atoms: N_9  and  C_21
REMARK    4  A    between atoms: C_11  and  C_16
REMARK    5  A    between atoms: C_19  and  C_20
REMARK    6  A    between atoms: C_20  and  C_22
REMARK    7  A    between atoms: C_20  and  C_23
REMARK    8  A    between atoms: C_28  and  C_29
REMARK    9  A    between atoms: C_30  and  C_31
REMARK                            x       y       z     vdW  Elec       q    Type
REMARK                         _______ _______ _______ _____ _____    ______ ____
ROOT
ATOM      2  O   UNL     1      -4.030 -13.096   9.957  0.00  0.00    -0.252 OA
ATOM      5  N   UNL     1      -4.760 -11.485   8.451  0.00  0.00    -0.267 N 
ATOM      6  N   UNL     1      -6.633  -8.681   6.827  0.00  0.00    -0.347 N 
ATOM      7  N   UNL     1      -8.026 -10.290   6.145  0.00  0.00    -0.240 NA
ATOM      9  N   UNL     1      -3.525 -10.866  10.368  0.00  0.00    -0.269 N 
ATOM     11  C   UNL     1      -5.285 -12.535   7.509  0.00  0.00    +0.172 C 
ATOM     12  C   UNL     1      -6.764 -12.265   7.103  0.00  0.00    +0.089 C 
ATOM     13  C   UNL     1      -4.862 -10.054   8.036  0.00  0.00    +0.165 C 
ATOM     14  C   UNL     1      -6.977 -10.827   6.836  0.00  0.00    +0.066 A 
ATOM     15  C   UNL     1      -6.106  -9.858   7.269  0.00  0.00    +0.056 A 
ATOM     17  C   UNL     1      -4.100 -11.907   9.637  0.00  0.00    +0.307 C 
ATOM     18  C   UNL     1      -7.790  -8.993   6.156  0.00  0.00    +0.197 A 
ATOM     32  H   UNL     1      -6.250  -7.755   6.964  0.00  0.00    +0.167 HD
ATOM     33  H   UNL     1      -3.235 -10.035   9.861  0.00  0.00    +0.156 HD
ENDROOT
BRANCH   9  21
ATOM     21  C   UNL     1      -3.333 -10.801  11.770  0.00  0.00    +0.035 A 
ATOM     24  C   UNL     1      -4.435 -10.721  12.622  0.00  0.00    +0.024 A 
ATOM     25  C   UNL     1      -2.042 -10.816  12.299  0.00  0.00    +0.024 A 
ATOM     26  C   UNL     1      -4.246 -10.655  14.002  0.00  0.00    +0.017 A 
ATOM     27  C   UNL     1      -1.854 -10.751  13.680  0.00  0.00    +0.017 A 
ATOM     28  C   UNL     1      -2.955 -10.671  14.531  0.00  0.00    +0.059 A 
BRANCH  28  29
ATOM      4  O   UNL     1      -1.675 -10.778  16.539  0.00  0.00    -0.245 OA
ATOM     29  C   UNL     1      -2.760 -10.603  15.970  0.00  0.00    +0.339 C 
BRANCH  29   3
ATOM      3  O   UNL     1      -3.930 -10.321  16.623  0.00  0.00    -0.461 OA
BRANCH   3  30
ATOM     30  C   UNL     1      -4.302 -11.198  17.692  0.00  0.00    +0.229 C 
ATOM     31  C   UNL     1      -5.690 -11.738  17.427  0.00  0.00    +0.048 C 
ENDBRANCH   3  30
ENDBRANCH  29   3
ENDBRANCH  28  29
ENDBRANCH   9  21
BRANCH  11  16
ATOM      1  O   UNL     1      -3.210 -13.530   6.649  0.00  0.00    -0.336 OA
ATOM      8  N   UNL     1      -4.340 -12.331   5.131  0.00  0.00    -0.194 NA
ATOM     10  N   UNL     1      -2.464 -13.598   5.465  0.00  0.00    -0.061 NA
ATOM     16  C   UNL     1      -4.298 -12.767   6.365  0.00  0.00    +0.248 A 
ATOM     19  C   UNL     1      -3.194 -12.866   4.618  0.00  0.00    +0.174 A 
BRANCH  19  20
ATOM     20  C   UNL     1      -2.787 -12.653   3.225  0.00  0.00    +0.054 C 
ATOM     22  C   UNL     1      -3.939 -12.871   2.210  0.00  0.00    +0.015 C 
ATOM     23  C   UNL     1      -1.576 -13.522   2.800  0.00  0.00    +0.015 C 
ENDBRANCH  19  20
ENDBRANCH  11  16
TORSDOF 6
ENDMDL
MODEL 6
REMARK VINA RESULT:      -6.1      3.389      8.950
REMARK  Name = 26761883
REMARK  9 active torsions:
REMARK  status: ('A' for Active; 'I' for Inactive)
REMARK    1  A    between atoms: O_3  and  C_29
REMARK    2  A    between atoms: O_3  and  C_30
REMARK    3  A    between atoms: N_9  and  C_21
REMARK    4  A    between atoms: C_11  and  C_16
REMARK    5  A    between atoms: C_19  and  C_20
REMARK    6  A    between atoms: C_20  and  C_22
REMARK    7  A    between atoms: C_20  and  C_23
REMARK    8  A    between atoms: C_28  and  C_29
REMARK    9  A    between atoms: C_30  and  C_31
REMARK                            x       y       z     vdW  Elec       q    Type
REMARK                         _______ _______ _______ _____ _____    ______ ____
ROOT
ATOM      2  O   UNL     1     -10.092  -7.916   9.591  0.00  0.00    -0.252 OA
ATOM      5  N   UNL     1      -8.829  -7.871   7.642  0.00  0.00    -0.267 N 
ATOM      6  N   UNL     1      -7.780  -7.754   4.051  0.00  0.00    -0.347 N 
ATOM      7  N   UNL     1      -8.007  -9.976   4.134  0.00  0.00    -0.240 NA
ATOM      9  N   UNL     1      -9.916  -5.920   8.416  0.00  0.00    -0.269 N 
ATOM     11  C   UNL     1      -8.369  -9.288   7.850  0.00  0.00    +0.172 C 
ATOM     12  C   UNL     1      -8.604 -10.168   6.587  0.00  0.00    +0.089 C 
ATOM     13  C   UNL     1      -8.296  -7.124   6.464  0.00  0.00    +0.165 C 
ATOM     14  C   UNL     1      -8.249  -9.425   5.360  0.00  0.00    +0.066 A 
ATOM     15  C   UNL     1      -8.118  -8.058   5.337  0.00  0.00    +0.056 A 
ATOM     17  C   UNL     1      -9.664  -7.277   8.627  0.00  0.00    +0.307 C 
ATOM     18  C   UNL     1      -7.726  -8.942   3.366  0.00  0.00    +0.197 A 
ATOM     32  H   UNL     1      -7.602  -6.833   3.672  0.00  0.00    +0.167 HD
ATOM     33  H   UNL     1      -9.218  -5.382   7.910  0.00  0.00    +0.156 HD
ENDROOT
BRANCH   9  21
ATOM     21  C   UNL     1     -11.073  -5.191   8.785  0.00  0.00    +0.035 A 
ATOM     24  C   UNL     1     -10.948  -3.990   9.483  0.00  0.00    +0.024 A 
ATOM     25  C   UNL     1     -12.338  -5.674   8.451  0.00  0.00    +0.024 A 
ATOM     26  C   UNL     1     -12.086  -3.272   9.848  0.00  0.00    +0.017 A 
ATOM     27  C   UNL     1     -13.478  -4.957   8.816  0.00  0.00    +0.017 A 
ATOM     28  C   UNL     1     -13.351  -3.756   9.514  0.00  0.00    +0.059 A 
BRANCH  28  29
ATOM      4  O   UNL     1     -15.426  -2.653   9.107  0.00  0.00    -0.245 OA
ATOM     29  C   UNL     1     -14.538  -3.007   9.895  0.00  0.00    +0.339 C 
BRANCH  29   3
ATOM      3  O   UNL     1     -14.554  -2.739  11.237  0.00  0.00    -0.461 OA
BRANCH   3  30
ATOM     30  C   UNL     1     -14.988  -3.794  12.102  0.00  0.00    +0.229 C 
ATOM     31  C   UNL     1     -13.913  -4.060  13.133  0.00  0.00    +0.048 C 
ENDBRANCH   3  30
ENDBRANCH  29   3
ENDBRANCH  28  29
ENDBRANCH   9  21
BRANCH  11  16
ATOM      1  O   UNL     1      -5.951  -9.635   7.591  0.00  0.00    -0.336 OA
ATOM      8  N   UNL     1      -6.569  -9.059   9.665  0.00  0.00    -0.194 NA
ATOM     10  N   UNL     1      -4.774  -9.590   8.349  0.00  0.00    -0.061 NA
ATOM     16  C   UNL     1      -6.959  -9.310   8.441  0.00  0.00    +0.248 A 
ATOM     19  C   UNL     1      -5.221  -9.245   9.561  0.00  0.00    +0.174 A 
BRANCH  19  20
ATOM     20  C   UNL     1      -4.317  -9.076  10.703  0.00  0.00    +0.054 C 
ATOM     22  C   UNL     1      -2.829  -9.337  10.352  0.00  0.00    +0.015 C 
ATOM     23  C   UNL     1      -4.702  -9.949  11.925  0.00  0.00    +0.015 C 
ENDBRANCH  19  20
ENDBRANCH  11  16
TORSDOF 6
ENDMDL
MODEL 7
REMARK VINA RESULT:      -6.0     23.082     28.222
REMARK  Name = 26761883
REMARK  9 active torsions:
REMARK  status: ('A' for Active; 'I' for Inactive)
REMARK    1  A    between atoms: O_3  and  C_29
REMARK    2  A    between atoms: O_3  and  C_30
REMARK    3  A    between atoms: N_9  and  C_21
REMARK    4  A    between atoms: C_11  and  C_16
REMARK    5  A    between atoms: C_19  and  C_20
REMARK    6  A    between atoms: C_20  and  C_22
REMARK    7  A    between atoms: C_20  and  C_23
REMARK    8  A    between atoms: C_28  and  C_29
REMARK    9  A    between atoms: C_30  and  C_31
REMARK                            x       y       z     vdW  Elec       q    Type
REMARK                         _______ _______ _______ _____ _____    ______ ____
ROOT
ATOM      2  O   UNL     1       6.918  -9.866  29.935  0.00  0.00    -0.252 OA
ATOM      5  N   UNL     1       6.916 -10.086  32.247  0.00  0.00    -0.267 N 
ATOM      6  N   UNL     1       5.971 -10.938  35.767  0.00  0.00    -0.347 N 
ATOM      7  N   UNL     1       4.863  -8.998  35.714  0.00  0.00    -0.240 NA
ATOM      9  N   UNL     1       7.346 -11.952  30.863  0.00  0.00    -0.269 N 
ATOM     11  C   UNL     1       6.738  -8.604  32.436  0.00  0.00    +0.172 C 
ATOM     12  C   UNL     1       5.547  -8.276  33.385  0.00  0.00    +0.089 C 
ATOM     13  C   UNL     1       7.060 -10.937  33.465  0.00  0.00    +0.165 C 
ATOM     14  C   UNL     1       5.533  -9.198  34.540  0.00  0.00    +0.066 A 
ATOM     15  C   UNL     1       6.222 -10.386  34.545  0.00  0.00    +0.056 A 
ATOM     17  C   UNL     1       7.042 -10.591  30.924  0.00  0.00    +0.307 C 
ATOM     18  C   UNL     1       5.148 -10.064  36.433  0.00  0.00    +0.197 A 
ATOM     32  H   UNL     1       6.322 -11.819  36.118  0.00  0.00    +0.167 HD
ATOM     33  H   UNL     1       7.855 -12.360  31.642  0.00  0.00    +0.156 HD
ENDROOT
BRANCH   9  21
ATOM     21  C   UNL     1       6.985 -12.871  29.846  0.00  0.00    +0.035 A 
ATOM     24  C   UNL     1       5.764 -13.542  29.914  0.00  0.00    +0.024 A 
ATOM     25  C   UNL     1       7.851 -13.104  28.778  0.00  0.00    +0.024 A 
ATOM     26  C   UNL     1       5.409 -14.447  28.914  0.00  0.00    +0.017 A 
ATOM     27  C   UNL     1       7.495 -14.010  27.778  0.00  0.00    +0.017 A 
ATOM     28  C   UNL     1       6.275 -14.681  27.846  0.00  0.00    +0.059 A 
BRANCH  28  29
ATOM      4  O   UNL     1       5.393 -16.733  27.013  0.00  0.00    -0.245 OA
ATOM     29  C   UNL     1       5.903 -15.625  26.804  0.00  0.00    +0.339 C 
BRANCH  29   3
ATOM      3  O   UNL     1       6.187 -15.136  25.558  0.00  0.00    -0.461 OA
BRANCH   3  30
ATOM     30  C   UNL     1       6.234 -16.084  24.486  0.00  0.00    +0.229 C 
ATOM     31  C   UNL     1       5.226 -15.685  23.430  0.00  0.00    +0.048 C 
ENDBRANCH   3  30
ENDBRANCH  29   3
ENDBRANCH  28  29
ENDBRANCH   9  21
BRANCH  11  16
ATOM      1  O   UNL     1       9.169  -8.431  32.127  0.00  0.00    -0.336 OA
ATOM      8  N   UNL     1       8.334  -6.967  33.603  0.00  0.00    -0.194 NA
ATOM     10  N   UNL     1      10.258  -7.683  32.593  0.00  0.00    -0.061 NA
ATOM     16  C   UNL     1       8.076  -7.945  32.771  0.00  0.00    +0.248 A 
ATOM     19  C   UNL     1       9.686  -6.842  33.460  0.00  0.00    +0.174 A 
BRANCH  19  20
ATOM     20  C   UNL     1      10.463  -5.849  34.208  0.00  0.00    +0.054 C 
ATOM     22  C   UNL     1       9.662  -4.562  34.533  0.00  0.00    +0.015 C 
ATOM     23  C   UNL     1      11.787  -5.450  33.507  0.00  0.00    +0.015 C 
ENDBRANCH  19  20
ENDBRANCH  11  16
TORSDOF 6
ENDMDL
MODEL 8
REMARK VINA RESULT:      -6.0     24.148     25.606
REMARK  Name = 26761883
REMARK  9 active torsions:
REMARK  status: ('A' for Active; 'I' for Inactive)
REMARK    1  A    between atoms: O_3  and  C_29
REMARK    2  A    between atoms: O_3  and  C_30
REMARK    3  A    between atoms: N_9  and  C_21
REMARK    4  A    between atoms: C_11  and  C_16
REMARK    5  A    between atoms: C_19  and  C_20
REMARK    6  A    between atoms: C_20  and  C_22
REMARK    7  A    between atoms: C_20  and  C_23
REMARK    8  A    between atoms: C_28  and  C_29
REMARK    9  A    between atoms: C_30  and  C_31
REMARK                            x       y       z     vdW  Elec       q    Type
REMARK                         _______ _______ _______ _____ _____    ______ ____
ROOT
ATOM      2  O   UNL     1      10.925   6.708   1.111  0.00  0.00    -0.252 OA
ATOM      5  N   UNL     1      13.202   6.440   0.741  0.00  0.00    -0.267 N 
ATOM      6  N   UNL     1      16.926   6.776   0.909  0.00  0.00    -0.347 N 
ATOM      7  N   UNL     1      16.634   8.408  -0.589  0.00  0.00    -0.240 NA
ATOM      9  N   UNL     1      12.199   5.601   2.708  0.00  0.00    -0.269 N 
ATOM     11  C   UNL     1      13.096   7.031  -0.639  0.00  0.00    +0.172 C 
ATOM     12  C   UNL     1      14.127   8.176  -0.864  0.00  0.00    +0.089 C 
ATOM     13  C   UNL     1      14.536   5.944   1.192  0.00  0.00    +0.165 C 
ATOM     14  C   UNL     1      15.440   7.816  -0.289  0.00  0.00    +0.066 A 
ATOM     15  C   UNL     1      15.592   6.809   0.633  0.00  0.00    +0.056 A 
ATOM     17  C   UNL     1      12.015   6.288   1.507  0.00  0.00    +0.307 C 
ATOM     18  C   UNL     1      17.511   7.759   0.149  0.00  0.00    +0.197 A 
ATOM     32  H   UNL     1      17.398   6.151   1.549  0.00  0.00    +0.167 HD
ATOM     33  H   UNL     1      12.958   4.928   2.759  0.00  0.00    +0.156 HD
ENDROOT
BRANCH   9  21
ATOM     21  C   UNL     1      11.471   5.763   3.913  0.00  0.00    +0.035 A 
ATOM     24  C   UNL     1      11.659   6.903   4.695  0.00  0.00    +0.024 A 
ATOM     25  C   UNL     1      10.565   4.783   4.317  0.00  0.00    +0.024 A 
ATOM     26  C   UNL     1      10.944   7.062   5.881  0.00  0.00    +0.017 A 
ATOM     27  C   UNL     1       9.849   4.942   5.505  0.00  0.00    +0.017 A 
ATOM     28  C   UNL     1      10.038   6.081   6.286  0.00  0.00    +0.059 A 
BRANCH  28  29
ATOM      4  O   UNL     1       8.786   7.314   7.897  0.00  0.00    -0.245 OA
ATOM     29  C   UNL     1       9.293   6.248   7.523  0.00  0.00    +0.339 C 
BRANCH  29   3
ATOM      3  O   UNL     1       9.219   5.077   8.228  0.00  0.00    -0.461 OA
BRANCH   3  30
ATOM     30  C   UNL     1       9.747   5.089   9.559  0.00  0.00    +0.229 C 
ATOM     31  C   UNL     1       8.714   4.517  10.505  0.00  0.00    +0.048 C 
ENDBRANCH   3  30
ENDBRANCH  29   3
ENDBRANCH  28  29
ENDBRANCH   9  21
BRANCH  11  16
ATOM      1  O   UNL     1      13.634   6.215  -2.893  0.00  0.00    -0.336 OA
ATOM      8  N   UNL     1      12.576   4.713  -1.611  0.00  0.00    -0.194 NA
ATOM     10  N   UNL     1      13.490   5.065  -3.680  0.00  0.00    -0.061 NA
ATOM     16  C   UNL     1      13.071   5.923  -1.692  0.00  0.00    +0.248 A 
ATOM     19  C   UNL     1      12.857   4.225  -2.855  0.00  0.00    +0.174 A 
BRANCH  19  20
ATOM     20  C   UNL     1      12.488   2.865  -3.263  0.00  0.00    +0.054 C 
ATOM     22  C   UNL     1      12.715   2.596  -4.773  0.00  0.00    +0.015 C 
ATOM     23  C   UNL     1      11.027   2.491  -2.903  0.00  0.00    +0.015 C 
ENDBRANCH  19  20
ENDBRANCH  11  16
TORSDOF 6
ENDMDL
MODEL 9
REMARK VINA RESULT:      -6.0      7.074      9.839
REMARK  Name = 26761883
REMARK  9 active torsions:
REMARK  status: ('A' for Active; 'I' for Inactive)
REMARK    1  A    between atoms: O_3  and  C_29
REMARK    2  A    between atoms: O_3  and  C_30
REMARK    3  A    between atoms: N_9  and  C_21
REMARK    4  A    between atoms: C_11  and  C_16
REMARK    5  A    between atoms: C_19  and  C_20
REMARK    6  A    between atoms: C_20  and  C_22
REMARK    7  A    between atoms: C_20  and  C_23
REMARK    8  A    between atoms: C_28  and  C_29
REMARK    9  A    between atoms: C_30  and  C_31
REMARK                            x       y       z     vdW  Elec       q    Type
REMARK                         _______ _______ _______ _____ _____    ______ ____
ROOT
ATOM      2  O   UNL     1      -7.393  -9.065  17.651  0.00  0.00    -0.252 OA
ATOM      5  N   UNL     1      -9.229  -9.174  16.233  0.00  0.00    -0.267 N 
ATOM      6  N   UNL     1     -11.507  -8.833  13.282  0.00  0.00    -0.347 N 
ATOM      7  N   UNL     1     -12.015  -6.848  14.173  0.00  0.00    -0.240 NA
ATOM      9  N   UNL     1      -7.347 -10.557  15.870  0.00  0.00    -0.269 N 
ATOM     11  C   UNL     1     -10.011  -8.218  17.092  0.00  0.00    +0.172 C 
ATOM     12  C   UNL     1     -10.599  -7.037  16.264  0.00  0.00    +0.089 C 
ATOM     13  C   UNL     1      -9.904  -9.754  15.034  0.00  0.00    +0.165 C 
ATOM     14  C   UNL     1     -11.141  -7.523  14.978  0.00  0.00    +0.066 A 
ATOM     15  C   UNL     1     -10.810  -8.747  14.451  0.00  0.00    +0.056 A 
ATOM     17  C   UNL     1      -7.929  -9.560  16.656  0.00  0.00    +0.307 C 
ATOM     18  C   UNL     1     -12.217  -7.664  13.159  0.00  0.00    +0.197 A 
ATOM     32  H   UNL     1     -11.504  -9.606  12.630  0.00  0.00    +0.167 HD
ATOM     33  H   UNL     1      -7.967 -11.202  15.389  0.00  0.00    +0.156 HD
ENDROOT
BRANCH   9  21
ATOM     21  C   UNL     1      -5.968 -10.757  15.615  0.00  0.00    +0.035 A 
ATOM     24  C   UNL     1      -5.430 -10.408  14.376  0.00  0.00    +0.024 A 
ATOM     25  C   UNL     1      -5.149 -11.305  16.602  0.00  0.00    +0.024 A 
ATOM     26  C   UNL     1      -4.073 -10.607  14.123  0.00  0.00    +0.017 A 
ATOM     27  C   UNL     1      -3.791 -11.504  16.349  0.00  0.00    +0.017 A 
ATOM     28  C   UNL     1      -3.253 -11.154  15.110  0.00  0.00    +0.059 A 
BRANCH  28  29
ATOM      4  O   UNL     1      -0.927 -11.032  15.616  0.00  0.00    -0.245 OA
ATOM     29  C   UNL     1      -1.839 -11.361  14.846  0.00  0.00    +0.339 C 
BRANCH  29   3
ATOM      3  O   UNL     1      -1.637 -11.967  13.635  0.00  0.00    -0.461 OA
BRANCH   3  30
ATOM     30  C   UNL     1      -1.630 -13.399  13.621  0.00  0.00    +0.229 C 
ATOM     31  C   UNL     1      -2.544 -13.887  12.519  0.00  0.00    +0.048 C 
ENDBRANCH   3  30
ENDBRANCH  29   3
ENDBRANCH  28  29
ENDBRANCH   9  21
BRANCH  11  16
ATOM      1  O   UNL     1     -10.457  -9.693  19.005  0.00  0.00    -0.336 OA
ATOM      8  N   UNL     1     -12.298  -9.055  17.900  0.00  0.00    -0.194 NA
ATOM     10  N   UNL     1     -11.535 -10.297  19.665  0.00  0.00    -0.061 NA
ATOM     16  C   UNL     1     -10.993  -8.981  17.981  0.00  0.00    +0.248 A 
ATOM     19  C   UNL     1     -12.586  -9.874  18.954  0.00  0.00    +0.174 A 
BRANCH  19  20
ATOM     20  C   UNL     1     -13.959 -10.267  19.288  0.00  0.00    +0.054 C 
ATOM     22  C   UNL     1     -15.003  -9.790  18.245  0.00  0.00    +0.015 C 
ATOM     23  C   UNL     1     -14.407  -9.796  20.696  0.00  0.00    +0.015 C 
ENDBRANCH  19  20
ENDBRANCH  11  16
TORSDOF 6
ENDMDL
MODEL 10
REMARK VINA RESULT:      -5.9     23.485     25.444
REMARK  Name = 26761883
REMARK  9 active torsions:
REMARK  status: ('A' for Active; 'I' for Inactive)
REMARK    1  A    between atoms: O_3  and  C_29
REMARK    2  A    between atoms: O_3  and  C_30
REMARK    3  A    between atoms: N_9  and  C_21
REMARK    4  A    between atoms: C_11  and  C_16
REMARK    5  A    between atoms: C_19  and  C_20
REMARK    6  A    between atoms: C_20  and  C_22
REMARK    7  A    between atoms: C_20  and  C_23
REMARK    8  A    between atoms: C_28  and  C_29
REMARK    9  A    between atoms: C_30  and  C_31
REMARK                            x       y       z     vdW  Elec       q    Type
REMARK                         _______ _______ _______ _____ _____    ______ ____
ROOT
ATOM      2  O   UNL     1      10.099   8.062   3.747  0.00  0.00    -0.252 OA
ATOM      5  N   UNL     1      10.525   7.253   5.882  0.00  0.00    -0.267 N 
ATOM      6  N   UNL     1      10.900   5.017   8.860  0.00  0.00    -0.347 N 
ATOM      7  N   UNL     1       8.741   5.473   9.208  0.00  0.00    -0.240 NA
ATOM      9  N   UNL     1      12.000   6.774   4.098  0.00  0.00    -0.269 N 
ATOM     11  C   UNL     1       9.360   8.013   6.455  0.00  0.00    +0.172 C 
ATOM     12  C   UNL     1       8.419   7.095   7.290  0.00  0.00    +0.089 C 
ATOM     13  C   UNL     1      11.378   6.462   6.818  0.00  0.00    +0.165 C 
ATOM     14  C   UNL     1       9.207   6.164   8.126  0.00  0.00    +0.066 A 
ATOM     15  C   UNL     1      10.533   5.900   7.888  0.00  0.00    +0.056 A 
ATOM     17  C   UNL     1      10.820   7.404   4.500  0.00  0.00    +0.307 C 
ATOM     18  C   UNL     1       9.786   4.791   9.629  0.00  0.00    +0.197 A 
ATOM     32  H   UNL     1      11.815   4.607   8.992  0.00  0.00    +0.167 HD
ATOM     33  H   UNL     1      12.732   6.654   4.792  0.00  0.00    +0.156 HD
ENDROOT
BRANCH   9  21
ATOM     21  C   UNL     1      12.294   6.226   2.826  0.00  0.00    +0.035 A 
ATOM     24  C   UNL     1      12.953   6.998   1.868  0.00  0.00    +0.024 A 
ATOM     25  C   UNL     1      11.924   4.914   2.529  0.00  0.00    +0.024 A 
ATOM     26  C   UNL     1      13.241   6.459   0.615  0.00  0.00    +0.017 A 
ATOM     27  C   UNL     1      12.213   4.375   1.275  0.00  0.00    +0.017 A 
ATOM     28  C   UNL     1      12.871   5.147   0.319  0.00  0.00    +0.059 A 
BRANCH  28  29
ATOM      4  O   UNL     1      12.522   3.682  -1.530  0.00  0.00    -0.245 OA
ATOM     29  C   UNL     1      13.173   4.586  -0.989  0.00  0.00    +0.339 C 
BRANCH  29   3
ATOM      3  O   UNL     1      14.269   5.182  -1.551  0.00  0.00    -0.461 OA
BRANCH   3  30
ATOM     30  C   UNL     1      15.374   4.329  -1.875  0.00  0.00    +0.229 C 
ATOM     31  C   UNL     1      16.353   4.332  -0.722  0.00  0.00    +0.048 C 
ENDBRANCH   3  30
ENDBRANCH  29   3
ENDBRANCH  28  29
ENDBRANCH   9  21
BRANCH  11  16
ATOM      1  O   UNL     1      10.749  10.040   6.454  0.00  0.00    -0.336 OA
ATOM      8  N   UNL     1       9.513   9.785   8.305  0.00  0.00    -0.194 NA
ATOM     10  N   UNL     1      11.037  11.142   7.269  0.00  0.00    -0.061 NA
ATOM     16  C   UNL     1       9.843   9.292   7.138  0.00  0.00    +0.248 A 
ATOM     19  C   UNL     1      10.271  10.920   8.342  0.00  0.00    +0.174 A 
BRANCH  19  20
ATOM     20  C   UNL     1      10.248  11.839   9.485  0.00  0.00    +0.054 C 
ATOM     22  C   UNL     1      11.562  11.825  10.308  0.00  0.00    +0.015 C 
ATOM     23  C   UNL     1       9.055  11.597  10.444  0.00  0.00    +0.015 C 
ENDBRANCH  19  20
ENDBRANCH  11  16
TORSDOF 6
ENDMDL
