MODEL 1
REMARK VINA RESULT:      -6.2      0.000      0.000
REMARK  Name = 75536737
REMARK  9 active torsions:
REMARK  status: ('A' for Active; 'I' for Inactive)
REMARK    1  A    between atoms: O_2  and  C_10
REMARK    2  A    between atoms: N_4  and  C_9
REMARK    3  A    between atoms: N_4  and  C_14
REMARK    4  A    between atoms: N_5  and  C_13
REMARK    5  A    between atoms: N_6  and  C_17
REMARK    6  A    between atoms: C_11  and  C_13
REMARK    7  A    between atoms: C_14  and  C_15
REMARK    8  A    between atoms: C_17  and  C_19
REMARK    9  A    between atoms: C_17  and  C_20
REMARK                            x       y       z     vdW  Elec       q    Type
REMARK                         _______ _______ _______ _____ _____    ______ ____
ROOT
ATOM      1  O   UNL     1      10.604   8.476  19.746  0.00  0.00    -0.371 OA
ATOM      9  C   UNL     1      12.577   7.313  19.116  0.00  0.00    +0.111 C 
ATOM     10  C   UNL     1      12.490   7.356  20.630  0.00  0.00    +0.164 C 
ATOM     11  C   UNL     1      11.004   7.624  20.831  0.00  0.00    +0.165 C 
ATOM     12  C   UNL     1      11.619   8.427  18.728  0.00  0.00    +0.181 C 
ENDROOT
BRANCH  10   2
ATOM      2  O   UNL     1      12.893   6.143  21.236  0.00  0.00    -0.388 OA
ATOM     23  H   UNL     1      12.507   6.102  22.126  0.00  0.00    +0.210 HD
ENDBRANCH  10   2
BRANCH   9   4
ATOM      4  N   UNL     1      13.921   7.517  18.602  0.00  0.00    -0.302 NA
ATOM     22  H   UNL     1      13.905   8.266  17.909  0.00  0.00    +0.123 HD
BRANCH   4  14
ATOM     14  C   UNL     1      14.842   7.883  19.671  0.00  0.00    +0.156 C 
BRANCH  14  15
ATOM      7  N   UNL     1      17.195   7.404  20.389  0.00  0.00    -0.347 N 
ATOM      8  N   UNL     1      16.342   6.016  18.878  0.00  0.00    -0.240 NA
ATOM     15  C   UNL     1      16.112   7.076  19.620  0.00  0.00    +0.121 A 
ATOM     18  C   UNL     1      18.178   6.494  20.119  0.00  0.00    +0.104 A 
ATOM     21  C   UNL     1      17.629   5.648  19.185  0.00  0.00    +0.130 A 
ATOM     26  H   UNL     1      17.258   8.177  21.038  0.00  0.00    +0.167 HD
ENDBRANCH  14  15
ENDBRANCH   4  14
ENDBRANCH   9   4
BRANCH  11  13
ATOM     13  C   UNL     1      10.690   8.297  22.155  0.00  0.00    +0.140 C 
BRANCH  13   5
ATOM      3  O   UNL     1      11.093  11.132  22.509  0.00  0.00    -0.253 OA
ATOM      5  N   UNL     1      11.849   8.944  22.699  0.00  0.00    -0.297 N 
ATOM      6  N   UNL     1      13.191  10.688  23.393  0.00  0.00    -0.297 N 
ATOM     16  C   UNL     1      11.966  10.331  22.838  0.00  0.00    +0.300 C 
ATOM     24  H   UNL     1      12.632   8.364  22.987  0.00  0.00    +0.150 HD
ATOM     25  H   UNL     1      13.816   9.948  23.702  0.00  0.00    +0.150 HD
BRANCH   6  17
ATOM     17  C   UNL     1      13.568  12.060  23.642  0.00  0.00    +0.068 C 
ATOM     19  C   UNL     1      14.058  12.228  25.075  0.00  0.00    +0.027 C 
ATOM     20  C   UNL     1      14.622  12.510  22.641  0.00  0.00    +0.027 C 
ENDBRANCH   6  17
ENDBRANCH  13   5
ENDBRANCH  11  13
TORSDOF 7
ENDMDL
MODEL 2
REMARK VINA RESULT:      -6.0      2.001      2.158
REMARK  Name = 75536737
REMARK  9 active torsions:
REMARK  status: ('A' for Active; 'I' for Inactive)
REMARK    1  A    between atoms: O_2  and  C_10
REMARK    2  A    between atoms: N_4  and  C_9
REMARK    3  A    between atoms: N_4  and  C_14
REMARK    4  A    between atoms: N_5  and  C_13
REMARK    5  A    between atoms: N_6  and  C_17
REMARK    6  A    between atoms: C_11  and  C_13
REMARK    7  A    between atoms: C_14  and  C_15
REMARK    8  A    between atoms: C_17  and  C_19
REMARK    9  A    between atoms: C_17  and  C_20
REMARK                            x       y       z     vdW  Elec       q    Type
REMARK                         _______ _______ _______ _____ _____    ______ ____
ROOT
ATOM      1  O   UNL     1      12.036   9.693  20.660  0.00  0.00    -0.371 OA
ATOM      9  C   UNL     1      12.489   7.532  19.783  0.00  0.00    +0.111 C 
ATOM     10  C   UNL     1      11.788   7.386  21.121  0.00  0.00    +0.164 C 
ATOM     11  C   UNL     1      11.128   8.753  21.256  0.00  0.00    +0.165 C 
ATOM     12  C   UNL     1      12.984   8.967  19.858  0.00  0.00    +0.181 C 
ENDROOT
BRANCH  10   2
ATOM      2  O   UNL     1      10.837   6.339  21.129  0.00  0.00    -0.388 OA
ATOM     23  H   UNL     1       9.963   6.717  20.934  0.00  0.00    +0.210 HD
ENDBRANCH  10   2
BRANCH   9   4
ATOM      4  N   UNL     1      13.561   6.573  19.579  0.00  0.00    -0.302 NA
ATOM     22  H   UNL     1      14.008   6.756  18.680  0.00  0.00    +0.123 HD
BRANCH   4  14
ATOM     14  C   UNL     1      14.564   6.673  20.633  0.00  0.00    +0.156 C 
BRANCH  14  15
ATOM      7  N   UNL     1      17.055   6.593  20.895  0.00  0.00    -0.347 N 
ATOM      8  N   UNL     1      16.267   5.910  18.934  0.00  0.00    -0.240 NA
ATOM     15  C   UNL     1      15.949   6.380  20.120  0.00  0.00    +0.121 A 
ATOM     18  C   UNL     1      18.148   6.236  20.156  0.00  0.00    +0.104 A 
ATOM     21  C   UNL     1      17.637   5.817  18.951  0.00  0.00    +0.130 A 
ATOM     26  H   UNL     1      17.064   6.949  21.842  0.00  0.00    +0.167 HD
ENDBRANCH  14  15
ENDBRANCH   4  14
ENDBRANCH   9   4
BRANCH  11  13
ATOM     13  C   UNL     1      10.855   9.147  22.697  0.00  0.00    +0.140 C 
BRANCH  13   5
ATOM      3  O   UNL     1      12.262  11.325  23.960  0.00  0.00    -0.253 OA
ATOM      5  N   UNL     1      10.427  10.513  22.792  0.00  0.00    -0.297 N 
ATOM      6  N   UNL     1      10.525  12.745  23.370  0.00  0.00    -0.297 N 
ATOM     16  C   UNL     1      11.172  11.513  23.424  0.00  0.00    +0.300 C 
ATOM     24  H   UNL     1       9.529  10.764  22.389  0.00  0.00    +0.150 HD
ATOM     25  H   UNL     1       9.662  12.814  22.838  0.00  0.00    +0.150 HD
BRANCH   6  17
ATOM     17  C   UNL     1      11.079  13.946  23.949  0.00  0.00    +0.068 C 
ATOM     19  C   UNL     1      12.078  14.589  22.994  0.00  0.00    +0.027 C 
ATOM     20  C   UNL     1       9.967  14.917  24.320  0.00  0.00    +0.027 C 
ENDBRANCH   6  17
ENDBRANCH  13   5
ENDBRANCH  11  13
TORSDOF 7
ENDMDL
MODEL 3
REMARK VINA RESULT:      -6.0      4.206      8.633
REMARK  Name = 75536737
REMARK  9 active torsions:
REMARK  status: ('A' for Active; 'I' for Inactive)
REMARK    1  A    between atoms: O_2  and  C_10
REMARK    2  A    between atoms: N_4  and  C_9
REMARK    3  A    between atoms: N_4  and  C_14
REMARK    4  A    between atoms: N_5  and  C_13
REMARK    5  A    between atoms: N_6  and  C_17
REMARK    6  A    between atoms: C_11  and  C_13
REMARK    7  A    between atoms: C_14  and  C_15
REMARK    8  A    between atoms: C_17  and  C_19
REMARK    9  A    between atoms: C_17  and  C_20
REMARK                            x       y       z     vdW  Elec       q    Type
REMARK                         _______ _______ _______ _____ _____    ______ ____
ROOT
ATOM      1  O   UNL     1      18.385   5.949  19.329  0.00  0.00    -0.371 OA
ATOM      9  C   UNL     1      16.193   6.684  19.876  0.00  0.00    +0.111 C 
ATOM     10  C   UNL     1      17.053   6.718  21.127  0.00  0.00    +0.164 C 
ATOM     11  C   UNL     1      18.450   6.750  20.521  0.00  0.00    +0.165 C 
ATOM     12  C   UNL     1      17.003   5.761  18.980  0.00  0.00    +0.181 C 
ENDROOT
BRANCH  10   2
ATOM      2  O   UNL     1      16.801   7.852  21.932  0.00  0.00    -0.388 OA
ATOM     23  H   UNL     1      17.350   7.788  22.732  0.00  0.00    +0.210 HD
ENDBRANCH  10   2
BRANCH   9   4
ATOM      4  N   UNL     1      14.842   6.204  20.110  0.00  0.00    -0.302 NA
ATOM     22  H   UNL     1      14.672   6.158  21.116  0.00  0.00    +0.123 HD
BRANCH   4  14
ATOM     14  C   UNL     1      13.857   7.093  19.506  0.00  0.00    +0.156 C 
BRANCH  14  15
ATOM      7  N   UNL     1      12.185   6.086  21.079  0.00  0.00    -0.347 N 
ATOM      8  N   UNL     1      11.726   8.139  20.364  0.00  0.00    -0.240 NA
ATOM     15  C   UNL     1      12.581   7.142  20.304  0.00  0.00    +0.121 A 
ATOM     18  C   UNL     1      11.002   6.433  21.669  0.00  0.00    +0.104 A 
ATOM     21  C   UNL     1      10.740   7.703  21.214  0.00  0.00    +0.130 A 
ATOM     26  H   UNL     1      12.676   5.210  21.195  0.00  0.00    +0.167 HD
ENDBRANCH  14  15
ENDBRANCH   4  14
ENDBRANCH   9   4
BRANCH  11  13
ATOM     13  C   UNL     1      19.519   6.203  21.449  0.00  0.00    +0.140 C 
BRANCH  13   5
ATOM      3  O   UNL     1      21.758   4.741  22.533  0.00  0.00    -0.253 OA
ATOM      5  N   UNL     1      20.571   5.562  20.713  0.00  0.00    -0.297 N 
ATOM      6  N   UNL     1      22.503   4.348  20.372  0.00  0.00    -0.297 N 
ATOM     16  C   UNL     1      21.625   4.870  21.317  0.00  0.00    +0.300 C 
ATOM     24  H   UNL     1      20.556   5.627  19.700  0.00  0.00    +0.150 HD
ATOM     25  H   UNL     1      22.266   4.443  19.388  0.00  0.00    +0.150 HD
BRANCH   6  17
ATOM     17  C   UNL     1      23.678   3.588  20.729  0.00  0.00    +0.068 C 
ATOM     19  C   UNL     1      23.345   2.106  20.839  0.00  0.00    +0.027 C 
ATOM     20  C   UNL     1      24.793   3.831  19.720  0.00  0.00    +0.027 C 
ENDBRANCH   6  17
ENDBRANCH  13   5
ENDBRANCH  11  13
TORSDOF 7
ENDMDL
MODEL 4
REMARK VINA RESULT:      -6.0      2.075      2.894
REMARK  Name = 75536737
REMARK  9 active torsions:
REMARK  status: ('A' for Active; 'I' for Inactive)
REMARK    1  A    between atoms: O_2  and  C_10
REMARK    2  A    between atoms: N_4  and  C_9
REMARK    3  A    between atoms: N_4  and  C_14
REMARK    4  A    between atoms: N_5  and  C_13
REMARK    5  A    between atoms: N_6  and  C_17
REMARK    6  A    between atoms: C_11  and  C_13
REMARK    7  A    between atoms: C_14  and  C_15
REMARK    8  A    between atoms: C_17  and  C_19
REMARK    9  A    between atoms: C_17  and  C_20
REMARK                            x       y       z     vdW  Elec       q    Type
REMARK                         _______ _______ _______ _____ _____    ______ ____
ROOT
ATOM      1  O   UNL     1      10.550   8.448  19.778  0.00  0.00    -0.371 OA
ATOM      9  C   UNL     1      12.607   7.453  19.129  0.00  0.00    +0.111 C 
ATOM     10  C   UNL     1      12.506   7.439  20.644  0.00  0.00    +0.164 C 
ATOM     11  C   UNL     1      11.003   7.591  20.839  0.00  0.00    +0.165 C 
ATOM     12  C   UNL     1      11.573   8.507  18.770  0.00  0.00    +0.181 C 
ENDROOT
BRANCH  10   2
ATOM      2  O   UNL     1      12.992   6.239  21.213  0.00  0.00    -0.388 OA
ATOM     23  H   UNL     1      13.298   6.430  22.115  0.00  0.00    +0.210 HD
ENDBRANCH  10   2
BRANCH   9   4
ATOM      4  N   UNL     1      13.936   7.771  18.636  0.00  0.00    -0.302 NA
ATOM     22  H   UNL     1      14.607   7.112  19.034  0.00  0.00    +0.123 HD
BRANCH   4  14
ATOM     14  C   UNL     1      13.993   7.682  17.182  0.00  0.00    +0.156 C 
BRANCH  14  15
ATOM      7  N   UNL     1      14.556  10.120  17.304  0.00  0.00    -0.347 N 
ATOM      8  N   UNL     1      14.235   9.303  15.264  0.00  0.00    -0.240 NA
ATOM     15  C   UNL     1      14.256   9.021  16.548  0.00  0.00    +0.121 A 
ATOM     18  C   UNL     1      14.737  11.170  16.448  0.00  0.00    +0.104 A 
ATOM     21  C   UNL     1      14.535  10.641  15.195  0.00  0.00    +0.130 A 
ATOM     26  H   UNL     1      14.630  10.153  18.312  0.00  0.00    +0.167 HD
ENDBRANCH  14  15
ENDBRANCH   4  14
ENDBRANCH   9   4
BRANCH  11  13
ATOM     13  C   UNL     1      10.631   8.195  22.181  0.00  0.00    +0.140 C 
BRANCH  13   5
ATOM      3  O   UNL     1      10.965  11.050  22.430  0.00  0.00    -0.253 OA
ATOM      5  N   UNL     1      11.742   8.887  22.768  0.00  0.00    -0.297 N 
ATOM      6  N   UNL     1      13.009  10.685  23.465  0.00  0.00    -0.297 N 
ATOM     16  C   UNL     1      11.828  10.280  22.850  0.00  0.00    +0.300 C 
ATOM     24  H   UNL     1      12.514   8.336  23.131  0.00  0.00    +0.150 HD
ATOM     25  H   UNL     1      13.624   9.972  23.847  0.00  0.00    +0.150 HD
BRANCH   6  17
ATOM     17  C   UNL     1      13.347  12.074  23.675  0.00  0.00    +0.068 C 
ATOM     19  C   UNL     1      12.924  12.522  25.068  0.00  0.00    +0.027 C 
ATOM     20  C   UNL     1      14.836  12.296  23.451  0.00  0.00    +0.027 C 
ENDBRANCH   6  17
ENDBRANCH  13   5
ENDBRANCH  11  13
TORSDOF 7
ENDMDL
MODEL 5
REMARK VINA RESULT:      -6.0      2.456      6.665
REMARK  Name = 75536737
REMARK  9 active torsions:
REMARK  status: ('A' for Active; 'I' for Inactive)
REMARK    1  A    between atoms: O_2  and  C_10
REMARK    2  A    between atoms: N_4  and  C_9
REMARK    3  A    between atoms: N_4  and  C_14
REMARK    4  A    between atoms: N_5  and  C_13
REMARK    5  A    between atoms: N_6  and  C_17
REMARK    6  A    between atoms: C_11  and  C_13
REMARK    7  A    between atoms: C_14  and  C_15
REMARK    8  A    between atoms: C_17  and  C_19
REMARK    9  A    between atoms: C_17  and  C_20
REMARK                            x       y       z     vdW  Elec       q    Type
REMARK                         _______ _______ _______ _____ _____    ______ ____
ROOT
ATOM      1  O   UNL     1      13.246   7.026  19.862  0.00  0.00    -0.371 OA
ATOM      9  C   UNL     1      12.458   8.484  21.563  0.00  0.00    +0.111 C 
ATOM     10  C   UNL     1      13.807   7.924  21.977  0.00  0.00    +0.164 C 
ATOM     11  C   UNL     1      14.369   7.488  20.630  0.00  0.00    +0.165 C 
ATOM     12  C   UNL     1      12.040   7.496  20.488  0.00  0.00    +0.181 C 
ENDROOT
BRANCH  10   2
ATOM      2  O   UNL     1      14.630   8.887  22.605  0.00  0.00    -0.388 OA
ATOM     23  H   UNL     1      14.902   9.540  21.937  0.00  0.00    +0.210 HD
ENDBRANCH  10   2
BRANCH   9   4
ATOM      4  N   UNL     1      11.503   8.572  22.655  0.00  0.00    -0.302 NA
ATOM     22  H   UNL     1      12.005   8.529  23.543  0.00  0.00    +0.123 HD
BRANCH   4  14
ATOM     14  C   UNL     1      10.753   9.821  22.597  0.00  0.00    +0.156 C 
BRANCH  14  15
ATOM      7  N   UNL     1      12.509  10.887  24.032  0.00  0.00    -0.347 N 
ATOM      8  N   UNL     1      10.436  11.629  24.329  0.00  0.00    -0.240 NA
ATOM     15  C   UNL     1      11.197  10.792  23.658  0.00  0.00    +0.121 A 
ATOM     18  C   UNL     1      12.590  11.844  25.004  0.00  0.00    +0.104 A 
ATOM     21  C   UNL     1      11.300  12.288  25.169  0.00  0.00    +0.130 A 
ATOM     26  H   UNL     1      13.279  10.348  23.659  0.00  0.00    +0.167 HD
ENDBRANCH  14  15
ENDBRANCH   4  14
ENDBRANCH   9   4
BRANCH  11  13
ATOM     13  C   UNL     1      15.405   6.384  20.741  0.00  0.00    +0.140 C 
BRANCH  13   5
ATOM      3  O   UNL     1      18.201   6.557  20.054  0.00  0.00    -0.253 OA
ATOM      5  N   UNL     1      16.485   6.767  21.604  0.00  0.00    -0.297 N 
ATOM      6  N   UNL     1      18.659   7.226  22.227  0.00  0.00    -0.297 N 
ATOM     16  C   UNL     1      17.819   6.826  21.191  0.00  0.00    +0.300 C 
ATOM     24  H   UNL     1      16.270   6.995  22.570  0.00  0.00    +0.150 HD
ATOM     25  H   UNL     1      18.238   7.500  23.111  0.00  0.00    +0.150 HD
BRANCH   6  17
ATOM     17  C   UNL     1      20.087   7.368  22.068  0.00  0.00    +0.068 C 
ATOM     19  C   UNL     1      20.551   8.725  22.582  0.00  0.00    +0.027 C 
ATOM     20  C   UNL     1      20.814   6.232  22.774  0.00  0.00    +0.027 C 
ENDBRANCH   6  17
ENDBRANCH  13   5
ENDBRANCH  11  13
TORSDOF 7
ENDMDL
MODEL 6
REMARK VINA RESULT:      -5.9      4.419      8.831
REMARK  Name = 75536737
REMARK  9 active torsions:
REMARK  status: ('A' for Active; 'I' for Inactive)
REMARK    1  A    between atoms: O_2  and  C_10
REMARK    2  A    between atoms: N_4  and  C_9
REMARK    3  A    between atoms: N_4  and  C_14
REMARK    4  A    between atoms: N_5  and  C_13
REMARK    5  A    between atoms: N_6  and  C_17
REMARK    6  A    between atoms: C_11  and  C_13
REMARK    7  A    between atoms: C_14  and  C_15
REMARK    8  A    between atoms: C_17  and  C_19
REMARK    9  A    between atoms: C_17  and  C_20
REMARK                            x       y       z     vdW  Elec       q    Type
REMARK                         _______ _______ _______ _____ _____    ______ ____
ROOT
ATOM      1  O   UNL     1      17.780   6.691  21.618  0.00  0.00    -0.371 OA
ATOM      9  C   UNL     1      16.343   6.275  19.773  0.00  0.00    +0.111 C 
ATOM     10  C   UNL     1      17.784   6.160  19.313  0.00  0.00    +0.164 C 
ATOM     11  C   UNL     1      18.497   5.922  20.638  0.00  0.00    +0.165 C 
ATOM     12  C   UNL     1      16.502   7.054  21.068  0.00  0.00    +0.181 C 
ENDROOT
BRANCH  10   2
ATOM      2  O   UNL     1      17.985   5.092  18.407  0.00  0.00    -0.388 OA
ATOM     23  H   UNL     1      17.396   5.222  17.645  0.00  0.00    +0.210 HD
ENDBRANCH  10   2
BRANCH   9   4
ATOM      4  N   UNL     1      15.476   6.939  18.815  0.00  0.00    -0.302 NA
ATOM     22  H   UNL     1      15.449   6.393  17.953  0.00  0.00    +0.123 HD
BRANCH   4  14
ATOM     14  C   UNL     1      14.120   7.069  19.334  0.00  0.00    +0.156 C 
BRANCH  14  15
ATOM      7  N   UNL     1      11.970   7.506  18.123  0.00  0.00    -0.347 N 
ATOM      8  N   UNL     1      13.568   9.022  17.834  0.00  0.00    -0.240 NA
ATOM     15  C   UNL     1      13.247   7.892  18.425  0.00  0.00    +0.121 A 
ATOM     18  C   UNL     1      11.445   8.449  17.285  0.00  0.00    +0.104 A 
ATOM     21  C   UNL     1      12.448   9.374  17.122  0.00  0.00    +0.130 A 
ATOM     26  H   UNL     1      11.500   6.675  18.456  0.00  0.00    +0.167 HD
ENDBRANCH  14  15
ENDBRANCH   4  14
ENDBRANCH   9   4
BRANCH  11  13
ATOM     13  C   UNL     1      19.955   6.345  20.620  0.00  0.00    +0.140 C 
BRANCH  13   5
ATOM      3  O   UNL     1      22.633   5.842  21.568  0.00  0.00    -0.253 OA
ATOM      5  N   UNL     1      20.810   5.252  20.255  0.00  0.00    -0.297 N 
ATOM      6  N   UNL     1      22.708   3.940  20.243  0.00  0.00    -0.297 N 
ATOM     16  C   UNL     1      22.101   5.080  20.763  0.00  0.00    +0.300 C 
ATOM     24  H   UNL     1      20.464   4.576  19.581  0.00  0.00    +0.150 HD
ATOM     25  H   UNL     1      22.159   3.332  19.641  0.00  0.00    +0.150 HD
BRANCH   6  17
ATOM     17  C   UNL     1      24.046   3.531  20.603  0.00  0.00    +0.068 C 
ATOM     19  C   UNL     1      24.104   2.024  20.821  0.00  0.00    +0.027 C 
ATOM     20  C   UNL     1      25.040   3.974  19.539  0.00  0.00    +0.027 C 
ENDBRANCH   6  17
ENDBRANCH  13   5
ENDBRANCH  11  13
TORSDOF 7
ENDMDL
MODEL 7
REMARK VINA RESULT:      -5.9      2.566      4.250
REMARK  Name = 75536737
REMARK  9 active torsions:
REMARK  status: ('A' for Active; 'I' for Inactive)
REMARK    1  A    between atoms: O_2  and  C_10
REMARK    2  A    between atoms: N_4  and  C_9
REMARK    3  A    between atoms: N_4  and  C_14
REMARK    4  A    between atoms: N_5  and  C_13
REMARK    5  A    between atoms: N_6  and  C_17
REMARK    6  A    between atoms: C_11  and  C_13
REMARK    7  A    between atoms: C_14  and  C_15
REMARK    8  A    between atoms: C_17  and  C_19
REMARK    9  A    between atoms: C_17  and  C_20
REMARK                            x       y       z     vdW  Elec       q    Type
REMARK                         _______ _______ _______ _____ _____    ______ ____
ROOT
ATOM      1  O   UNL     1      15.828   6.247  18.958  0.00  0.00    -0.371 OA
ATOM      9  C   UNL     1      17.000   6.315  21.023  0.00  0.00    +0.111 C 
ATOM     10  C   UNL     1      15.755   7.177  21.132  0.00  0.00    +0.164 C 
ATOM     11  C   UNL     1      14.907   6.611  20.000  0.00  0.00    +0.165 C 
ATOM     12  C   UNL     1      17.152   6.197  19.516  0.00  0.00    +0.181 C 
ENDROOT
BRANCH  10   2
ATOM      2  O   UNL     1      15.111   7.051  22.385  0.00  0.00    -0.388 OA
ATOM     23  H   UNL     1      14.205   6.734  22.234  0.00  0.00    +0.210 HD
ENDBRANCH  10   2
BRANCH   9   4
ATOM      4  N   UNL     1      18.167   6.893  21.668  0.00  0.00    -0.302 NA
ATOM     22  H   UNL     1      18.392   6.349  22.502  0.00  0.00    +0.123 HD
BRANCH   4  14
ATOM     14  C   UNL     1      19.319   6.885  20.774  0.00  0.00    +0.156 C 
BRANCH  14  15
ATOM      7  N   UNL     1      20.803   4.943  20.222  0.00  0.00    -0.347 N 
ATOM      8  N   UNL     1      20.816   5.597  22.345  0.00  0.00    -0.240 NA
ATOM     15  C   UNL     1      20.314   5.820  21.151  0.00  0.00    +0.121 A 
ATOM     18  C   UNL     1      21.674   4.109  20.865  0.00  0.00    +0.104 A 
ATOM     21  C   UNL     1      21.666   4.532  22.173  0.00  0.00    +0.130 A 
ATOM     26  H   UNL     1      20.566   4.916  19.239  0.00  0.00    +0.167 HD
ENDBRANCH  14  15
ENDBRANCH   4  14
ENDBRANCH   9   4
BRANCH  11  13
ATOM     13  C   UNL     1      13.888   7.599  19.463  0.00  0.00    +0.140 C 
BRANCH  13   5
ATOM      3  O   UNL     1      11.336   8.778  20.112  0.00  0.00    -0.253 OA
ATOM      5  N   UNL     1      13.637   8.653  20.403  0.00  0.00    -0.297 N 
ATOM      6  N   UNL     1      12.405  10.182  21.616  0.00  0.00    -0.297 N 
ATOM     16  C   UNL     1      12.363   9.170  20.661  0.00  0.00    +0.300 C 
ATOM     24  H   UNL     1      14.427   9.053  20.899  0.00  0.00    +0.150 HD
ATOM     25  H   UNL     1      13.293  10.383  22.068  0.00  0.00    +0.150 HD
BRANCH   6  17
ATOM     17  C   UNL     1      11.227  10.886  22.064  0.00  0.00    +0.068 C 
ATOM     19  C   UNL     1      11.017  10.680  23.559  0.00  0.00    +0.027 C 
ATOM     20  C   UNL     1      11.329  12.365  21.719  0.00  0.00    +0.027 C 
ENDBRANCH   6  17
ENDBRANCH  13   5
ENDBRANCH  11  13
TORSDOF 7
ENDMDL
MODEL 8
REMARK VINA RESULT:      -5.9      3.293      7.004
REMARK  Name = 75536737
REMARK  9 active torsions:
REMARK  status: ('A' for Active; 'I' for Inactive)
REMARK    1  A    between atoms: O_2  and  C_10
REMARK    2  A    between atoms: N_4  and  C_9
REMARK    3  A    between atoms: N_4  and  C_14
REMARK    4  A    between atoms: N_5  and  C_13
REMARK    5  A    between atoms: N_6  and  C_17
REMARK    6  A    between atoms: C_11  and  C_13
REMARK    7  A    between atoms: C_14  and  C_15
REMARK    8  A    between atoms: C_17  and  C_19
REMARK    9  A    between atoms: C_17  and  C_20
REMARK                            x       y       z     vdW  Elec       q    Type
REMARK                         _______ _______ _______ _____ _____    ______ ____
ROOT
ATOM      1  O   UNL     1      13.608   8.793  19.935  0.00  0.00    -0.371 OA
ATOM      9  C   UNL     1      12.332   8.344  21.887  0.00  0.00    +0.111 C 
ATOM     10  C   UNL     1      11.449   8.162  20.666  0.00  0.00    +0.164 C 
ATOM     11  C   UNL     1      12.494   7.959  19.577  0.00  0.00    +0.165 C 
ATOM     12  C   UNL     1      13.469   9.174  21.314  0.00  0.00    +0.181 C 
ENDROOT
BRANCH  10   2
ATOM      2  O   UNL     1      10.583   7.050  20.779  0.00  0.00    -0.388 OA
ATOM     23  H   UNL     1       9.761   7.252  20.301  0.00  0.00    +0.210 HD
ENDBRANCH  10   2
BRANCH   9   4
ATOM      4  N   UNL     1      11.662   8.994  23.000  0.00  0.00    -0.302 NA
ATOM     22  H   UNL     1      12.361   9.324  23.666  0.00  0.00    +0.123 HD
BRANCH   4  14
ATOM     14  C   UNL     1      10.869  10.130  22.546  0.00  0.00    +0.156 C 
BRANCH  14  15
ATOM      7  N   UNL     1      10.299  12.456  23.286  0.00  0.00    -0.347 N 
ATOM      8  N   UNL     1      11.195  11.140  24.835  0.00  0.00    -0.240 NA
ATOM     15  C   UNL     1      10.803  11.219  23.583  0.00  0.00    +0.121 A 
ATOM     18  C   UNL     1      10.375  13.213  24.421  0.00  0.00    +0.104 A 
ATOM     21  C   UNL     1      10.930  12.380  25.363  0.00  0.00    +0.130 A 
ATOM     26  H   UNL     1       9.936  12.756  22.391  0.00  0.00    +0.167 HD
ENDBRANCH  14  15
ENDBRANCH   4  14
ENDBRANCH   9   4
BRANCH  11  13
ATOM     13  C   UNL     1      11.997   8.333  18.192  0.00  0.00    +0.140 C 
BRANCH  13   5
ATOM      3  O   UNL     1      12.734   8.897  15.460  0.00  0.00    -0.253 OA
ATOM      5  N   UNL     1      12.658   9.507  17.700  0.00  0.00    -0.297 N 
ATOM      6  N   UNL     1      13.617  10.927  16.154  0.00  0.00    -0.297 N 
ATOM     16  C   UNL     1      12.982   9.705  16.354  0.00  0.00    +0.300 C 
ATOM     24  H   UNL     1      12.918  10.228  18.367  0.00  0.00    +0.150 HD
ATOM     25  H   UNL     1      13.709  11.559  16.944  0.00  0.00    +0.150 HD
BRANCH   6  17
ATOM     17  C   UNL     1      14.058  11.377  14.854  0.00  0.00    +0.068 C 
ATOM     19  C   UNL     1      13.992  12.896  14.764  0.00  0.00    +0.027 C 
ATOM     20  C   UNL     1      15.462  10.866  14.565  0.00  0.00    +0.027 C 
ENDBRANCH   6  17
ENDBRANCH  13   5
ENDBRANCH  11  13
TORSDOF 7
ENDMDL
MODEL 9
REMARK VINA RESULT:      -5.9      2.465      5.111
REMARK  Name = 75536737
REMARK  9 active torsions:
REMARK  status: ('A' for Active; 'I' for Inactive)
REMARK    1  A    between atoms: O_2  and  C_10
REMARK    2  A    between atoms: N_4  and  C_9
REMARK    3  A    between atoms: N_4  and  C_14
REMARK    4  A    between atoms: N_5  and  C_13
REMARK    5  A    between atoms: N_6  and  C_17
REMARK    6  A    between atoms: C_11  and  C_13
REMARK    7  A    between atoms: C_14  and  C_15
REMARK    8  A    between atoms: C_17  and  C_19
REMARK    9  A    between atoms: C_17  and  C_20
REMARK                            x       y       z     vdW  Elec       q    Type
REMARK                         _______ _______ _______ _____ _____    ______ ____
ROOT
ATOM      1  O   UNL     1      12.518   9.695  21.556  0.00  0.00    -0.371 OA
ATOM      9  C   UNL     1      11.784   8.035  20.024  0.00  0.00    +0.111 C 
ATOM     10  C   UNL     1      13.087   7.582  20.658  0.00  0.00    +0.164 C 
ATOM     11  C   UNL     1      13.112   8.438  21.918  0.00  0.00    +0.165 C 
ATOM     12  C   UNL     1      11.811   9.526  20.315  0.00  0.00    +0.181 C 
ENDROOT
BRANCH  10   2
ATOM      2  O   UNL     1      13.097   6.201  20.960  0.00  0.00    -0.388 OA
ATOM     23  H   UNL     1      13.797   5.777  20.435  0.00  0.00    +0.210 HD
ENDBRANCH  10   2
BRANCH   9   4
ATOM      4  N   UNL     1      11.692   7.736  18.605  0.00  0.00    -0.302 NA
ATOM     22  H   UNL     1      11.279   8.534  18.121  0.00  0.00    +0.123 HD
BRANCH   4  14
ATOM     14  C   UNL     1      13.007   7.469  18.037  0.00  0.00    +0.156 C 
BRANCH  14  15
ATOM      7  N   UNL     1      14.194   9.632  17.601  0.00  0.00    -0.347 N 
ATOM      8  N   UNL     1      13.233   8.684  15.837  0.00  0.00    -0.240 NA
ATOM     15  C   UNL     1      13.462   8.578  17.127  0.00  0.00    +0.121 A 
ATOM     18  C   UNL     1      14.448  10.462  16.545  0.00  0.00    +0.104 A 
ATOM     21  C   UNL     1      13.846   9.856  15.468  0.00  0.00    +0.130 A 
ATOM     26  H   UNL     1      14.493   9.773  18.556  0.00  0.00    +0.167 HD
ENDBRANCH  14  15
ENDBRANCH   4  14
ENDBRANCH   9   4
BRANCH  11  13
ATOM     13  C   UNL     1      14.512   8.669  22.458  0.00  0.00    +0.140 C 
BRANCH  13   5
ATOM      3  O   UNL     1      16.626   8.796  20.498  0.00  0.00    -0.253 OA
ATOM      5  N   UNL     1      15.400   7.609  22.074  0.00  0.00    -0.297 N 
ATOM      6  N   UNL     1      17.117   6.572  20.934  0.00  0.00    -0.297 N 
ATOM     16  C   UNL     1      16.404   7.754  21.111  0.00  0.00    +0.300 C 
ATOM     24  H   UNL     1      15.285   6.703  22.516  0.00  0.00    +0.150 HD
ATOM     25  H   UNL     1      16.908   5.785  21.542  0.00  0.00    +0.150 HD
BRANCH   6  17
ATOM     17  C   UNL     1      18.209   6.449  19.996  0.00  0.00    +0.068 C 
ATOM     19  C   UNL     1      19.472   5.976  20.705  0.00  0.00    +0.027 C 
ATOM     20  C   UNL     1      17.828   5.510  18.860  0.00  0.00    +0.027 C 
ENDBRANCH   6  17
ENDBRANCH  13   5
ENDBRANCH  11  13
TORSDOF 7
ENDMDL
MODEL 10
REMARK VINA RESULT:      -5.8      3.013      6.415
REMARK  Name = 75536737
REMARK  9 active torsions:
REMARK  status: ('A' for Active; 'I' for Inactive)
REMARK    1  A    between atoms: O_2  and  C_10
REMARK    2  A    between atoms: N_4  and  C_9
REMARK    3  A    between atoms: N_4  and  C_14
REMARK    4  A    between atoms: N_5  and  C_13
REMARK    5  A    between atoms: N_6  and  C_17
REMARK    6  A    between atoms: C_11  and  C_13
REMARK    7  A    between atoms: C_14  and  C_15
REMARK    8  A    between atoms: C_17  and  C_19
REMARK    9  A    between atoms: C_17  and  C_20
REMARK                            x       y       z     vdW  Elec       q    Type
REMARK                         _______ _______ _______ _____ _____    ______ ____
ROOT
ATOM      1  O   UNL     1      16.181   8.800  20.000  0.00  0.00    -0.371 OA
ATOM      9  C   UNL     1      13.874   8.325  19.686  0.00  0.00    +0.111 C 
ATOM     10  C   UNL     1      14.612   7.029  19.969  0.00  0.00    +0.164 C 
ATOM     11  C   UNL     1      15.874   7.552  20.644  0.00  0.00    +0.165 C 
ATOM     12  C   UNL     1      15.018   9.238  19.277  0.00  0.00    +0.181 C 
ENDROOT
BRANCH  10   2
ATOM      2  O   UNL     1      13.884   6.160  20.814  0.00  0.00    -0.388 OA
ATOM     23  H   UNL     1      14.492   5.480  21.151  0.00  0.00    +0.210 HD
ENDBRANCH  10   2
BRANCH   9   4
ATOM      4  N   UNL     1      12.852   8.202  18.661  0.00  0.00    -0.302 NA
ATOM     22  H   UNL     1      12.650   7.214  18.507  0.00  0.00    +0.123 HD
BRANCH   4  14
ATOM     14  C   UNL     1      11.624   8.879  19.059  0.00  0.00    +0.156 C 
BRANCH  14  15
ATOM      7  N   UNL     1      10.867   7.152  20.709  0.00  0.00    -0.347 N 
ATOM      8  N   UNL     1      11.009   9.230  21.481  0.00  0.00    -0.240 NA
ATOM     15  C   UNL     1      11.169   8.457  20.431  0.00  0.00    +0.121 A 
ATOM     18  C   UNL     1      10.490   7.090  22.021  0.00  0.00    +0.104 A 
ATOM     21  C   UNL     1      10.586   8.384  22.477  0.00  0.00    +0.130 A 
ATOM     26  H   UNL     1      10.914   6.374  20.064  0.00  0.00    +0.167 HD
ENDBRANCH  14  15
ENDBRANCH   4  14
ENDBRANCH   9   4
BRANCH  11  13
ATOM     13  C   UNL     1      17.055   6.607  20.521  0.00  0.00    +0.140 C 
BRANCH  13   5
ATOM      3  O   UNL     1      19.710   7.605  21.048  0.00  0.00    -0.253 OA
ATOM      5  N   UNL     1      17.783   6.518  21.754  0.00  0.00    -0.297 N 
ATOM      6  N   UNL     1      19.541   6.807  23.220  0.00  0.00    -0.297 N 
ATOM     16  C   UNL     1      19.072   7.030  21.928  0.00  0.00    +0.300 C 
ATOM     24  H   UNL     1      17.343   6.046  22.538  0.00  0.00    +0.150 HD
ATOM     25  H   UNL     1      18.910   6.391  23.898  0.00  0.00    +0.150 HD
BRANCH   6  17
ATOM     17  C   UNL     1      20.847   7.236  23.664  0.00  0.00    +0.068 C 
ATOM     19  C   UNL     1      20.788   7.727  25.105  0.00  0.00    +0.027 C 
ATOM     20  C   UNL     1      21.857   6.109  23.505  0.00  0.00    +0.027 C 
ENDBRANCH   6  17
ENDBRANCH  13   5
ENDBRANCH  11  13
TORSDOF 7
ENDMDL
