MODEL 1
REMARK VINA RESULT:      -7.2      0.000      0.000
REMARK  Name = 28962489
REMARK  10 active torsions:
REMARK  status: ('A' for Active; 'I' for Inactive)
REMARK    1  A    between atoms: O_1  and  C_10
REMARK    2  A    between atoms: N_4  and  C_14
REMARK    3  A    between atoms: N_5  and  C_24
REMARK    4  A    between atoms: C_7  and  C_17
REMARK    5  A    between atoms: C_9  and  C_19
REMARK    6  A    between atoms: C_13  and  C_18
REMARK    7  A    between atoms: C_18  and  C_20
REMARK    8  A    between atoms: C_18  and  C_21
REMARK    9  A    between atoms: C_22  and  C_23
REMARK   10  A    between atoms: C_24  and  C_25
REMARK                            x       y       z     vdW  Elec       q    Type
REMARK                         _______ _______ _______ _____ _____    ______ ____
ROOT
ATOM      7  C   UNL     1      11.822   8.375  21.367  0.00  0.00    -0.027 C 
ATOM      8  C   UNL     1      12.969   9.433  21.474  0.00  0.00    +0.028 C 
ATOM      9  C   UNL     1      12.381  10.879  21.653  0.00  0.00    +0.012 C 
ATOM     10  C   UNL     1      13.999   9.269  20.318  0.00  0.00    +0.122 C 
ATOM     11  C   UNL     1      12.434   6.955  21.306  0.00  0.00    +0.007 C 
ATOM     12  C   UNL     1      10.943   8.455  22.635  0.00  0.00    +0.009 C 
ATOM     13  C   UNL     1      14.529   7.822  20.196  0.00  0.00    +0.029 C 
ATOM     14  C   UNL     1      11.439  10.928  22.888  0.00  0.00    +0.076 C 
ATOM     15  C   UNL     1      13.412   6.779  20.151  0.00  0.00    +0.007 C 
ATOM     16  C   UNL     1      10.364   9.841  22.877  0.00  0.00    +0.023 C 
ATOM     17  C   UNL     1      10.933   8.588  20.115  0.00  0.00    +0.011 C 
ATOM     19  C   UNL     1      13.457  11.970  21.794  0.00  0.00    +0.010 C 
ENDROOT
BRANCH  14   4
ATOM      3  O   UNL     1      10.595  12.244  25.335  0.00  0.00    -0.276 OA
ATOM      4  N   UNL     1      10.788  12.216  23.016  0.00  0.00    -0.312 N 
ATOM     22  C   UNL     1      10.423  12.759  24.233  0.00  0.00    +0.210 C 
ATOM     23  C   UNL     1       9.788  14.116  24.082  0.00  0.00    +0.109 C 
ATOM     30  H   UNL     1      10.540  12.709  22.162  0.00  0.00    +0.149 HD
ENDBRANCH  14   4
BRANCH  10   1
ATOM      1  O   UNL     1      15.133  10.100  20.568  0.00  0.00    -0.391 OA
ATOM     31  H   UNL     1      15.664  10.141  19.754  0.00  0.00    +0.210 HD
ENDBRANCH  10   1
BRANCH  13  18
ATOM     18  C   UNL     1      15.439   7.650  18.975  0.00  0.00    +0.077 C 
ATOM     20  C   UNL     1      14.611   7.269  17.753  0.00  0.00    +0.017 C 
BRANCH  18  21
ATOM      2  O   UNL     1      16.582   5.538  18.664  0.00  0.00    -0.276 OA
ATOM      5  N   UNL     1      17.378   7.002  20.277  0.00  0.00    -0.311 N 
ATOM     21  C   UNL     1      16.512   6.606  19.267  0.00  0.00    +0.216 C 
ATOM     32  H   UNL     1      17.285   7.924  20.691  0.00  0.00    +0.149 HD
BRANCH   5  24
ATOM     24  C   UNL     1      18.475   6.180  20.732  0.00  0.00    +0.141 C 
BRANCH  24  25
ATOM      6  N   UNL     1      20.487   8.557  22.877  0.00  0.00    -0.263 NA
ATOM     25  C   UNL     1      19.623   7.005  21.237  0.00  0.00    -0.012 A 
ATOM     26  C   UNL     1      20.850   7.004  20.582  0.00  0.00    +0.008 A 
ATOM     27  C   UNL     1      19.495   7.791  22.371  0.00  0.00    +0.115 A 
ATOM     28  C   UNL     1      21.895   7.779  21.072  0.00  0.00    +0.020 A 
ATOM     29  C   UNL     1      21.664   8.531  22.213  0.00  0.00    +0.111 A 
ENDBRANCH  24  25
ENDBRANCH   5  24
ENDBRANCH  18  21
ENDBRANCH  13  18
TORSDOF 6
ENDMDL
MODEL 2
REMARK VINA RESULT:      -7.1     26.745     30.705
REMARK  Name = 28962489
REMARK  10 active torsions:
REMARK  status: ('A' for Active; 'I' for Inactive)
REMARK    1  A    between atoms: O_1  and  C_10
REMARK    2  A    between atoms: N_4  and  C_14
REMARK    3  A    between atoms: N_5  and  C_24
REMARK    4  A    between atoms: C_7  and  C_17
REMARK    5  A    between atoms: C_9  and  C_19
REMARK    6  A    between atoms: C_13  and  C_18
REMARK    7  A    between atoms: C_18  and  C_20
REMARK    8  A    between atoms: C_18  and  C_21
REMARK    9  A    between atoms: C_22  and  C_23
REMARK   10  A    between atoms: C_24  and  C_25
REMARK                            x       y       z     vdW  Elec       q    Type
REMARK                         _______ _______ _______ _____ _____    ______ ____
ROOT
ATOM      7  C   UNL     1     -15.947   7.121  22.486  0.00  0.00    -0.027 C 
ATOM      8  C   UNL     1     -14.567   6.399  22.636  0.00  0.00    +0.028 C 
ATOM      9  C   UNL     1     -13.652   6.677  21.389  0.00  0.00    +0.012 C 
ATOM     10  C   UNL     1     -14.752   4.900  23.009  0.00  0.00    +0.122 C 
ATOM     11  C   UNL     1     -16.777   6.922  23.776  0.00  0.00    +0.007 C 
ATOM     12  C   UNL     1     -15.706   8.638  22.310  0.00  0.00    +0.009 C 
ATOM     13  C   UNL     1     -15.667   4.702  24.239  0.00  0.00    +0.029 C 
ATOM     14  C   UNL     1     -13.478   8.207  21.179  0.00  0.00    +0.076 C 
ATOM     15  C   UNL     1     -16.993   5.454  24.123  0.00  0.00    +0.007 C 
ATOM     16  C   UNL     1     -14.803   8.968  21.131  0.00  0.00    +0.023 C 
ATOM     17  C   UNL     1     -16.765   6.592  21.281  0.00  0.00    +0.011 C 
ATOM     19  C   UNL     1     -12.265   6.018  21.484  0.00  0.00    +0.010 C 
ENDROOT
BRANCH  14   4
ATOM      3  O   UNL     1     -11.629  10.401  20.733  0.00  0.00    -0.276 OA
ATOM      4  N   UNL     1     -12.737   8.501  19.970  0.00  0.00    -0.312 N 
ATOM     22  C   UNL     1     -11.875   9.576  19.857  0.00  0.00    +0.210 C 
ATOM     23  C   UNL     1     -11.216   9.636  18.504  0.00  0.00    +0.109 C 
ATOM     30  H   UNL     1     -12.907   7.919  19.154  0.00  0.00    +0.149 HD
ENDBRANCH  14   4
BRANCH  10   1
ATOM      1  O   UNL     1     -13.485   4.332  23.348  0.00  0.00    -0.391 OA
ATOM     31  H   UNL     1     -13.007   4.143  22.521  0.00  0.00    +0.210 HD
ENDBRANCH  10   1
BRANCH  13  18
ATOM     18  C   UNL     1     -15.943   3.218  24.511  0.00  0.00    +0.077 C 
ATOM     20  C   UNL     1     -16.847   2.645  23.425  0.00  0.00    +0.017 C 
BRANCH  18  21
ATOM      2  O   UNL     1     -17.667   2.544  26.072  0.00  0.00    -0.276 OA
ATOM      5  N   UNL     1     -15.737   3.525  26.906  0.00  0.00    -0.311 N 
ATOM     21  C   UNL     1     -16.560   3.049  25.895  0.00  0.00    +0.216 C 
ATOM     32  H   UNL     1     -14.813   3.880  26.682  0.00  0.00    +0.149 HD
BRANCH   5  24
ATOM     24  C   UNL     1     -16.106   3.475  28.302  0.00  0.00    +0.141 C 
BRANCH  24  25
ATOM      6  N   UNL     1     -15.238  -0.026  29.436  0.00  0.00    -0.263 NA
ATOM     25  C   UNL     1     -15.424   2.348  29.023  0.00  0.00    -0.012 A 
ATOM     26  C   UNL     1     -14.388   2.592  29.918  0.00  0.00    +0.008 A 
ATOM     27  C   UNL     1     -15.808   1.033  28.818  0.00  0.00    +0.115 A 
ATOM     28  C   UNL     1     -13.777   1.529  30.573  0.00  0.00    +0.020 A 
ATOM     29  C   UNL     1     -14.235   0.249  30.299  0.00  0.00    +0.111 A 
ENDBRANCH  24  25
ENDBRANCH   5  24
ENDBRANCH  18  21
ENDBRANCH  13  18
TORSDOF 6
ENDMDL
MODEL 3
REMARK VINA RESULT:      -7.1      1.629      2.031
REMARK  Name = 28962489
REMARK  10 active torsions:
REMARK  status: ('A' for Active; 'I' for Inactive)
REMARK    1  A    between atoms: O_1  and  C_10
REMARK    2  A    between atoms: N_4  and  C_14
REMARK    3  A    between atoms: N_5  and  C_24
REMARK    4  A    between atoms: C_7  and  C_17
REMARK    5  A    between atoms: C_9  and  C_19
REMARK    6  A    between atoms: C_13  and  C_18
REMARK    7  A    between atoms: C_18  and  C_20
REMARK    8  A    between atoms: C_18  and  C_21
REMARK    9  A    between atoms: C_22  and  C_23
REMARK   10  A    between atoms: C_24  and  C_25
REMARK                            x       y       z     vdW  Elec       q    Type
REMARK                         _______ _______ _______ _____ _____    ______ ____
ROOT
ATOM      7  C   UNL     1      12.434   8.272  21.311  0.00  0.00    -0.027 C 
ATOM      8  C   UNL     1      13.459   9.252  21.971  0.00  0.00    +0.028 C 
ATOM      9  C   UNL     1      12.835  10.684  22.140  0.00  0.00    +0.012 C 
ATOM     10  C   UNL     1      14.834   9.205  21.243  0.00  0.00    +0.122 C 
ATOM     11  C   UNL     1      13.038   6.848  21.263  0.00  0.00    +0.007 C 
ATOM     12  C   UNL     1      11.159   8.213  22.184  0.00  0.00    +0.009 C 
ATOM     13  C   UNL     1      15.384   7.767  21.106  0.00  0.00    +0.029 C 
ATOM     14  C   UNL     1      11.514  10.602  22.956  0.00  0.00    +0.076 C 
ATOM     15  C   UNL     1      14.365   6.791  20.517  0.00  0.00    +0.007 C 
ATOM     16  C   UNL     1      10.522   9.577  22.405  0.00  0.00    +0.023 C 
ATOM     17  C   UNL     1      12.048   8.697  19.872  0.00  0.00    +0.011 C 
ATOM     19  C   UNL     1      13.781  11.694  22.810  0.00  0.00    +0.010 C 
ENDROOT
BRANCH  14   4
ATOM      3  O   UNL     1      10.667  12.012  25.349  0.00  0.00    -0.276 OA
ATOM      4  N   UNL     1      10.850  11.887  23.031  0.00  0.00    -0.312 N 
ATOM     22  C   UNL     1      10.486  12.478  24.227  0.00  0.00    +0.210 C 
ATOM     23  C   UNL     1       9.835  13.821  24.022  0.00  0.00    +0.109 C 
ATOM     30  H   UNL     1      10.593  12.342  22.159  0.00  0.00    +0.149 HD
ENDBRANCH  14   4
BRANCH  10   1
ATOM      1  O   UNL     1      15.799   9.941  21.997  0.00  0.00    -0.391 OA
ATOM     31  H   UNL     1      15.465  10.847  22.113  0.00  0.00    +0.210 HD
ENDBRANCH  10   1
BRANCH  13  18
ATOM     18  C   UNL     1      16.672   7.726  20.274  0.00  0.00    +0.077 C 
ATOM     20  C   UNL     1      16.756   6.414  19.502  0.00  0.00    +0.017 C 
BRANCH  18  21
ATOM      2  O   UNL     1      18.344   9.025  21.449  0.00  0.00    -0.276 OA
ATOM      5  N   UNL     1      18.391   6.715  21.652  0.00  0.00    -0.311 N 
ATOM     21  C   UNL     1      17.883   7.918  21.180  0.00  0.00    +0.216 C 
ATOM     32  H   UNL     1      17.921   5.844  21.426  0.00  0.00    +0.149 HD
BRANCH   5  24
ATOM     24  C   UNL     1      19.538   6.641  22.526  0.00  0.00    +0.141 C 
BRANCH  24  25
ATOM      6  N   UNL     1      22.425   6.503  20.087  0.00  0.00    -0.263 NA
ATOM     25  C   UNL     1      20.762   6.151  21.806  0.00  0.00    -0.012 A 
ATOM     26  C   UNL     1      21.363   4.946  22.151  0.00  0.00    +0.008 A 
ATOM     27  C   UNL     1      21.327   6.887  20.777  0.00  0.00    +0.115 A 
ATOM     28  C   UNL     1      22.494   4.518  21.465  0.00  0.00    +0.020 A 
ATOM     29  C   UNL     1      22.982   5.326  20.450  0.00  0.00    +0.111 A 
ENDBRANCH  24  25
ENDBRANCH   5  24
ENDBRANCH  18  21
ENDBRANCH  13  18
TORSDOF 6
ENDMDL
MODEL 4
REMARK VINA RESULT:      -6.9     27.581     29.311
REMARK  Name = 28962489
REMARK  10 active torsions:
REMARK  status: ('A' for Active; 'I' for Inactive)
REMARK    1  A    between atoms: O_1  and  C_10
REMARK    2  A    between atoms: N_4  and  C_14
REMARK    3  A    between atoms: N_5  and  C_24
REMARK    4  A    between atoms: C_7  and  C_17
REMARK    5  A    between atoms: C_9  and  C_19
REMARK    6  A    between atoms: C_13  and  C_18
REMARK    7  A    between atoms: C_18  and  C_20
REMARK    8  A    between atoms: C_18  and  C_21
REMARK    9  A    between atoms: C_22  and  C_23
REMARK   10  A    between atoms: C_24  and  C_25
REMARK                            x       y       z     vdW  Elec       q    Type
REMARK                         _______ _______ _______ _____ _____    ______ ____
ROOT
ATOM      7  C   UNL     1      -4.765 -11.025  16.910  0.00  0.00    -0.027 C 
ATOM      8  C   UNL     1      -5.531 -10.414  15.691  0.00  0.00    +0.028 C 
ATOM      9  C   UNL     1      -7.085 -10.533  15.891  0.00  0.00    +0.012 C 
ATOM     10  C   UNL     1      -4.986 -10.973  14.344  0.00  0.00    +0.122 C 
ATOM     11  C   UNL     1      -3.245 -10.791  16.735  0.00  0.00    +0.007 C 
ATOM     12  C   UNL     1      -5.207 -10.296  18.200  0.00  0.00    +0.009 C 
ATOM     13  C   UNL     1      -3.452 -10.830  14.219  0.00  0.00    +0.029 C 
ATOM     14  C   UNL     1      -7.509  -9.862  17.227  0.00  0.00    +0.076 C 
ATOM     15  C   UNL     1      -2.701 -11.371  15.435  0.00  0.00    +0.007 C 
ATOM     16  C   UNL     1      -6.709 -10.355  18.434  0.00  0.00    +0.023 C 
ATOM     17  C   UNL     1      -5.018 -12.545  17.070  0.00  0.00    +0.011 C 
ATOM     19  C   UNL     1      -7.903  -9.925  14.738  0.00  0.00    +0.010 C 
ENDROOT
BRANCH  14   4
ATOM      3  O   UNL     1      -9.555  -7.816  17.463  0.00  0.00    -0.276 OA
ATOM      4  N   UNL     1      -8.918 -10.055  17.501  0.00  0.00    -0.312 N 
ATOM     22  C   UNL     1      -9.817  -9.009  17.594  0.00  0.00    +0.210 C 
ATOM     23  C   UNL     1     -11.220  -9.488  17.861  0.00  0.00    +0.109 C 
ATOM     30  H   UNL     1      -9.241 -11.000  17.689  0.00  0.00    +0.149 HD
ENDBRANCH  14   4
BRANCH  10   1
ATOM      1  O   UNL     1      -5.555 -10.240  13.258  0.00  0.00    -0.391 OA
ATOM     31  H   UNL     1      -6.402  -9.865  13.556  0.00  0.00    +0.210 HD
ENDBRANCH  10   1
BRANCH  13  18
ATOM     18  C   UNL     1      -2.919 -11.502  12.948  0.00  0.00    +0.077 C 
ATOM     20  C   UNL     1      -1.728 -12.392  13.285  0.00  0.00    +0.017 C 
BRANCH  18  21
ATOM      2  O   UNL     1      -1.435  -9.922  11.869  0.00  0.00    -0.276 OA
ATOM      5  N   UNL     1      -3.597 -10.146  11.057  0.00  0.00    -0.311 N 
ATOM     21  C   UNL     1      -2.548 -10.443  11.916  0.00  0.00    +0.216 C 
ATOM     32  H   UNL     1      -4.470 -10.659  11.128  0.00  0.00    +0.149 HD
BRANCH   5  24
ATOM     24  C   UNL     1      -3.486  -9.172   9.996  0.00  0.00    +0.141 C 
BRANCH  24  25
ATOM      6  N   UNL     1      -6.941  -8.077   8.916  0.00  0.00    -0.263 NA
ATOM     25  C   UNL     1      -4.753  -9.066   9.196  0.00  0.00    -0.012 A 
ATOM     26  C   UNL     1      -4.935  -9.815   8.039  0.00  0.00    +0.008 A 
ATOM     27  C   UNL     1      -5.776  -8.219   9.589  0.00  0.00    +0.115 A 
ATOM     28  C   UNL     1      -6.119  -9.696   7.320  0.00  0.00    +0.020 A 
ATOM     29  C   UNL     1      -7.082  -8.821   7.797  0.00  0.00    +0.111 A 
ENDBRANCH  24  25
ENDBRANCH   5  24
ENDBRANCH  18  21
ENDBRANCH  13  18
TORSDOF 6
ENDMDL
MODEL 5
REMARK VINA RESULT:      -6.9      2.985      7.478
REMARK  Name = 28962489
REMARK  10 active torsions:
REMARK  status: ('A' for Active; 'I' for Inactive)
REMARK    1  A    between atoms: O_1  and  C_10
REMARK    2  A    between atoms: N_4  and  C_14
REMARK    3  A    between atoms: N_5  and  C_24
REMARK    4  A    between atoms: C_7  and  C_17
REMARK    5  A    between atoms: C_9  and  C_19
REMARK    6  A    between atoms: C_13  and  C_18
REMARK    7  A    between atoms: C_18  and  C_20
REMARK    8  A    between atoms: C_18  and  C_21
REMARK    9  A    between atoms: C_22  and  C_23
REMARK   10  A    between atoms: C_24  and  C_25
REMARK                            x       y       z     vdW  Elec       q    Type
REMARK                         _______ _______ _______ _____ _____    ______ ____
ROOT
ATOM      7  C   UNL     1      15.786  10.230  21.436  0.00  0.00    -0.027 C 
ATOM      8  C   UNL     1      15.491   8.720  21.719  0.00  0.00    +0.028 C 
ATOM      9  C   UNL     1      16.623   7.808  21.123  0.00  0.00    +0.012 C 
ATOM     10  C   UNL     1      14.040   8.340  21.305  0.00  0.00    +0.122 C 
ATOM     11  C   UNL     1      14.716  11.104  22.132  0.00  0.00    +0.007 C 
ATOM     12  C   UNL     1      17.160  10.597  22.041  0.00  0.00    +0.009 C 
ATOM     13  C   UNL     1      12.981   9.282  21.922  0.00  0.00    +0.029 C 
ATOM     14  C   UNL     1      18.010   8.235  21.681  0.00  0.00    +0.076 C 
ATOM     15  C   UNL     1      13.296  10.762  21.699  0.00  0.00    +0.007 C 
ATOM     16  C   UNL     1      18.295   9.729  21.520  0.00  0.00    +0.023 C 
ATOM     17  C   UNL     1      15.790  10.560  19.922  0.00  0.00    +0.011 C 
ATOM     19  C   UNL     1      16.411   6.308  21.390  0.00  0.00    +0.010 C 
ENDROOT
BRANCH  14   4
ATOM      3  O   UNL     1      19.827   6.369  22.964  0.00  0.00    -0.276 OA
ATOM      4  N   UNL     1      19.089   7.493  21.064  0.00  0.00    -0.312 N 
ATOM     22  C   UNL     1      19.903   6.623  21.765  0.00  0.00    +0.210 C 
ATOM     23  C   UNL     1      20.927   5.964  20.878  0.00  0.00    +0.109 C 
ATOM     30  H   UNL     1      19.286   7.668  20.082  0.00  0.00    +0.149 HD
ENDBRANCH  14   4
BRANCH  10   1
ATOM      1  O   UNL     1      13.739   7.025  21.773  0.00  0.00    -0.391 OA
ATOM     31  H   UNL     1      13.550   6.464  21.000  0.00  0.00    +0.210 HD
ENDBRANCH  10   1
BRANCH  13  18
ATOM     18  C   UNL     1      11.572   8.975  21.400  0.00  0.00    +0.077 C 
ATOM     20  C   UNL     1      10.803   8.145  22.422  0.00  0.00    +0.017 C 
BRANCH  18  21
ATOM      2  O   UNL     1      11.641   7.036  19.951  0.00  0.00    -0.276 OA
ATOM      5  N   UNL     1      11.762   9.144  18.989  0.00  0.00    -0.311 N 
ATOM     21  C   UNL     1      11.659   8.261  20.056  0.00  0.00    +0.216 C 
ATOM     32  H   UNL     1      11.717  10.144  19.155  0.00  0.00    +0.149 HD
BRANCH   5  24
ATOM     24  C   UNL     1      11.859   8.703  17.617  0.00  0.00    +0.141 C 
BRANCH  24  25
ATOM      6  N   UNL     1      14.558   9.409  15.064  0.00  0.00    -0.263 NA
ATOM     25  C   UNL     1      12.960   9.408  16.878  0.00  0.00    -0.012 A 
ATOM     26  C   UNL     1      13.407  10.662  17.282  0.00  0.00    +0.008 A 
ATOM     27  C   UNL     1      13.563   8.830  15.773  0.00  0.00    +0.115 A 
ATOM     28  C   UNL     1      14.429  11.289  16.579  0.00  0.00    +0.020 A 
ATOM     29  C   UNL     1      14.967  10.626  15.487  0.00  0.00    +0.111 A 
ENDBRANCH  24  25
ENDBRANCH   5  24
ENDBRANCH  18  21
ENDBRANCH  13  18
TORSDOF 6
ENDMDL
MODEL 6
REMARK VINA RESULT:      -6.8     15.309     18.093
REMARK  Name = 28962489
REMARK  10 active torsions:
REMARK  status: ('A' for Active; 'I' for Inactive)
REMARK    1  A    between atoms: O_1  and  C_10
REMARK    2  A    between atoms: N_4  and  C_14
REMARK    3  A    between atoms: N_5  and  C_24
REMARK    4  A    between atoms: C_7  and  C_17
REMARK    5  A    between atoms: C_9  and  C_19
REMARK    6  A    between atoms: C_13  and  C_18
REMARK    7  A    between atoms: C_18  and  C_20
REMARK    8  A    between atoms: C_18  and  C_21
REMARK    9  A    between atoms: C_22  and  C_23
REMARK   10  A    between atoms: C_24  and  C_25
REMARK                            x       y       z     vdW  Elec       q    Type
REMARK                         _______ _______ _______ _____ _____    ______ ____
ROOT
ATOM      7  C   UNL     1       9.423   6.348   6.351  0.00  0.00    -0.027 C 
ATOM      8  C   UNL     1      10.488   7.378   5.848  0.00  0.00    +0.028 C 
ATOM      9  C   UNL     1      10.078   8.843   6.241  0.00  0.00    +0.012 C 
ATOM     10  C   UNL     1      10.819   7.159   4.343  0.00  0.00    +0.122 C 
ATOM     11  C   UNL     1       9.912   4.912   6.048  0.00  0.00    +0.007 C 
ATOM     12  C   UNL     1       9.278   6.482   7.884  0.00  0.00    +0.009 C 
ATOM     13  C   UNL     1      11.206   5.696   4.027  0.00  0.00    +0.029 C 
ATOM     14  C   UNL     1       9.861   8.947   7.777  0.00  0.00    +0.076 C 
ATOM     15  C   UNL     1      10.199   4.681   4.569  0.00  0.00    +0.007 C 
ATOM     16  C   UNL     1       8.906   7.888   8.329  0.00  0.00    +0.023 C 
ATOM     17  C   UNL     1       8.039   6.553   5.687  0.00  0.00    +0.011 C 
ATOM     19  C   UNL     1      11.097   9.908   5.801  0.00  0.00    +0.010 C 
ENDROOT
BRANCH  14   4
ATOM      3  O   UNL     1      11.226  10.943   9.385  0.00  0.00    -0.276 OA
ATOM      4  N   UNL     1       9.369  10.254   8.162  0.00  0.00    -0.312 N 
ATOM     22  C   UNL     1      10.100  11.137   8.934  0.00  0.00    +0.210 C 
ATOM     23  C   UNL     1       9.366  12.432   9.166  0.00  0.00    +0.109 C 
ATOM     30  H   UNL     1       8.420  10.502   7.896  0.00  0.00    +0.149 HD
ENDBRANCH  14   4
BRANCH  10   1
ATOM      1  O   UNL     1      11.939   7.966   3.978  0.00  0.00    -0.391 OA
ATOM     31  H   UNL     1      12.077   7.877   3.019  0.00  0.00    +0.210 HD
ENDBRANCH  10   1
BRANCH  13  18
ATOM     18  C   UNL     1      11.401   5.470   2.523  0.00  0.00    +0.077 C 
ATOM     20  C   UNL     1      10.583   4.268   2.063  0.00  0.00    +0.017 C 
BRANCH  18  21
ATOM      2  O   UNL     1      13.689   6.214   2.251  0.00  0.00    -0.276 OA
ATOM      5  N   UNL     1      13.199   3.976   1.885  0.00  0.00    -0.311 N 
ATOM     21  C   UNL     1      12.882   5.287   2.212  0.00  0.00    +0.216 C 
ATOM     32  H   UNL     1      12.484   3.257   1.926  0.00  0.00    +0.149 HD
BRANCH   5  24
ATOM     24  C   UNL     1      14.540   3.558   1.549  0.00  0.00    +0.141 C 
BRANCH  24  25
ATOM      6  N   UNL     1      16.606   4.699  -1.406  0.00  0.00    -0.263 NA
ATOM     25  C   UNL     1      14.914   3.943   0.146  0.00  0.00    -0.012 A 
ATOM     26  C   UNL     1      13.976   3.913  -0.880  0.00  0.00    +0.008 A 
ATOM     27  C   UNL     1      16.204   4.339  -0.166  0.00  0.00    +0.115 A 
ATOM     28  C   UNL     1      14.351   4.277  -2.168  0.00  0.00    +0.020 A 
ATOM     29  C   UNL     1      15.667   4.659  -2.377  0.00  0.00    +0.111 A 
ENDBRANCH  24  25
ENDBRANCH   5  24
ENDBRANCH  18  21
ENDBRANCH  13  18
TORSDOF 6
ENDMDL
MODEL 7
REMARK VINA RESULT:      -6.7     27.401     30.509
REMARK  Name = 28962489
REMARK  10 active torsions:
REMARK  status: ('A' for Active; 'I' for Inactive)
REMARK    1  A    between atoms: O_1  and  C_10
REMARK    2  A    between atoms: N_4  and  C_14
REMARK    3  A    between atoms: N_5  and  C_24
REMARK    4  A    between atoms: C_7  and  C_17
REMARK    5  A    between atoms: C_9  and  C_19
REMARK    6  A    between atoms: C_13  and  C_18
REMARK    7  A    between atoms: C_18  and  C_20
REMARK    8  A    between atoms: C_18  and  C_21
REMARK    9  A    between atoms: C_22  and  C_23
REMARK   10  A    between atoms: C_24  and  C_25
REMARK                            x       y       z     vdW  Elec       q    Type
REMARK                         _______ _______ _______ _____ _____    ______ ____
ROOT
ATOM      7  C   UNL     1      -2.986 -10.646  12.295  0.00  0.00    -0.027 C 
ATOM      8  C   UNL     1      -4.438 -10.384  12.813  0.00  0.00    +0.028 C 
ATOM      9  C   UNL     1      -4.758 -11.286  14.059  0.00  0.00    +0.012 C 
ATOM     10  C   UNL     1      -5.473 -10.457  11.653  0.00  0.00    +0.122 C 
ATOM     11  C   UNL     1      -2.664  -9.665  11.142  0.00  0.00    +0.007 C 
ATOM     12  C   UNL     1      -1.985 -10.370  13.440  0.00  0.00    +0.009 C 
ATOM     13  C   UNL     1      -5.092  -9.552  10.459  0.00  0.00    +0.029 C 
ATOM     14  C   UNL     1      -3.701 -11.055  15.176  0.00  0.00    +0.076 C 
ATOM     15  C   UNL     1      -3.653  -9.761   9.987  0.00  0.00    +0.007 C 
ATOM     16  C   UNL     1      -2.260 -11.197  14.687  0.00  0.00    +0.023 C 
ATOM     17  C   UNL     1      -2.790 -12.095  11.783  0.00  0.00    +0.011 C 
ATOM     19  C   UNL     1      -6.165 -11.059  14.639  0.00  0.00    +0.010 C 
ENDROOT
BRANCH  14   4
ATOM      3  O   UNL     1      -4.720 -10.394  17.813  0.00  0.00    -0.276 OA
ATOM      4  N   UNL     1      -3.897 -11.954  16.294  0.00  0.00    -0.312 N 
ATOM     22  C   UNL     1      -4.392 -11.541  17.516  0.00  0.00    +0.210 C 
ATOM     23  C   UNL     1      -4.519 -12.680  18.493  0.00  0.00    +0.109 C 
ATOM     30  H   UNL     1      -3.602 -12.921  16.184  0.00  0.00    +0.149 HD
ENDBRANCH  14   4
BRANCH  10   1
ATOM      1  O   UNL     1      -6.745 -10.004  12.119  0.00  0.00    -0.391 OA
ATOM     31  H   UNL     1      -7.060 -10.629  12.794  0.00  0.00    +0.210 HD
ENDBRANCH  10   1
BRANCH  13  18
ATOM     18  C   UNL     1      -6.050  -9.735   9.276  0.00  0.00    +0.077 C 
ATOM     20  C   UNL     1      -5.268  -9.769   7.968  0.00  0.00    +0.017 C 
BRANCH  18  21
ATOM      2  O   UNL     1      -8.049  -8.604  10.044  0.00  0.00    -0.276 OA
ATOM      5  N   UNL     1      -6.833  -7.653   8.313  0.00  0.00    -0.311 N 
ATOM     21  C   UNL     1      -7.092  -8.622   9.273  0.00  0.00    +0.216 C 
ATOM     32  H   UNL     1      -5.991  -7.712   7.749  0.00  0.00    +0.149 HD
BRANCH   5  24
ATOM     24  C   UNL     1      -7.681  -6.500   8.118  0.00  0.00    +0.141 C 
BRANCH  24  25
ATOM      6  N   UNL     1     -11.126  -6.691   6.571  0.00  0.00    -0.263 NA
ATOM     25  C   UNL     1      -8.774  -6.770   7.124  0.00  0.00    -0.012 A 
ATOM     26  C   UNL     1      -8.493  -7.326   5.881  0.00  0.00    +0.008 A 
ATOM     27  C   UNL     1     -10.095  -6.472   7.418  0.00  0.00    +0.115 A 
ATOM     28  C   UNL     1      -9.527  -7.565   4.983  0.00  0.00    +0.020 A 
ATOM     29  C   UNL     1     -10.815  -7.233   5.373  0.00  0.00    +0.111 A 
ENDBRANCH  24  25
ENDBRANCH   5  24
ENDBRANCH  18  21
ENDBRANCH  13  18
TORSDOF 6
ENDMDL
MODEL 8
REMARK VINA RESULT:      -6.6      2.321      7.747
REMARK  Name = 28962489
REMARK  10 active torsions:
REMARK  status: ('A' for Active; 'I' for Inactive)
REMARK    1  A    between atoms: O_1  and  C_10
REMARK    2  A    between atoms: N_4  and  C_14
REMARK    3  A    between atoms: N_5  and  C_24
REMARK    4  A    between atoms: C_7  and  C_17
REMARK    5  A    between atoms: C_9  and  C_19
REMARK    6  A    between atoms: C_13  and  C_18
REMARK    7  A    between atoms: C_18  and  C_20
REMARK    8  A    between atoms: C_18  and  C_21
REMARK    9  A    between atoms: C_22  and  C_23
REMARK   10  A    between atoms: C_24  and  C_25
REMARK                            x       y       z     vdW  Elec       q    Type
REMARK                         _______ _______ _______ _____ _____    ______ ____
ROOT
ATOM      7  C   UNL     1      16.282   6.911  19.839  0.00  0.00    -0.027 C 
ATOM      8  C   UNL     1      16.453   8.446  20.089  0.00  0.00    +0.028 C 
ATOM      9  C   UNL     1      17.145   8.714  21.474  0.00  0.00    +0.012 C 
ATOM     10  C   UNL     1      15.118   9.209  19.850  0.00  0.00    +0.122 C 
ATOM     11  C   UNL     1      15.704   6.680  18.423  0.00  0.00    +0.007 C 
ATOM     12  C   UNL     1      17.670   6.233  19.898  0.00  0.00    +0.009 C 
ATOM     13  C   UNL     1      14.491   8.893  18.473  0.00  0.00    +0.029 C 
ATOM     14  C   UNL     1      18.505   7.966  21.550  0.00  0.00    +0.076 C 
ATOM     15  C   UNL     1      14.376   7.393  18.199  0.00  0.00    +0.007 C 
ATOM     16  C   UNL     1      18.401   6.479  21.209  0.00  0.00    +0.023 C 
ATOM     17  C   UNL     1      15.344   6.242  20.875  0.00  0.00    +0.011 C 
ATOM     19  C   UNL     1      17.370  10.206  21.772  0.00  0.00    +0.010 C 
ENDROOT
BRANCH  14   4
ATOM      3  O   UNL     1      21.325   8.305  22.153  0.00  0.00    -0.276 OA
ATOM      4  N   UNL     1      19.116   8.095  22.857  0.00  0.00    -0.312 N 
ATOM     22  C   UNL     1      20.477   8.254  23.040  0.00  0.00    +0.210 C 
ATOM     23  C   UNL     1      20.842   8.389  24.495  0.00  0.00    +0.109 C 
ATOM     30  H   UNL     1      18.516   8.007  23.672  0.00  0.00    +0.149 HD
ENDBRANCH  14   4
BRANCH  10   1
ATOM      1  O   UNL     1      15.361  10.616  19.875  0.00  0.00    -0.391 OA
ATOM     31  H   UNL     1      14.750  11.018  20.516  0.00  0.00    +0.210 HD
ENDBRANCH  10   1
BRANCH  13  18
ATOM     18  C   UNL     1      13.115   9.549  18.309  0.00  0.00    +0.077 C 
ATOM     20  C   UNL     1      13.258  11.067  18.275  0.00  0.00    +0.017 C 
BRANCH  18  21
ATOM      2  O   UNL     1      11.440   8.133  19.334  0.00  0.00    -0.276 OA
ATOM      5  N   UNL     1      12.290   9.909  20.559  0.00  0.00    -0.311 N 
ATOM     21  C   UNL     1      12.188   9.103  19.434  0.00  0.00    +0.216 C 
ATOM     32  H   UNL     1      12.972  10.661  20.583  0.00  0.00    +0.149 HD
BRANCH   5  24
ATOM     24  C   UNL     1      11.509   9.686  21.754  0.00  0.00    +0.141 C 
BRANCH  24  25
ATOM      6  N   UNL     1      10.475  12.107  24.468  0.00  0.00    -0.263 NA
ATOM     25  C   UNL     1      11.166  10.972  22.449  0.00  0.00    -0.012 A 
ATOM     26  C   UNL     1      11.209  12.187  21.773  0.00  0.00    +0.008 A 
ATOM     27  C   UNL     1      10.797  10.986  23.784  0.00  0.00    +0.115 A 
ATOM     28  C   UNL     1      10.884  13.361  22.443  0.00  0.00    +0.020 A 
ATOM     29  C   UNL     1      10.527  13.268  23.778  0.00  0.00    +0.111 A 
ENDBRANCH  24  25
ENDBRANCH   5  24
ENDBRANCH  18  21
ENDBRANCH  13  18
TORSDOF 6
ENDMDL
MODEL 9
REMARK VINA RESULT:      -6.6     27.200     29.913
REMARK  Name = 28962489
REMARK  10 active torsions:
REMARK  status: ('A' for Active; 'I' for Inactive)
REMARK    1  A    between atoms: O_1  and  C_10
REMARK    2  A    between atoms: N_4  and  C_14
REMARK    3  A    between atoms: N_5  and  C_24
REMARK    4  A    between atoms: C_7  and  C_17
REMARK    5  A    between atoms: C_9  and  C_19
REMARK    6  A    between atoms: C_13  and  C_18
REMARK    7  A    between atoms: C_18  and  C_20
REMARK    8  A    between atoms: C_18  and  C_21
REMARK    9  A    between atoms: C_22  and  C_23
REMARK   10  A    between atoms: C_24  and  C_25
REMARK                            x       y       z     vdW  Elec       q    Type
REMARK                         _______ _______ _______ _____ _____    ______ ____
ROOT
ATOM      7  C   UNL     1      -5.371 -11.326  17.759  0.00  0.00    -0.027 C 
ATOM      8  C   UNL     1      -5.529 -12.468  16.702  0.00  0.00    +0.028 C 
ATOM      9  C   UNL     1      -6.262 -13.710  17.326  0.00  0.00    +0.012 C 
ATOM     10  C   UNL     1      -4.176 -12.776  15.997  0.00  0.00    +0.122 C 
ATOM     11  C   UNL     1      -4.750 -10.081  17.085  0.00  0.00    +0.007 C 
ATOM     12  C   UNL     1      -6.769 -10.929  18.285  0.00  0.00    +0.009 C 
ATOM     13  C   UNL     1      -3.509 -11.510  15.414  0.00  0.00    +0.029 C 
ATOM     14  C   UNL     1      -7.635 -13.283  17.918  0.00  0.00    +0.076 C 
ATOM     15  C   UNL     1      -3.406 -10.369  16.427  0.00  0.00    +0.007 C 
ATOM     16  C   UNL     1      -7.540 -12.098  18.879  0.00  0.00    +0.023 C 
ATOM     17  C   UNL     1      -4.477 -11.743  18.954  0.00  0.00    +0.011 C 
ATOM     19  C   UNL     1      -6.477 -14.863  16.330  0.00  0.00    +0.010 C 
ENDROOT
BRANCH  14   4
ATOM      3  O   UNL     1     -10.457 -13.965  17.870  0.00  0.00    -0.276 OA
ATOM      4  N   UNL     1      -8.287 -14.379  18.604  0.00  0.00    -0.312 N 
ATOM     22  C   UNL     1      -9.645 -14.622  18.517  0.00  0.00    +0.210 C 
ATOM     23  C   UNL     1     -10.057 -15.836  19.307  0.00  0.00    +0.109 C 
ATOM     30  H   UNL     1      -7.723 -14.957  19.221  0.00  0.00    +0.149 HD
ENDBRANCH  14   4
BRANCH  10   1
ATOM      1  O   UNL     1      -4.401 -13.662  14.899  0.00  0.00    -0.391 OA
ATOM     31  H   UNL     1      -4.180 -13.189  14.078  0.00  0.00    +0.210 HD
ENDBRANCH  10   1
BRANCH  13  18
ATOM     18  C   UNL     1      -2.119 -11.811  14.840  0.00  0.00    +0.077 C 
ATOM     20  C   UNL     1      -1.096 -10.829  15.400  0.00  0.00    +0.017 C 
BRANCH  18  21
ATOM      2  O   UNL     1      -2.250 -12.770  12.620  0.00  0.00    -0.276 OA
ATOM      5  N   UNL     1      -2.093 -10.464  12.825  0.00  0.00    -0.311 N 
ATOM     21  C   UNL     1      -2.163 -11.760  13.317  0.00  0.00    +0.216 C 
ATOM     32  H   UNL     1      -2.075  -9.679  13.469  0.00  0.00    +0.149 HD
BRANCH   5  24
ATOM     24  C   UNL     1      -2.114 -10.162  11.413  0.00  0.00    +0.141 C 
BRANCH  24  25
ATOM      6  N   UNL     1      -5.815  -9.384  11.446  0.00  0.00    -0.263 NA
ATOM     25  C   UNL     1      -3.467  -9.694  10.960  0.00  0.00    -0.012 A 
ATOM     26  C   UNL     1      -3.652  -9.156   9.691  0.00  0.00    +0.008 A 
ATOM     27  C   UNL     1      -4.571  -9.785  11.792  0.00  0.00    +0.115 A 
ATOM     28  C   UNL     1      -4.916  -8.732   9.298  0.00  0.00    +0.020 A 
ATOM     29  C   UNL     1      -5.956  -8.867  10.205  0.00  0.00    +0.111 A 
ENDBRANCH  24  25
ENDBRANCH   5  24
ENDBRANCH  18  21
ENDBRANCH  13  18
TORSDOF 6
ENDMDL
MODEL 10
REMARK VINA RESULT:      -6.5     27.122     30.081
REMARK  Name = 28962489
REMARK  10 active torsions:
REMARK  status: ('A' for Active; 'I' for Inactive)
REMARK    1  A    between atoms: O_1  and  C_10
REMARK    2  A    between atoms: N_4  and  C_14
REMARK    3  A    between atoms: N_5  and  C_24
REMARK    4  A    between atoms: C_7  and  C_17
REMARK    5  A    between atoms: C_9  and  C_19
REMARK    6  A    between atoms: C_13  and  C_18
REMARK    7  A    between atoms: C_18  and  C_20
REMARK    8  A    between atoms: C_18  and  C_21
REMARK    9  A    between atoms: C_22  and  C_23
REMARK   10  A    between atoms: C_24  and  C_25
REMARK                            x       y       z     vdW  Elec       q    Type
REMARK                         _______ _______ _______ _____ _____    ______ ____
ROOT
ATOM      7  C   UNL     1      -3.311 -11.119  11.461  0.00  0.00    -0.027 C 
ATOM      8  C   UNL     1      -4.630 -10.641  12.154  0.00  0.00    +0.028 C 
ATOM      9  C   UNL     1      -5.394  -9.608  11.249  0.00  0.00    +0.012 C 
ATOM     10  C   UNL     1      -4.365 -10.179  13.616  0.00  0.00    +0.122 C 
ATOM     11  C   UNL     1      -2.644 -12.216  12.324  0.00  0.00    +0.007 C 
ATOM     12  C   UNL     1      -3.659 -11.745  10.091  0.00  0.00    +0.009 C 
ATOM     13  C   UNL     1      -3.605 -11.240  14.445  0.00  0.00    +0.029 C 
ATOM     14  C   UNL     1      -5.672 -10.222   9.848  0.00  0.00    +0.076 C 
ATOM     15  C   UNL     1      -2.346 -11.754  13.746  0.00  0.00    +0.007 C 
ATOM     16  C   UNL     1      -4.424 -10.798   9.178  0.00  0.00    +0.023 C 
ATOM     17  C   UNL     1      -2.298  -9.965  11.253  0.00  0.00    +0.011 C 
ATOM     19  C   UNL     1      -6.718  -9.116  11.857  0.00  0.00    +0.010 C 
ENDROOT
BRANCH  14   4
ATOM      3  O   UNL     1      -7.763 -10.697   7.890  0.00  0.00    -0.276 OA
ATOM      4  N   UNL     1      -6.271  -9.258   8.949  0.00  0.00    -0.312 N 
ATOM     22  C   UNL     1      -7.267  -9.584   8.048  0.00  0.00    +0.210 C 
ATOM     23  C   UNL     1      -7.729  -8.391   7.254  0.00  0.00    +0.109 C 
ATOM     30  H   UNL     1      -5.896  -8.313   8.947  0.00  0.00    +0.149 HD
ENDBRANCH  14   4
BRANCH  10   1
ATOM      1  O   UNL     1      -5.610  -9.958  14.280  0.00  0.00    -0.391 OA
ATOM     31  H   UNL     1      -5.508 -10.219  15.211  0.00  0.00    +0.210 HD
ENDBRANCH  10   1
BRANCH  13  18
ATOM     18  C   UNL     1      -3.238 -10.718  15.839  0.00  0.00    +0.077 C 
ATOM     20  C   UNL     1      -1.727 -10.760  16.035  0.00  0.00    +0.017 C 
BRANCH  18  21
ATOM      2  O   UNL     1      -3.634 -11.514  18.092  0.00  0.00    -0.276 OA
ATOM      5  N   UNL     1      -5.007 -12.282  16.387  0.00  0.00    -0.311 N 
ATOM     21  C   UNL     1      -3.960 -11.533  16.907  0.00  0.00    +0.216 C 
ATOM     32  H   UNL     1      -5.247 -12.203  15.404  0.00  0.00    +0.149 HD
BRANCH   5  24
ATOM     24  C   UNL     1      -5.837 -13.136  17.204  0.00  0.00    +0.141 C 
BRANCH  24  25
ATOM      6  N   UNL     1      -7.930 -11.582  19.943  0.00  0.00    -0.263 NA
ATOM     25  C   UNL     1      -6.932 -12.368  17.887  0.00  0.00    -0.012 A 
ATOM     26  C   UNL     1      -7.938 -11.748  17.153  0.00  0.00    +0.008 A 
ATOM     27  C   UNL     1      -6.973 -12.256  19.267  0.00  0.00    +0.115 A 
ATOM     28  C   UNL     1      -8.940 -11.045  17.813  0.00  0.00    +0.020 A 
ATOM     29  C   UNL     1      -8.891 -10.993  19.197  0.00  0.00    +0.111 A 
ENDBRANCH  24  25
ENDBRANCH   5  24
ENDBRANCH  18  21
ENDBRANCH  13  18
TORSDOF 6
ENDMDL
