REMARK  Name = 7049517
REMARK  9 active torsions:
REMARK  status: ('A' for Active; 'I' for Inactive)
REMARK    1  A    between atoms: S_1  and  C_20
REMARK    2  A    between atoms: S_1  and  C_25
REMARK    3  A    between atoms: N_9  and  C_13
REMARK    4  A    between atoms: N_10  and  C_21
REMARK    5  A    between atoms: N_10  and  C_22
REMARK    6  A    between atoms: N_11  and  C_24
REMARK    7  A    between atoms: C_14  and  C_17
REMARK    8  A    between atoms: C_18  and  C_20
REMARK    9  A    between atoms: C_21  and  C_23
REMARK                            x       y       z     vdW  Elec       q    Type
REMARK                         _______ _______ _______ _____ _____    ______ ____
ROOT
ATOM      5  O   UNL     1      -3.504   1.178  -1.774  0.00  0.00    -0.275 OA
ATOM      8  N   UNL     1      -2.131   1.339   0.083  0.00  0.00    -0.287 N 
ATOM     13  C   UNL     1      -0.404  -0.029   0.961  0.00  0.00    +0.105 C 
ATOM     14  C   UNL     1      -1.613  -0.024   0.025  0.00  0.00    +0.182 C 
ATOM     15  C   UNL     1      -0.734   1.069   1.975  0.00  0.00    +0.043 C 
ATOM     16  C   UNL     1      -1.502   2.101   1.158  0.00  0.00    +0.110 C 
ATOM     18  C   UNL     1      -2.989   1.851  -0.878  0.00  0.00    +0.226 C 
ENDROOT
BRANCH  13   9
ATOM      6  O   UNL     1       2.251  -0.841   1.663  0.00  0.00    -0.252 OA
ATOM      9  N   UNL     1       0.809   0.271   0.238  0.00  0.00    -0.294 N 
ATOM     11  N   UNL     1       3.054   0.275  -0.240  0.00  0.00    -0.267 N 
ATOM     19  C   UNL     1       2.073  -0.166   0.652  0.00  0.00    +0.304 C 
ATOM     31  H   UNL     1       0.753   0.886  -0.568  0.00  0.00    +0.151 HD
ATOM     32  H   UNL     1       2.738   0.827  -1.034  0.00  0.00    +0.156 HD
BRANCH  11  24
ATOM      2  F   UNL     1       4.766   1.289  -2.177  0.00  0.00    -0.203 F 
ATOM      3  F   UNL     1       8.499  -0.628   0.007  0.00  0.00    -0.205 F 
ATOM     24  C   UNL     1       4.449   0.046  -0.178  0.00  0.00    +0.070 A 
ATOM     26  C   UNL     1       5.269   0.568  -1.165  0.00  0.00    +0.147 A 
ATOM     27  C   UNL     1       4.965  -0.700   0.869  0.00  0.00    +0.029 A 
ATOM     28  C   UNL     1       6.644   0.339  -1.102  0.00  0.00    +0.078 A 
ATOM     29  C   UNL     1       6.340  -0.929   0.932  0.00  0.00    +0.040 A 
ATOM     30  C   UNL     1       7.179  -0.409  -0.054  0.00  0.00    +0.126 A 
ENDBRANCH  11  24
ENDBRANCH  13   9
BRANCH  14  17
ATOM      4  O   UNL     1      -3.490  -0.484   1.383  0.00  0.00    -0.273 OA
ATOM     10  N   UNL     1      -2.759  -2.206   0.004  0.00  0.00    -0.294 N 
ATOM     17  C   UNL     1      -2.705  -0.917   0.535  0.00  0.00    +0.238 C 
ATOM     22  C   UNL     1      -1.810  -2.677  -0.997  0.00  0.00    +0.132 C 
BRANCH  10  21
ATOM     21  C   UNL     1      -3.770  -3.178   0.411  0.00  0.00    +0.202 C 
BRANCH  21  23
ATOM      7  O   UNL     1      -5.340  -2.007  -1.014  0.00  0.00    -0.274 OA
ATOM     12  N   UNL     1      -5.678  -4.241  -0.587  0.00  0.00    -0.328 N 
ATOM     23  C   UNL     1      -4.984  -3.055  -0.481  0.00  0.00    +0.228 C 
ATOM     33  H   UNL     1      -5.379  -5.092  -0.122  0.00  0.00    +0.145 HD
ATOM     34  H   UNL     1      -6.524  -4.301  -1.145  0.00  0.00    +0.145 HD
ENDBRANCH  21  23
ENDBRANCH  10  21
ENDBRANCH  14  17
BRANCH  18  20
ATOM     20  C   UNL     1      -3.284   3.325  -0.769  0.00  0.00    +0.164 C 
BRANCH  20   1
ATOM      1  S   UNL     1      -4.735   3.517   0.276  0.00  0.00    -0.155 S 
ATOM     25  C   UNL     1      -4.867   5.321   0.244  0.00  0.00    +0.085 C 
ENDBRANCH  20   1
ENDBRANCH  18  20
TORSDOF 7
