REMARK  Name = 51137069
REMARK  3 active torsions:
REMARK  status: ('A' for Active; 'I' for Inactive)
REMARK    1  A    between atoms: N_2  and  C_8
REMARK    2  A    between atoms: C_4  and  C_9
REMARK    3  A    between atoms: C_8  and  C_10
REMARK                            x       y       z     vdW  Elec       q    Type
REMARK                         _______ _______ _______ _____ _____    ______ ____
ROOT
ATOM      2  N   UNL     1      -1.836   1.263  -0.074  0.00  0.00    -0.297 NA
ATOM      4  C   UNL     1       0.281   0.976   0.892  0.00  0.00    +0.060 C 
ATOM      5  C   UNL     1       0.059   2.464   0.571  0.00  0.00    +0.027 C 
ATOM      6  C   UNL     1      -0.801   0.240   0.091  0.00  0.00    +0.095 C 
ATOM      7  C   UNL     1      -1.107   2.487  -0.408  0.00  0.00    +0.085 C 
ENDROOT
BRANCH   4   9
ATOM      1  S   UNL     1       2.602  -0.185   1.888  0.00  0.00    -0.072 S 
ATOM      3  N   UNL     1       2.243   0.485  -0.576  0.00  0.00    -0.244 NA
ATOM      9  C   UNL     1       1.675   0.466   0.607  0.00  0.00    +0.084 A 
ATOM     11  C   UNL     1       3.897  -0.481   0.788  0.00  0.00    +0.039 A 
ATOM     12  C   UNL     1       3.518  -0.054  -0.488  0.00  0.00    +0.078 A 
ATOM     15  C   UNL     1       5.156  -1.049   1.037  0.00  0.00    +0.017 A 
ATOM     16  C   UNL     1       4.434  -0.203  -1.552  0.00  0.00    +0.029 A 
ATOM     19  C   UNL     1       6.045  -1.185  -0.033  0.00  0.00    +0.001 A 
ATOM     20  C   UNL     1       5.690  -0.768  -1.311  0.00  0.00    +0.002 A 
ENDBRANCH   4   9
BRANCH   2   8
ATOM      8  C   UNL     1      -2.813   0.905  -1.091  0.00  0.00    +0.119 C 
BRANCH   8  10
ATOM     10  C   UNL     1      -3.865  -0.029  -0.554  0.00  0.00    -0.033 A 
ATOM     13  C   UNL     1      -3.675  -1.409  -0.624  0.00  0.00    +0.005 A 
ATOM     14  C   UNL     1      -5.031   0.486   0.013  0.00  0.00    +0.005 A 
ATOM     17  C   UNL     1      -4.650  -2.274  -0.126  0.00  0.00    +0.000 A 
ATOM     18  C   UNL     1      -6.006  -0.378   0.510  0.00  0.00    +0.000 A 
ATOM     21  C   UNL     1      -5.815  -1.758   0.441  0.00  0.00    +0.000 A 
ENDBRANCH   8  10
ENDBRANCH   2   8
TORSDOF 3
