REMARK  Name = 45783569
REMARK  9 active torsions:
REMARK  status: ('A' for Active; 'I' for Inactive)
REMARK    1  A    between atoms: O_2  and  C_24
REMARK    2  A    between atoms: O_2  and  C_25
REMARK    3  A    between atoms: O_3  and  C_26
REMARK    4  A    between atoms: O_3  and  C_27
REMARK    5  A    between atoms: N_4  and  C_14
REMARK    6  A    between atoms: C_10  and  C_15
REMARK    7  A    between atoms: C_14  and  C_16
REMARK    8  A    between atoms: C_17  and  C_20
REMARK    9  A    between atoms: C_25  and  C_26
REMARK                            x       y       z     vdW  Elec       q    Type
REMARK                         _______ _______ _______ _____ _____    ______ ____
ROOT
ATOM      1  O   UNL     1      -2.150   0.220  -2.021  0.00  0.00    -0.336 OA
ATOM      5  N   UNL     1      -1.296   0.970  -0.092  0.00  0.00    -0.190 NA
ATOM      8  N   UNL     1      -0.783  -0.081  -2.058  0.00  0.00    -0.056 NA
ATOM     15  C   UNL     1      -2.368   0.837  -0.831  0.00  0.00    +0.245 A 
ATOM     17  C   UNL     1      -0.348   0.392  -0.886  0.00  0.00    +0.204 A 
ENDROOT
BRANCH  17  20
ATOM      9  N   UNL     1       3.284  -0.401  -0.972  0.00  0.00    -0.221 NA
ATOM     20  C   UNL     1       1.024   0.305  -0.479  0.00  0.00    +0.041 A 
ATOM     21  C   UNL     1       1.441   0.810   0.747  0.00  0.00    +0.018 A 
ATOM     22  C   UNL     1       1.976  -0.286  -1.295  0.00  0.00    +0.126 A 
ATOM     23  C   UNL     1       2.779   0.710   1.115  0.00  0.00    +0.068 A 
ATOM     24  C   UNL     1       3.652   0.101   0.228  0.00  0.00    +0.215 A 
BRANCH  24   2
ATOM      2  O   UNL     1       4.975  -0.009   0.568  0.00  0.00    -0.474 OA
BRANCH   2  25
ATOM     25  C   UNL     1       5.828  -0.642  -0.378  0.00  0.00    +0.258 C 
BRANCH  25  26
ATOM     26  C   UNL     1       7.245  -0.650   0.161  0.00  0.00    +0.200 C 
BRANCH  26   3
ATOM      3  O   UNL     1       7.676   0.692   0.353  0.00  0.00    -0.380 OA
ATOM     27  C   UNL     1       8.994   0.746   0.879  0.00  0.00    +0.194 C 
ENDBRANCH  26   3
ENDBRANCH  25  26
ENDBRANCH   2  25
ENDBRANCH  24   2
ENDBRANCH  17  20
BRANCH  15  10
ATOM      4  N   UNL     1      -4.322   0.682   0.703  0.00  0.00    -0.284 NA
ATOM     10  C   UNL     1      -3.791   1.268  -0.544  0.00  0.00    +0.146 C 
ATOM     11  C   UNL     1      -3.923   2.790  -0.348  0.00  0.00    +0.030 C 
ATOM     12  C   UNL     1      -4.593   2.960   1.008  0.00  0.00    +0.017 C 
ATOM     13  C   UNL     1      -5.300   1.637   1.225  0.00  0.00    +0.085 C 
BRANCH   4  14
ATOM     14  C   UNL     1      -4.897  -0.644   0.515  0.00  0.00    +0.159 C 
BRANCH  14  16
ATOM      6  N   UNL     1      -2.962  -1.907   1.484  0.00  0.00    -0.347 N 
ATOM      7  N   UNL     1      -3.617  -2.546  -0.539  0.00  0.00    -0.239 NA
ATOM     16  C   UNL     1      -3.836  -1.711   0.452  0.00  0.00    +0.121 A 
ATOM     18  C   UNL     1      -2.132  -2.933   1.129  0.00  0.00    +0.104 A 
ATOM     19  C   UNL     1      -2.556  -3.311  -0.123  0.00  0.00    +0.130 A 
ATOM     28  H   UNL     1      -2.932  -1.387   2.351  0.00  0.00    +0.167 HD
ENDBRANCH  14  16
ENDBRANCH   4  14
ENDBRANCH  15  10
TORSDOF 8
