MODEL 1
REMARK VINA RESULT:      -8.5      0.000      0.000
REMARK  Name = 11883403
REMARK  7 active torsions:
REMARK  status: ('A' for Active; 'I' for Inactive)
REMARK    1  A    between atoms: O_6  and  C_16
REMARK    2  A    between atoms: O_6  and  C_20
REMARK    3  A    between atoms: N_9  and  C_15
REMARK    4  A    between atoms: N_10  and  C_21
REMARK    5  A    between atoms: N_11  and  C_22
REMARK    6  A    between atoms: C_27  and  C_33
REMARK    7  A    between atoms: C_28  and  C_34
REMARK                            x       y       z     vdW  Elec       q    Type
REMARK                         _______ _______ _______ _____ _____    ______ ____
ROOT
ATOM      4  O   UNL     1      13.105   9.227  20.508  0.00  0.00    -0.368 OA
ATOM      5  O   UNL     1      11.335   6.725  20.611  0.00  0.00    -0.368 OA
ATOM     13  C   UNL     1      11.923   7.523  21.659  0.00  0.00    +0.173 C 
ATOM     14  C   UNL     1      13.288   7.961  21.163  0.00  0.00    +0.192 C 
ATOM     15  C   UNL     1      11.161   8.818  21.816  0.00  0.00    +0.131 C 
ATOM     16  C   UNL     1      13.645   6.870  20.184  0.00  0.00    +0.235 C 
ATOM     17  C   UNL     1      11.756   9.677  20.713  0.00  0.00    +0.185 C 
ATOM     18  C   UNL     1      12.303   6.542  19.568  0.00  0.00    +0.207 C 
ENDROOT
BRANCH  15   9
ATOM      7  O   UNL     1      11.210  11.610  22.454  0.00  0.00    -0.252 OA
ATOM      9  N   UNL     1      11.386   9.403  23.115  0.00  0.00    -0.292 N 
ATOM     10  N   UNL     1      11.636  11.053  24.694  0.00  0.00    -0.269 N 
ATOM     19  C   UNL     1      11.394  10.784  23.344  0.00  0.00    +0.304 C 
ATOM     35  H   UNL     1      11.479   8.782  23.915  0.00  0.00    +0.151 HD
ATOM     36  H   UNL     1      11.769  10.249  25.303  0.00  0.00    +0.156 HD
BRANCH  10  21
ATOM     21  C   UNL     1      11.722  12.316  25.325  0.00  0.00    +0.036 A 
ATOM     23  C   UNL     1      12.957  12.795  25.763  0.00  0.00    +0.042 A 
ATOM     24  C   UNL     1      10.572  13.083  25.509  0.00  0.00    +0.023 A 
ATOM     28  C   UNL     1      13.042  14.040  26.385  0.00  0.00    +0.054 A 
ATOM     29  C   UNL     1      10.656  14.329  26.130  0.00  0.00    +0.003 A 
ATOM     32  C   UNL     1      11.891  14.807  26.568  0.00  0.00    +0.019 A 
BRANCH  28  34
ATOM     12  N   UNL     1      15.334  14.927  27.199  0.00  0.00    -0.191 NA
ATOM     34  C   UNL     1      14.307  14.530  26.834  0.00  0.00    +0.099 C 
ENDBRANCH  28  34
ENDBRANCH  10  21
ENDBRANCH  15   9
BRANCH  16   6
ATOM      6  O   UNL     1      14.589   7.269  19.215  0.00  0.00    -0.442 OA
BRANCH   6  20
ATOM      8  O   UNL     1      16.353   5.869  18.816  0.00  0.00    -0.226 OA
ATOM     11  N   UNL     1      16.523   7.669  20.303  0.00  0.00    -0.251 N 
ATOM     20  C   UNL     1      15.888   6.841  19.398  0.00  0.00    +0.405 C 
ATOM     37  H   UNL     1      15.968   8.431  20.683  0.00  0.00    +0.158 HD
BRANCH  11  22
ATOM     22  C   UNL     1      17.855   7.587  20.772  0.00  0.00    +0.037 A 
ATOM     25  C   UNL     1      18.614   6.443  20.519  0.00  0.00    +0.035 A 
ATOM     26  C   UNL     1      18.408   8.648  21.486  0.00  0.00    +0.023 A 
ATOM     27  C   UNL     1      19.927   6.362  20.982  0.00  0.00    +0.057 A 
ATOM     30  C   UNL     1      19.721   8.567  21.950  0.00  0.00    +0.002 A 
ATOM     31  C   UNL     1      20.481   7.425  21.697  0.00  0.00    +0.012 A 
BRANCH  27  33
ATOM      1  F   UNL     1      21.206   4.533  21.844  0.00  0.00    -0.166 F 
ATOM      2  F   UNL     1      20.057   4.168  20.041  0.00  0.00    -0.166 F 
ATOM      3  F   UNL     1      21.845   5.403  19.956  0.00  0.00    -0.166 F 
ATOM     33  C   UNL     1      20.739   5.142  20.713  0.00  0.00    +0.417 C 
ENDBRANCH  27  33
ENDBRANCH  11  22
ENDBRANCH   6  20
ENDBRANCH  16   6
TORSDOF 7
ENDMDL
MODEL 2
REMARK VINA RESULT:      -8.4      4.843      7.566
REMARK  Name = 11883403
REMARK  7 active torsions:
REMARK  status: ('A' for Active; 'I' for Inactive)
REMARK    1  A    between atoms: O_6  and  C_16
REMARK    2  A    between atoms: O_6  and  C_20
REMARK    3  A    between atoms: N_9  and  C_15
REMARK    4  A    between atoms: N_10  and  C_21
REMARK    5  A    between atoms: N_11  and  C_22
REMARK    6  A    between atoms: C_27  and  C_33
REMARK    7  A    between atoms: C_28  and  C_34
REMARK                            x       y       z     vdW  Elec       q    Type
REMARK                         _______ _______ _______ _____ _____    ______ ____
ROOT
ATOM      4  O   UNL     1      13.885   7.927  19.168  0.00  0.00    -0.368 OA
ATOM      5  O   UNL     1      10.884   8.130  19.762  0.00  0.00    -0.368 OA
ATOM     13  C   UNL     1      11.826   9.100  19.259  0.00  0.00    +0.173 C 
ATOM     14  C   UNL     1      13.138   8.851  19.977  0.00  0.00    +0.192 C 
ATOM     15  C   UNL     1      12.144   8.811  17.810  0.00  0.00    +0.131 C 
ATOM     16  C   UNL     1      12.687   8.222  21.272  0.00  0.00    +0.235 C 
ATOM     17  C   UNL     1      13.197   7.722  17.923  0.00  0.00    +0.185 C 
ATOM     18  C   UNL     1      11.500   7.395  20.830  0.00  0.00    +0.207 C 
ENDROOT
BRANCH  15   9
ATOM      7  O   UNL     1      12.539   9.149  14.993  0.00  0.00    -0.252 OA
ATOM      9  N   UNL     1      12.666   9.980  17.147  0.00  0.00    -0.292 N 
ATOM     10  N   UNL     1      13.353  11.312  15.406  0.00  0.00    -0.269 N 
ATOM     19  C   UNL     1      12.829  10.065  15.759  0.00  0.00    +0.304 C 
ATOM     35  H   UNL     1      12.866  10.804  17.706  0.00  0.00    +0.151 HD
ATOM     36  H   UNL     1      13.539  11.961  16.166  0.00  0.00    +0.156 HD
BRANCH  10  21
ATOM     21  C   UNL     1      13.661  11.788  14.110  0.00  0.00    +0.036 A 
ATOM     23  C   UNL     1      14.979  11.765  13.653  0.00  0.00    +0.042 A 
ATOM     24  C   UNL     1      12.648  12.279  13.288  0.00  0.00    +0.023 A 
ATOM     28  C   UNL     1      15.284  12.234  12.376  0.00  0.00    +0.054 A 
ATOM     29  C   UNL     1      12.951  12.748  12.009  0.00  0.00    +0.003 A 
ATOM     32  C   UNL     1      14.269  12.725  11.554  0.00  0.00    +0.019 A 
BRANCH  28  34
ATOM     12  N   UNL     1      17.730  12.192  11.530  0.00  0.00    -0.191 NA
ATOM     34  C   UNL     1      16.634  12.211  11.908  0.00  0.00    +0.099 C 
ENDBRANCH  28  34
ENDBRANCH  10  21
ENDBRANCH  15   9
BRANCH  16   6
ATOM      6  O   UNL     1      13.679   7.435  21.892  0.00  0.00    -0.442 OA
BRANCH   6  20
ATOM      8  O   UNL     1      15.062   9.045  22.746  0.00  0.00    -0.226 OA
ATOM     11  N   UNL     1      15.882   7.289  21.434  0.00  0.00    -0.251 N 
ATOM     20  C   UNL     1      14.912   8.025  22.085  0.00  0.00    +0.405 C 
ATOM     37  H   UNL     1      15.562   6.464  20.933  0.00  0.00    +0.158 HD
BRANCH  11  22
ATOM     22  C   UNL     1      17.272   7.541  21.375  0.00  0.00    +0.037 A 
ATOM     25  C   UNL     1      18.163   6.492  21.141  0.00  0.00    +0.035 A 
ATOM     26  C   UNL     1      17.753   8.838  21.551  0.00  0.00    +0.023 A 
ATOM     27  C   UNL     1      19.534   6.741  21.084  0.00  0.00    +0.057 A 
ATOM     30  C   UNL     1      19.124   9.087  21.494  0.00  0.00    +0.002 A 
ATOM     31  C   UNL     1      20.014   8.040  21.260  0.00  0.00    +0.012 A 
BRANCH  27  33
ATOM      1  F   UNL     1      21.603   5.995  20.142  0.00  0.00    -0.166 F 
ATOM      2  F   UNL     1      20.955   5.039  21.978  0.00  0.00    -0.166 F 
ATOM      3  F   UNL     1      19.927   4.609  20.110  0.00  0.00    -0.166 F 
ATOM     33  C   UNL     1      20.486   5.622  20.835  0.00  0.00    +0.417 C 
ENDBRANCH  27  33
ENDBRANCH  11  22
ENDBRANCH   6  20
ENDBRANCH  16   6
TORSDOF 7
ENDMDL
MODEL 3
REMARK VINA RESULT:      -8.1     28.154     30.667
REMARK  Name = 11883403
REMARK  7 active torsions:
REMARK  status: ('A' for Active; 'I' for Inactive)
REMARK    1  A    between atoms: O_6  and  C_16
REMARK    2  A    between atoms: O_6  and  C_20
REMARK    3  A    between atoms: N_9  and  C_15
REMARK    4  A    between atoms: N_10  and  C_21
REMARK    5  A    between atoms: N_11  and  C_22
REMARK    6  A    between atoms: C_27  and  C_33
REMARK    7  A    between atoms: C_28  and  C_34
REMARK                            x       y       z     vdW  Elec       q    Type
REMARK                         _______ _______ _______ _____ _____    ______ ____
ROOT
ATOM      4  O   UNL     1      -6.406 -12.072  17.349  0.00  0.00    -0.368 OA
ATOM      5  O   UNL     1      -4.887 -11.608  19.972  0.00  0.00    -0.368 OA
ATOM     13  C   UNL     1      -5.918 -10.841  19.317  0.00  0.00    +0.173 C 
ATOM     14  C   UNL     1      -5.658 -10.941  17.826  0.00  0.00    +0.192 C 
ATOM     15  C   UNL     1      -7.259 -11.512  19.498  0.00  0.00    +0.131 C 
ATOM     16  C   UNL     1      -4.171 -11.189  17.769  0.00  0.00    +0.235 C 
ATOM     17  C   UNL     1      -7.238 -12.571  18.409  0.00  0.00    +0.185 C 
ATOM     18  C   UNL     1      -3.946 -12.058  18.987  0.00  0.00    +0.207 C 
ENDROOT
BRANCH  15   9
ATOM      7  O   UNL     1     -10.047 -12.007  19.929  0.00  0.00    -0.252 OA
ATOM      9  N   UNL     1      -8.341 -10.579  19.302  0.00  0.00    -0.292 N 
ATOM     10  N   UNL     1     -10.503  -9.803  19.262  0.00  0.00    -0.269 N 
ATOM     19  C   UNL     1      -9.684 -10.902  19.537  0.00  0.00    +0.304 C 
ATOM     35  H   UNL     1      -8.114  -9.623  19.043  0.00  0.00    +0.151 HD
ATOM     36  H   UNL     1     -10.040  -8.956  18.942  0.00  0.00    +0.156 HD
BRANCH  10  21
ATOM     21  C   UNL     1     -11.911  -9.723  19.373  0.00  0.00    +0.036 A 
ATOM     23  C   UNL     1     -12.695  -9.593  18.226  0.00  0.00    +0.042 A 
ATOM     24  C   UNL     1     -12.516  -9.773  20.628  0.00  0.00    +0.023 A 
ATOM     28  C   UNL     1     -14.083  -9.514  18.335  0.00  0.00    +0.054 A 
ATOM     29  C   UNL     1     -13.905  -9.694  20.738  0.00  0.00    +0.003 A 
ATOM     32  C   UNL     1     -14.688  -9.564  19.591  0.00  0.00    +0.019 A 
BRANCH  28  34
ATOM     12  N   UNL     1     -15.537  -9.272  16.206  0.00  0.00    -0.191 NA
ATOM     34  C   UNL     1     -14.886  -9.381  17.160  0.00  0.00    +0.099 C 
ENDBRANCH  28  34
ENDBRANCH  10  21
ENDBRANCH  15   9
BRANCH  16   6
ATOM      6  O   UNL     1      -3.750 -11.822  16.581  0.00  0.00    -0.442 OA
BRANCH   6  20
ATOM      8  O   UNL     1      -2.197 -10.263  15.956  0.00  0.00    -0.226 OA
ATOM     11  N   UNL     1      -3.622 -11.273  14.398  0.00  0.00    -0.251 N 
ATOM     20  C   UNL     1      -3.098 -11.035  15.654  0.00  0.00    +0.405 C 
ATOM     37  H   UNL     1      -4.373 -11.957  14.345  0.00  0.00    +0.158 HD
BRANCH  11  22
ATOM     22  C   UNL     1      -3.243 -10.681  13.171  0.00  0.00    +0.037 A 
ATOM     25  C   UNL     1      -4.220 -10.218  12.289  0.00  0.00    +0.035 A 
ATOM     26  C   UNL     1      -1.894 -10.562  12.843  0.00  0.00    +0.023 A 
ATOM     27  C   UNL     1      -3.846  -9.634  11.078  0.00  0.00    +0.057 A 
ATOM     30  C   UNL     1      -1.519  -9.979  11.632  0.00  0.00    +0.002 A 
ATOM     31  C   UNL     1      -2.495  -9.515  10.751  0.00  0.00    +0.012 A 
BRANCH  27  33
ATOM      1  F   UNL     1      -5.954  -9.984  10.002  0.00  0.00    -0.166 F 
ATOM      2  F   UNL     1      -5.429  -7.939  10.499  0.00  0.00    -0.166 F 
ATOM      3  F   UNL     1      -4.407  -8.955   8.870  0.00  0.00    -0.166 F 
ATOM     33  C   UNL     1      -4.889  -9.139  10.135  0.00  0.00    +0.417 C 
ENDBRANCH  27  33
ENDBRANCH  11  22
ENDBRANCH   6  20
ENDBRANCH  16   6
TORSDOF 7
ENDMDL
MODEL 4
REMARK VINA RESULT:      -8.1     29.379     32.863
REMARK  Name = 11883403
REMARK  7 active torsions:
REMARK  status: ('A' for Active; 'I' for Inactive)
REMARK    1  A    between atoms: O_6  and  C_16
REMARK    2  A    between atoms: O_6  and  C_20
REMARK    3  A    between atoms: N_9  and  C_15
REMARK    4  A    between atoms: N_10  and  C_21
REMARK    5  A    between atoms: N_11  and  C_22
REMARK    6  A    between atoms: C_27  and  C_33
REMARK    7  A    between atoms: C_28  and  C_34
REMARK                            x       y       z     vdW  Elec       q    Type
REMARK                         _______ _______ _______ _____ _____    ______ ____
ROOT
ATOM      4  O   UNL     1     -11.188  -5.890  15.900  0.00  0.00    -0.368 OA
ATOM      5  O   UNL     1     -12.704  -8.253  14.666  0.00  0.00    -0.368 OA
ATOM     13  C   UNL     1     -11.303  -7.912  14.665  0.00  0.00    +0.173 C 
ATOM     14  C   UNL     1     -11.219  -6.402  14.557  0.00  0.00    +0.192 C 
ATOM     15  C   UNL     1     -10.693  -8.214  16.014  0.00  0.00    +0.131 C 
ATOM     16  C   UNL     1     -12.508  -6.053  13.854  0.00  0.00    +0.235 C 
ATOM     17  C   UNL     1     -11.077  -6.986  16.822  0.00  0.00    +0.185 C 
ATOM     18  C   UNL     1     -13.472  -7.063  14.435  0.00  0.00    +0.207 C 
ENDROOT
BRANCH  15   9
ATOM      7  O   UNL     1      -9.046 -10.004  17.527  0.00  0.00    -0.252 OA
ATOM      9  N   UNL     1      -9.261  -8.355  15.921  0.00  0.00    -0.292 N 
ATOM     10  N   UNL     1      -7.166  -9.171  16.394  0.00  0.00    -0.269 N 
ATOM     19  C   UNL     1      -8.527  -9.258  16.701  0.00  0.00    +0.304 C 
ATOM     35  H   UNL     1      -8.768  -7.820  15.212  0.00  0.00    +0.151 HD
ATOM     36  H   UNL     1      -6.901  -8.497  15.681  0.00  0.00    +0.156 HD
BRANCH  10  21
ATOM     21  C   UNL     1      -6.102  -9.912  16.958  0.00  0.00    +0.036 A 
ATOM     23  C   UNL     1      -4.907 -10.064  16.254  0.00  0.00    +0.042 A 
ATOM     24  C   UNL     1      -6.246 -10.491  18.218  0.00  0.00    +0.023 A 
ATOM     28  C   UNL     1      -3.857 -10.794  16.809  0.00  0.00    +0.054 A 
ATOM     29  C   UNL     1      -5.196 -11.222  18.775  0.00  0.00    +0.003 A 
ATOM     32  C   UNL     1      -4.001 -11.373  18.070  0.00  0.00    +0.019 A 
BRANCH  28  34
ATOM     12  N   UNL     1      -1.639 -11.076  15.503  0.00  0.00    -0.191 NA
ATOM     34  C   UNL     1      -2.633 -10.949  16.088  0.00  0.00    +0.099 C 
ENDBRANCH  28  34
ENDBRANCH  10  21
ENDBRANCH  15   9
BRANCH  16   6
ATOM      6  O   UNL     1     -12.930  -4.726  14.079  0.00  0.00    -0.442 OA
BRANCH   6  20
ATOM      8  O   UNL     1     -12.023  -3.146  12.696  0.00  0.00    -0.226 OA
ATOM     11  N   UNL     1     -14.155  -4.034  12.317  0.00  0.00    -0.251 N 
ATOM     20  C   UNL     1     -12.955  -3.887  12.985  0.00  0.00    +0.405 C 
ATOM     37  H   UNL     1     -14.810  -4.704  12.711  0.00  0.00    +0.158 HD
BRANCH  11  22
ATOM     22  C   UNL     1     -14.589  -3.365  11.149  0.00  0.00    +0.037 A 
ATOM     25  C   UNL     1     -15.520  -2.329  11.244  0.00  0.00    +0.035 A 
ATOM     26  C   UNL     1     -14.088  -3.741   9.904  0.00  0.00    +0.023 A 
ATOM     27  C   UNL     1     -15.949  -1.670  10.091  0.00  0.00    +0.057 A 
ATOM     30  C   UNL     1     -14.517  -3.082   8.752  0.00  0.00    +0.002 A 
ATOM     31  C   UNL     1     -15.446  -2.047   8.845  0.00  0.00    +0.012 A 
BRANCH  27  33
ATOM      1  F   UNL     1     -16.964   0.254   9.097  0.00  0.00    -0.166 F 
ATOM      2  F   UNL     1     -18.230  -0.997  10.337  0.00  0.00    -0.166 F 
ATOM      3  F   UNL     1     -16.710   0.257  11.256  0.00  0.00    -0.166 F 
ATOM     33  C   UNL     1     -16.943  -0.564  10.191  0.00  0.00    +0.417 C 
ENDBRANCH  27  33
ENDBRANCH  11  22
ENDBRANCH   6  20
ENDBRANCH  16   6
TORSDOF 7
ENDMDL
MODEL 5
REMARK VINA RESULT:      -8.1     19.261     22.962
REMARK  Name = 11883403
REMARK  7 active torsions:
REMARK  status: ('A' for Active; 'I' for Inactive)
REMARK    1  A    between atoms: O_6  and  C_16
REMARK    2  A    between atoms: O_6  and  C_20
REMARK    3  A    between atoms: N_9  and  C_15
REMARK    4  A    between atoms: N_10  and  C_21
REMARK    5  A    between atoms: N_11  and  C_22
REMARK    6  A    between atoms: C_27  and  C_33
REMARK    7  A    between atoms: C_28  and  C_34
REMARK                            x       y       z     vdW  Elec       q    Type
REMARK                         _______ _______ _______ _____ _____    ______ ____
ROOT
ATOM      4  O   UNL     1       4.819   9.774   2.590  0.00  0.00    -0.368 OA
ATOM      5  O   UNL     1       6.139  12.511   2.999  0.00  0.00    -0.368 OA
ATOM     13  C   UNL     1       5.935  11.405   3.902  0.00  0.00    +0.173 C 
ATOM     14  C   UNL     1       4.584  10.806   3.563  0.00  0.00    +0.192 C 
ATOM     15  C   UNL     1       6.912  10.295   3.592  0.00  0.00    +0.131 C 
ATOM     16  C   UNL     1       3.847  11.980   2.967  0.00  0.00    +0.235 C 
ATOM     17  C   UNL     1       6.235   9.583   2.434  0.00  0.00    +0.185 C 
ATOM     18  C   UNL     1       4.947  12.704   2.223  0.00  0.00    +0.207 C 
ENDROOT
BRANCH  15   9
ATOM      7  O   UNL     1       8.647   8.021   3.752  0.00  0.00    -0.252 OA
ATOM      9  N   UNL     1       7.080   9.415   4.723  0.00  0.00    -0.292 N 
ATOM     10  N   UNL     1       7.903   7.655   5.948  0.00  0.00    -0.269 N 
ATOM     19  C   UNL     1       7.953   8.320   4.720  0.00  0.00    +0.304 C 
ATOM     35  H   UNL     1       6.589   9.638   5.584  0.00  0.00    +0.151 HD
ATOM     36  H   UNL     1       7.270   8.034   6.648  0.00  0.00    +0.156 HD
BRANCH  10  21
ATOM     21  C   UNL     1       8.630   6.508   6.343  0.00  0.00    +0.036 A 
ATOM     23  C   UNL     1       8.913   6.291   7.691  0.00  0.00    +0.042 A 
ATOM     24  C   UNL     1       9.063   5.593   5.384  0.00  0.00    +0.023 A 
ATOM     28  C   UNL     1       9.630   5.160   8.081  0.00  0.00    +0.054 A 
ATOM     29  C   UNL     1       9.780   4.461   5.773  0.00  0.00    +0.003 A 
ATOM     32  C   UNL     1      10.063   4.245   7.121  0.00  0.00    +0.019 A 
BRANCH  28  34
ATOM     12  N   UNL     1      10.158   4.757  10.584  0.00  0.00    -0.191 NA
ATOM     34  C   UNL     1       9.921   4.938   9.463  0.00  0.00    +0.099 C 
ENDBRANCH  28  34
ENDBRANCH  10  21
ENDBRANCH  15   9
BRANCH  16   6
ATOM      6  O   UNL     1       2.788  11.605   2.113  0.00  0.00    -0.442 OA
BRANCH   6  20
ATOM      8  O   UNL     1       1.110  12.622   3.289  0.00  0.00    -0.226 OA
ATOM     11  N   UNL     1       0.822  10.518   2.305  0.00  0.00    -0.251 N 
ATOM     20  C   UNL     1       1.513  11.667   2.637  0.00  0.00    +0.405 C 
ATOM     37  H   UNL     1       1.329   9.831   1.752  0.00  0.00    +0.158 HD
BRANCH  11  22
ATOM     22  C   UNL     1      -0.508  10.175   2.640  0.00  0.00    +0.037 A 
ATOM     25  C   UNL     1      -0.791   9.608   3.883  0.00  0.00    +0.035 A 
ATOM     26  C   UNL     1      -1.537  10.403   1.727  0.00  0.00    +0.023 A 
ATOM     27  C   UNL     1      -2.103   9.270   4.213  0.00  0.00    +0.057 A 
ATOM     30  C   UNL     1      -2.849  10.064   2.056  0.00  0.00    +0.002 A 
ATOM     31  C   UNL     1      -3.132   9.498   3.299  0.00  0.00    +0.012 A 
BRANCH  27  33
ATOM      1  F   UNL     1      -2.873   7.382   5.466  0.00  0.00    -0.166 F 
ATOM      2  F   UNL     1      -1.326   8.602   6.373  0.00  0.00    -0.166 F 
ATOM      3  F   UNL     1      -3.359   9.360   6.230  0.00  0.00    -0.166 F 
ATOM     33  C   UNL     1      -2.406   8.664   5.541  0.00  0.00    +0.417 C 
ENDBRANCH  27  33
ENDBRANCH  11  22
ENDBRANCH   6  20
ENDBRANCH  16   6
TORSDOF 7
ENDMDL
MODEL 6
REMARK VINA RESULT:      -8.0     28.124     29.985
REMARK  Name = 11883403
REMARK  7 active torsions:
REMARK  status: ('A' for Active; 'I' for Inactive)
REMARK    1  A    between atoms: O_6  and  C_16
REMARK    2  A    between atoms: O_6  and  C_20
REMARK    3  A    between atoms: N_9  and  C_15
REMARK    4  A    between atoms: N_10  and  C_21
REMARK    5  A    between atoms: N_11  and  C_22
REMARK    6  A    between atoms: C_27  and  C_33
REMARK    7  A    between atoms: C_28  and  C_34
REMARK                            x       y       z     vdW  Elec       q    Type
REMARK                         _______ _______ _______ _____ _____    ______ ____
ROOT
ATOM      4  O   UNL     1      -6.385 -11.128  16.144  0.00  0.00    -0.368 OA
ATOM      5  O   UNL     1      -6.060 -11.237  19.192  0.00  0.00    -0.368 OA
ATOM     13  C   UNL     1      -6.454 -10.165  18.310  0.00  0.00    +0.173 C 
ATOM     14  C   UNL     1      -5.626 -10.308  17.048  0.00  0.00    +0.192 C 
ATOM     15  C   UNL     1      -7.874 -10.375  17.839  0.00  0.00    +0.131 C 
ATOM     16  C   UNL     1      -4.392 -11.018  17.546  0.00  0.00    +0.235 C 
ATOM     17  C   UNL     1      -7.692 -11.359  16.697  0.00  0.00    +0.185 C 
ATOM     18  C   UNL     1      -4.958 -11.942  18.601  0.00  0.00    +0.207 C 
ENDROOT
BRANCH  15   9
ATOM      7  O   UNL     1     -10.537 -10.007  16.850  0.00  0.00    -0.252 OA
ATOM      9  N   UNL     1      -8.461  -9.140  17.380  0.00  0.00    -0.292 N 
ATOM     10  N   UNL     1     -10.064  -7.729  16.534  0.00  0.00    -0.269 N 
ATOM     19  C   UNL     1      -9.776  -9.044  16.909  0.00  0.00    +0.304 C 
ATOM     35  H   UNL     1      -7.916  -8.287  17.461  0.00  0.00    +0.151 HD
ATOM     36  H   UNL     1      -9.318  -7.048  16.647  0.00  0.00    +0.156 HD
BRANCH  10  21
ATOM     21  C   UNL     1     -11.277  -7.222  16.012  0.00  0.00    +0.036 A 
ATOM     23  C   UNL     1     -11.257  -6.182  15.083  0.00  0.00    +0.042 A 
ATOM     24  C   UNL     1     -12.495  -7.762  16.427  0.00  0.00    +0.023 A 
ATOM     28  C   UNL     1     -12.452  -5.682  14.568  0.00  0.00    +0.054 A 
ATOM     29  C   UNL     1     -13.691  -7.263  15.911  0.00  0.00    +0.003 A 
ATOM     32  C   UNL     1     -13.669  -6.223  14.982  0.00  0.00    +0.019 A 
BRANCH  28  34
ATOM     12  N   UNL     1     -12.414  -3.752  12.842  0.00  0.00    -0.191 NA
ATOM     34  C   UNL     1     -12.431  -4.616  13.615  0.00  0.00    +0.099 C 
ENDBRANCH  28  34
ENDBRANCH  10  21
ENDBRANCH  15   9
BRANCH  16   6
ATOM      6  O   UNL     1      -3.703 -11.724  16.538  0.00  0.00    -0.442 OA
BRANCH   6  20
ATOM      8  O   UNL     1      -2.098 -10.240  15.864  0.00  0.00    -0.226 OA
ATOM     11  N   UNL     1      -3.612 -11.187  14.351  0.00  0.00    -0.251 N 
ATOM     20  C   UNL     1      -3.042 -10.971  15.590  0.00  0.00    +0.405 C 
ATOM     37  H   UNL     1      -4.395 -11.835  14.321  0.00  0.00    +0.158 HD
BRANCH  11  22
ATOM     22  C   UNL     1      -3.242 -10.615  13.111  0.00  0.00    +0.037 A 
ATOM     25  C   UNL     1      -4.226 -10.206  12.210  0.00  0.00    +0.035 A 
ATOM     26  C   UNL     1      -1.895 -10.460  12.790  0.00  0.00    +0.023 A 
ATOM     27  C   UNL     1      -3.860  -9.643  10.987  0.00  0.00    +0.057 A 
ATOM     30  C   UNL     1      -1.528  -9.898  11.567  0.00  0.00    +0.002 A 
ATOM     31  C   UNL     1      -2.511  -9.488  10.667  0.00  0.00    +0.012 A 
BRANCH  27  33
ATOM      1  F   UNL     1      -5.689  -8.184  10.486  0.00  0.00    -0.166 F 
ATOM      2  F   UNL     1      -4.409  -8.762   8.833  0.00  0.00    -0.166 F 
ATOM      3  F   UNL     1      -5.778 -10.210   9.702  0.00  0.00    -0.166 F 
ATOM     33  C   UNL     1      -4.910  -9.206  10.023  0.00  0.00    +0.417 C 
ENDBRANCH  27  33
ENDBRANCH  11  22
ENDBRANCH   6  20
ENDBRANCH  16   6
TORSDOF 7
ENDMDL
MODEL 7
REMARK VINA RESULT:      -8.0      4.842     10.216
REMARK  Name = 11883403
REMARK  7 active torsions:
REMARK  status: ('A' for Active; 'I' for Inactive)
REMARK    1  A    between atoms: O_6  and  C_16
REMARK    2  A    between atoms: O_6  and  C_20
REMARK    3  A    between atoms: N_9  and  C_15
REMARK    4  A    between atoms: N_10  and  C_21
REMARK    5  A    between atoms: N_11  and  C_22
REMARK    6  A    between atoms: C_27  and  C_33
REMARK    7  A    between atoms: C_28  and  C_34
REMARK                            x       y       z     vdW  Elec       q    Type
REMARK                         _______ _______ _______ _____ _____    ______ ____
ROOT
ATOM      4  O   UNL     1      15.427   8.255  19.377  0.00  0.00    -0.368 OA
ATOM      5  O   UNL     1      14.670   7.160  22.139  0.00  0.00    -0.368 OA
ATOM     13  C   UNL     1      15.538   6.640  21.111  0.00  0.00    +0.173 C 
ATOM     14  C   UNL     1      14.895   6.982  19.780  0.00  0.00    +0.192 C 
ATOM     15  C   UNL     1      16.839   7.407  21.093  0.00  0.00    +0.131 C 
ATOM     16  C   UNL     1      13.432   7.075  20.139  0.00  0.00    +0.235 C 
ATOM     17  C   UNL     1      16.476   8.639  20.281  0.00  0.00    +0.185 C 
ATOM     18  C   UNL     1      13.481   7.678  21.525  0.00  0.00    +0.207 C 
ENDROOT
BRANCH  15   9
ATOM      7  O   UNL     1      19.311   6.569  22.271  0.00  0.00    -0.252 OA
ATOM      9  N   UNL     1      17.885   6.647  20.454  0.00  0.00    -0.292 N 
ATOM     10  N   UNL     1      19.892   5.550  20.238  0.00  0.00    -0.269 N 
ATOM     19  C   UNL     1      19.069   6.276  21.103  0.00  0.00    +0.304 C 
ATOM     35  H   UNL     1      17.729   6.310  19.509  0.00  0.00    +0.151 HD
ATOM     36  H   UNL     1      19.540   5.394  19.296  0.00  0.00    +0.156 HD
BRANCH  10  21
ATOM     21  C   UNL     1      21.166   4.999  20.511  0.00  0.00    +0.036 A 
ATOM     23  C   UNL     1      22.312   5.777  20.345  0.00  0.00    +0.042 A 
ATOM     24  C   UNL     1      21.276   3.679  20.945  0.00  0.00    +0.023 A 
ATOM     28  C   UNL     1      23.568   5.235  20.614  0.00  0.00    +0.054 A 
ATOM     29  C   UNL     1      22.533   3.136  21.215  0.00  0.00    +0.003 A 
ATOM     32  C   UNL     1      23.678   3.914  21.049  0.00  0.00    +0.019 A 
BRANCH  28  34
ATOM     12  N   UNL     1      25.695   6.679  20.306  0.00  0.00    -0.191 NA
ATOM     34  C   UNL     1      24.742   6.032  20.445  0.00  0.00    +0.099 C 
ENDBRANCH  28  34
ENDBRANCH  10  21
ENDBRANCH  15   9
BRANCH  16   6
ATOM      6  O   UNL     1      12.682   7.865  19.244  0.00  0.00    -0.442 OA
BRANCH   6  20
ATOM      8  O   UNL     1      10.705   8.765  19.961  0.00  0.00    -0.226 OA
ATOM     11  N   UNL     1      12.718   9.950  20.101  0.00  0.00    -0.251 N 
ATOM     20  C   UNL     1      11.913   8.870  19.793  0.00  0.00    +0.405 C 
ATOM     37  H   UNL     1      13.707   9.850  19.887  0.00  0.00    +0.158 HD
BRANCH  11  22
ATOM     22  C   UNL     1      12.337  11.184  20.678  0.00  0.00    +0.037 A 
ATOM     25  C   UNL     1      11.781  11.213  21.957  0.00  0.00    +0.035 A 
ATOM     26  C   UNL     1      12.515  12.369  19.967  0.00  0.00    +0.023 A 
ATOM     27  C   UNL     1      11.404  12.430  22.526  0.00  0.00    +0.057 A 
ATOM     30  C   UNL     1      12.138  13.587  20.535  0.00  0.00    +0.002 A 
ATOM     31  C   UNL     1      11.584  13.617  21.814  0.00  0.00    +0.012 A 
BRANCH  27  33
ATOM      1  F   UNL     1      10.406  11.238  24.345  0.00  0.00    -0.166 F 
ATOM      2  F   UNL     1      11.665  12.931  24.849  0.00  0.00    -0.166 F 
ATOM      3  F   UNL     1       9.705  13.262  23.966  0.00  0.00    -0.166 F 
ATOM     33  C   UNL     1      10.810  12.463  23.893  0.00  0.00    +0.417 C 
ENDBRANCH  27  33
ENDBRANCH  11  22
ENDBRANCH   6  20
ENDBRANCH  16   6
TORSDOF 7
ENDMDL
MODEL 8
REMARK VINA RESULT:      -8.0     19.218     22.029
REMARK  Name = 11883403
REMARK  7 active torsions:
REMARK  status: ('A' for Active; 'I' for Inactive)
REMARK    1  A    between atoms: O_6  and  C_16
REMARK    2  A    between atoms: O_6  and  C_20
REMARK    3  A    between atoms: N_9  and  C_15
REMARK    4  A    between atoms: N_10  and  C_21
REMARK    5  A    between atoms: N_11  and  C_22
REMARK    6  A    between atoms: C_27  and  C_33
REMARK    7  A    between atoms: C_28  and  C_34
REMARK                            x       y       z     vdW  Elec       q    Type
REMARK                         _______ _______ _______ _____ _____    ______ ____
ROOT
ATOM      4  O   UNL     1       4.867  11.122   4.500  0.00  0.00    -0.368 OA
ATOM      5  O   UNL     1       6.066  11.478   1.700  0.00  0.00    -0.368 OA
ATOM     13  C   UNL     1       5.031  10.602   2.192  0.00  0.00    +0.173 C 
ATOM     14  C   UNL     1       5.445  10.174   3.587  0.00  0.00    +0.192 C 
ATOM     15  C   UNL     1       3.755  11.379   2.414  0.00  0.00    +0.131 C 
ATOM     16  C   UNL     1       6.948  10.292   3.533  0.00  0.00    +0.235 C 
ATOM     17  C   UNL     1       3.991  12.003   3.779  0.00  0.00    +0.185 C 
ATOM     18  C   UNL     1       7.141  11.506   2.651  0.00  0.00    +0.207 C 
ENDROOT
BRANCH  15   9
ATOM      7  O   UNL     1       1.037  12.116   1.892  0.00  0.00    -0.252 OA
ATOM      9  N   UNL     1       2.607  10.506   2.428  0.00  0.00    -0.292 N 
ATOM     10  N   UNL     1       0.403   9.883   2.246  0.00  0.00    -0.269 N 
ATOM     19  C   UNL     1       1.305  10.947   2.160  0.00  0.00    +0.304 C 
ATOM     35  H   UNL     1       2.757   9.512   2.575  0.00  0.00    +0.151 HD
ATOM     36  H   UNL     1       0.792   8.973   2.481  0.00  0.00    +0.156 HD
BRANCH  10  21
ATOM     21  C   UNL     1      -0.997   9.914   2.046  0.00  0.00    +0.036 A 
ATOM     23  C   UNL     1      -1.519   9.853   0.754  0.00  0.00    +0.042 A 
ATOM     24  C   UNL     1      -1.856  10.007   3.140  0.00  0.00    +0.023 A 
ATOM     28  C   UNL     1      -2.899   9.884   0.556  0.00  0.00    +0.054 A 
ATOM     29  C   UNL     1      -3.237  10.038   2.944  0.00  0.00    +0.003 A 
ATOM     32  C   UNL     1      -3.758   9.976   1.651  0.00  0.00    +0.019 A 
BRANCH  28  34
ATOM     12  N   UNL     1      -3.866   9.769  -1.843  0.00  0.00    -0.191 NA
ATOM     34  C   UNL     1      -3.433   9.821  -0.768  0.00  0.00    +0.099 C 
ENDBRANCH  28  34
ENDBRANCH  10  21
ENDBRANCH  15   9
BRANCH  16   6
ATOM      6  O   UNL     1       7.546  10.457   4.799  0.00  0.00    -0.442 OA
BRANCH   6  20
ATOM      8  O   UNL     1       9.705   9.866   5.271  0.00  0.00    -0.226 OA
ATOM     11  N   UNL     1       7.963   8.302   5.318  0.00  0.00    -0.251 N 
ATOM     20  C   UNL     1       8.528   9.552   5.147  0.00  0.00    +0.405 C 
ATOM     37  H   UNL     1       6.960   8.237   5.170  0.00  0.00    +0.158 HD
BRANCH  11  22
ATOM     22  C   UNL     1       8.611   7.097   5.675  0.00  0.00    +0.037 A 
ATOM     25  C   UNL     1       8.744   6.747   7.019  0.00  0.00    +0.035 A 
ATOM     26  C   UNL     1       9.116   6.258   4.683  0.00  0.00    +0.023 A 
ATOM     27  C   UNL     1       9.383   5.558   7.371  0.00  0.00    +0.057 A 
ATOM     30  C   UNL     1       9.756   5.069   5.034  0.00  0.00    +0.002 A 
ATOM     31  C   UNL     1       9.888   4.719   6.377  0.00  0.00    +0.012 A 
BRANCH  27  33
ATOM      1  F   UNL     1      10.706   5.588   9.364  0.00  0.00    -0.166 F 
ATOM      2  F   UNL     1       8.554   5.711   9.608  0.00  0.00    -0.166 F 
ATOM      3  F   UNL     1       9.471   3.834   9.005  0.00  0.00    -0.166 F 
ATOM     33  C   UNL     1       9.526   5.184   8.806  0.00  0.00    +0.417 C 
ENDBRANCH  27  33
ENDBRANCH  11  22
ENDBRANCH   6  20
ENDBRANCH  16   6
TORSDOF 7
ENDMDL
MODEL 9
REMARK VINA RESULT:      -8.0     28.276     30.914
REMARK  Name = 11883403
REMARK  7 active torsions:
REMARK  status: ('A' for Active; 'I' for Inactive)
REMARK    1  A    between atoms: O_6  and  C_16
REMARK    2  A    between atoms: O_6  and  C_20
REMARK    3  A    between atoms: N_9  and  C_15
REMARK    4  A    between atoms: N_10  and  C_21
REMARK    5  A    between atoms: N_11  and  C_22
REMARK    6  A    between atoms: C_27  and  C_33
REMARK    7  A    between atoms: C_28  and  C_34
REMARK                            x       y       z     vdW  Elec       q    Type
REMARK                         _______ _______ _______ _____ _____    ______ ____
ROOT
ATOM      4  O   UNL     1     -11.131  -8.508  14.665  0.00  0.00    -0.368 OA
ATOM      5  O   UNL     1     -10.643  -7.430  17.494  0.00  0.00    -0.368 OA
ATOM     13  C   UNL     1     -10.456  -6.828  16.197  0.00  0.00    +0.173 C 
ATOM     14  C   UNL     1      -9.966  -7.924  15.271  0.00  0.00    +0.192 C 
ATOM     15  C   UNL     1     -11.791  -6.428  15.612  0.00  0.00    +0.131 C 
ATOM     16  C   UNL     1      -9.292  -8.880  16.225  0.00  0.00    +0.235 C 
ATOM     17  C   UNL     1     -12.289  -7.737  15.025  0.00  0.00    +0.185 C 
ATOM     18  C   UNL     1     -10.176  -8.786  17.449  0.00  0.00    +0.207 C 
ENDROOT
BRANCH  15   9
ATOM      7  O   UNL     1     -13.443  -6.060  13.301  0.00  0.00    -0.252 OA
ATOM      9  N   UNL     1     -11.634  -5.422  14.591  0.00  0.00    -0.292 N 
ATOM     10  N   UNL     1     -12.092  -4.245  12.672  0.00  0.00    -0.269 N 
ATOM     19  C   UNL     1     -12.489  -5.309  13.488  0.00  0.00    +0.304 C 
ATOM     35  H   UNL     1     -10.908  -4.721  14.711  0.00  0.00    +0.151 HD
ATOM     36  H   UNL     1     -11.275  -3.720  12.971  0.00  0.00    +0.156 HD
BRANCH  10  21
ATOM     21  C   UNL     1     -12.692  -3.806  11.468  0.00  0.00    +0.036 A 
ATOM     23  C   UNL     1     -13.973  -3.255  11.488  0.00  0.00    +0.042 A 
ATOM     24  C   UNL     1     -12.002  -3.922  10.262  0.00  0.00    +0.023 A 
ATOM     28  C   UNL     1     -14.565  -2.821  10.302  0.00  0.00    +0.054 A 
ATOM     29  C   UNL     1     -12.593  -3.488   9.075  0.00  0.00    +0.003 A 
ATOM     32  C   UNL     1     -13.874  -2.938   9.096  0.00  0.00    +0.019 A 
BRANCH  28  34
ATOM     12  N   UNL     1     -16.944  -1.800  10.337  0.00  0.00    -0.191 NA
ATOM     34  C   UNL     1     -15.878  -2.258  10.322  0.00  0.00    +0.099 C 
ENDBRANCH  28  34
ENDBRANCH  10  21
ENDBRANCH  15   9
BRANCH  16   6
ATOM      6  O   UNL     1      -9.206 -10.199  15.733  0.00  0.00    -0.442 OA
BRANCH   6  20
ATOM      8  O   UNL     1      -8.250 -12.168  16.396  0.00  0.00    -0.226 OA
ATOM     11  N   UNL     1      -7.038 -10.167  16.353  0.00  0.00    -0.251 N 
ATOM     20  C   UNL     1      -8.153 -10.966  16.189  0.00  0.00    +0.405 C 
ATOM     37  H   UNL     1      -7.152  -9.182  16.127  0.00  0.00    +0.158 HD
BRANCH  11  22
ATOM     22  C   UNL     1      -5.752 -10.549  16.800  0.00  0.00    +0.037 A 
ATOM     25  C   UNL     1      -4.654 -10.431  15.948  0.00  0.00    +0.035 A 
ATOM     26  C   UNL     1      -5.583 -11.043  18.092  0.00  0.00    +0.023 A 
ATOM     27  C   UNL     1      -3.385 -10.809  16.389  0.00  0.00    +0.057 A 
ATOM     30  C   UNL     1      -4.315 -11.422  18.534  0.00  0.00    +0.002 A 
ATOM     31  C   UNL     1      -3.216 -11.304  17.683  0.00  0.00    +0.012 A 
BRANCH  27  33
ATOM      1  F   UNL     1      -1.226  -9.871  15.963  0.00  0.00    -0.166 F 
ATOM      2  F   UNL     1      -1.593 -11.874  15.218  0.00  0.00    -0.166 F 
ATOM      3  F   UNL     1      -2.545 -10.169  14.259  0.00  0.00    -0.166 F 
ATOM     33  C   UNL     1      -2.211 -10.685  15.479  0.00  0.00    +0.417 C 
ENDBRANCH  27  33
ENDBRANCH  11  22
ENDBRANCH   6  20
ENDBRANCH  16   6
TORSDOF 7
ENDMDL
MODEL 10
REMARK VINA RESULT:      -8.0     28.212     30.489
REMARK  Name = 11883403
REMARK  7 active torsions:
REMARK  status: ('A' for Active; 'I' for Inactive)
REMARK    1  A    between atoms: O_6  and  C_16
REMARK    2  A    between atoms: O_6  and  C_20
REMARK    3  A    between atoms: N_9  and  C_15
REMARK    4  A    between atoms: N_10  and  C_21
REMARK    5  A    between atoms: N_11  and  C_22
REMARK    6  A    between atoms: C_27  and  C_33
REMARK    7  A    between atoms: C_28  and  C_34
REMARK                            x       y       z     vdW  Elec       q    Type
REMARK                         _______ _______ _______ _____ _____    ______ ____
ROOT
ATOM      4  O   UNL     1      -9.031  -9.657  15.321  0.00  0.00    -0.368 OA
ATOM      5  O   UNL     1      -9.842  -9.376  18.265  0.00  0.00    -0.368 OA
ATOM     13  C   UNL     1      -9.611  -8.388  17.239  0.00  0.00    +0.173 C 
ATOM     14  C   UNL     1      -8.457  -8.894  16.395  0.00  0.00    +0.192 C 
ATOM     15  C   UNL     1     -10.776  -8.355  16.278  0.00  0.00    +0.131 C 
ATOM     16  C   UNL     1      -7.704  -9.772  17.365  0.00  0.00    +0.235 C 
ATOM     17  C   UNL     1     -10.461  -9.515  15.350  0.00  0.00    +0.185 C 
ATOM     18  C   UNL     1      -8.823 -10.383  18.179  0.00  0.00    +0.207 C 
ENDROOT
BRANCH  15   9
ATOM      7  O   UNL     1     -12.875  -7.455  14.549  0.00  0.00    -0.252 OA
ATOM      9  N   UNL     1     -10.825  -7.106  15.560  0.00  0.00    -0.292 N 
ATOM     10  N   UNL     1     -11.663  -5.480  14.170  0.00  0.00    -0.269 N 
ATOM     19  C   UNL     1     -11.893  -6.739  14.730  0.00  0.00    +0.304 C 
ATOM     35  H   UNL     1     -10.081  -6.431  15.712  0.00  0.00    +0.151 HD
ATOM     36  H   UNL     1     -10.794  -5.018  14.424  0.00  0.00    +0.156 HD
BRANCH  10  21
ATOM     21  C   UNL     1     -12.498  -4.761  13.282  0.00  0.00    +0.036 A 
ATOM     23  C   UNL     1     -12.064  -4.485  11.985  0.00  0.00    +0.042 A 
ATOM     24  C   UNL     1     -13.755  -4.327  13.703  0.00  0.00    +0.023 A 
ATOM     28  C   UNL     1     -12.886  -3.777  11.110  0.00  0.00    +0.054 A 
ATOM     29  C   UNL     1     -14.578  -3.619  12.828  0.00  0.00    +0.003 A 
ATOM     32  C   UNL     1     -14.144  -3.344  11.531  0.00  0.00    +0.019 A 
BRANCH  28  34
ATOM     12  N   UNL     1     -12.080  -3.265   8.703  0.00  0.00    -0.191 NA
ATOM     34  C   UNL     1     -12.442  -3.495   9.781  0.00  0.00    +0.099 C 
ENDBRANCH  28  34
ENDBRANCH  10  21
ENDBRANCH  15   9
BRANCH  16   6
ATOM      6  O   UNL     1      -6.909 -10.753  16.736  0.00  0.00    -0.442 OA
BRANCH   6  20
ATOM      8  O   UNL     1      -4.920  -9.645  16.946  0.00  0.00    -0.226 OA
ATOM     11  N   UNL     1      -5.443 -10.878  15.028  0.00  0.00    -0.251 N 
ATOM     20  C   UNL     1      -5.667 -10.354  16.286  0.00  0.00    +0.405 C 
ATOM     37  H   UNL     1      -6.188 -11.450  14.638  0.00  0.00    +0.158 HD
BRANCH  11  22
ATOM     22  C   UNL     1      -4.301 -10.717  14.209  0.00  0.00    +0.037 A 
ATOM     25  C   UNL     1      -4.449 -10.353  12.870  0.00  0.00    +0.035 A 
ATOM     26  C   UNL     1      -3.029 -10.923  14.740  0.00  0.00    +0.023 A 
ATOM     27  C   UNL     1      -3.323 -10.194  12.062  0.00  0.00    +0.057 A 
ATOM     30  C   UNL     1      -1.902 -10.765  13.932  0.00  0.00    +0.002 A 
ATOM     31  C   UNL     1      -2.049 -10.400  12.595  0.00  0.00    +0.012 A 
BRANCH  27  33
ATOM      1  F   UNL     1      -3.602 -10.870   9.784  0.00  0.00    -0.166 F 
ATOM      2  F   UNL     1      -4.578  -9.031  10.393  0.00  0.00    -0.166 F 
ATOM      3  F   UNL     1      -2.416  -9.087  10.164  0.00  0.00    -0.166 F 
ATOM     33  C   UNL     1      -3.479  -9.805  10.632  0.00  0.00    +0.417 C 
ENDBRANCH  27  33
ENDBRANCH  11  22
ENDBRANCH   6  20
ENDBRANCH  16   6
TORSDOF 7
ENDMDL
