MODEL 1
REMARK VINA RESULT:      -5.8      0.000      0.000
REMARK  Name = 56775457
REMARK  9 active torsions:
REMARK  status: ('A' for Active; 'I' for Inactive)
REMARK    1  A    between atoms: N_4  and  C_6
REMARK    2  A    between atoms: N_4  and  C_11
REMARK    3  A    between atoms: C_6  and  C_9
REMARK    4  A    between atoms: C_9  and  C_10
REMARK    5  A    between atoms: C_11  and  C_15
REMARK    6  A    between atoms: C_12  and  C_14
REMARK    7  A    between atoms: C_12  and  C_16
REMARK    8  A    between atoms: C_12  and  C_17
REMARK    9  A    between atoms: C_12  and  C_18
REMARK                            x       y       z     vdW  Elec       q    Type
REMARK                         _______ _______ _______ _____ _____    ______ ____
ROOT
ATOM      2  O   UNL     1      -2.087 -14.059  14.160  0.00  0.00    -0.376 OA
ATOM      6  C   UNL     1      -2.125 -12.027  13.506  0.00  0.00    +0.072 C 
ATOM      7  C   UNL     1      -3.137 -13.109  13.865  0.00  0.00    +0.184 C 
ATOM      8  C   UNL     1      -1.078 -13.111  13.744  0.00  0.00    +0.184 C 
ENDROOT
BRANCH   6   4
ATOM      4  N   UNL     1      -2.209 -11.762  12.076  0.00  0.00    -0.302 NA
ATOM     24  H   UNL     1      -1.525 -12.256  11.504  0.00  0.00    +0.123 HD
BRANCH   4  11
ATOM     11  C   UNL     1      -2.114 -10.325  11.834  0.00  0.00    +0.117 C 
BRANCH  11  15
ATOM      1 CL   UNL     1      -7.240  -9.395  11.938  0.00  0.00    -0.084 Cl
ATOM     15  C   UNL     1      -3.340  -9.790  11.143  0.00  0.00    -0.032 A 
ATOM     19  C   UNL     1      -4.577  -9.835  11.786  0.00  0.00    +0.025 A 
ATOM     20  C   UNL     1      -3.239  -9.248   9.862  0.00  0.00    +0.005 A 
ATOM     21  C   UNL     1      -5.714  -9.338  11.147  0.00  0.00    +0.041 A 
ATOM     22  C   UNL     1      -4.374  -8.751   9.224  0.00  0.00    +0.002 A 
ATOM     23  C   UNL     1      -5.612  -8.796   9.865  0.00  0.00    +0.020 A 
ENDBRANCH  11  15
ENDBRANCH   4  11
ENDBRANCH   6   4
BRANCH   6   9
ATOM      9  C   UNL     1      -2.076 -10.747  14.349  0.00  0.00    +0.085 C 
BRANCH   9  10
ATOM      3  O   UNL     1      -3.817 -11.025  17.454  0.00  0.00    -0.359 OA
ATOM      5  N   UNL     1      -2.659 -11.063  16.688  0.00  0.00    -0.083 NA
ATOM     10  C   UNL     1      -3.060 -10.792  15.442  0.00  0.00    +0.086 A 
ATOM     13  C   UNL     1      -4.447 -10.577  15.363  0.00  0.00    +0.071 A 
ATOM     14  C   UNL     1      -4.875 -10.735  16.655  0.00  0.00    +0.143 A 
BRANCH  14  12
ATOM     12  C   UNL     1      -6.250 -10.651  17.338  0.00  0.00    +0.023 C 
ATOM     16  C   UNL     1      -7.100  -9.441  16.884  0.00  0.00    +0.019 C 
ATOM     17  C   UNL     1      -6.066 -10.532  18.866  0.00  0.00    +0.019 C 
ATOM     18  C   UNL     1      -7.066 -11.924  17.022  0.00  0.00    +0.019 C 
ENDBRANCH  14  12
ENDBRANCH   9  10
ENDBRANCH   6   9
TORSDOF 6
ENDMDL
MODEL 2
REMARK VINA RESULT:      -5.8     22.847     25.616
REMARK  Name = 56775457
REMARK  9 active torsions:
REMARK  status: ('A' for Active; 'I' for Inactive)
REMARK    1  A    between atoms: N_4  and  C_6
REMARK    2  A    between atoms: N_4  and  C_11
REMARK    3  A    between atoms: C_6  and  C_9
REMARK    4  A    between atoms: C_9  and  C_10
REMARK    5  A    between atoms: C_11  and  C_15
REMARK    6  A    between atoms: C_12  and  C_14
REMARK    7  A    between atoms: C_12  and  C_16
REMARK    8  A    between atoms: C_12  and  C_17
REMARK    9  A    between atoms: C_12  and  C_18
REMARK                            x       y       z     vdW  Elec       q    Type
REMARK                         _______ _______ _______ _____ _____    ______ ____
ROOT
ATOM      2  O   UNL     1      12.962   7.753   2.650  0.00  0.00    -0.376 OA
ATOM      6  C   UNL     1      11.614   6.105   2.806  0.00  0.00    +0.072 C 
ATOM      7  C   UNL     1      11.945   7.191   1.788  0.00  0.00    +0.184 C 
ATOM      8  C   UNL     1      12.633   6.810   3.695  0.00  0.00    +0.184 C 
ENDROOT
BRANCH   6   4
ATOM      4  N   UNL     1      10.280   6.349   3.335  0.00  0.00    -0.302 NA
ATOM     24  H   UNL     1      10.145   7.266   3.761  0.00  0.00    +0.123 HD
BRANCH   4  11
ATOM     11  C   UNL     1       9.927   5.302   4.290  0.00  0.00    +0.117 C 
BRANCH  11  15
ATOM      1 CL   UNL     1       9.629   4.698   9.457  0.00  0.00    -0.084 Cl
ATOM     15  C   UNL     1       9.553   5.869   5.633  0.00  0.00    -0.032 A 
ATOM     19  C   UNL     1       9.743   5.110   6.788  0.00  0.00    +0.025 A 
ATOM     20  C   UNL     1       9.019   7.154   5.724  0.00  0.00    +0.005 A 
ATOM     21  C   UNL     1       9.398   5.636   8.033  0.00  0.00    +0.041 A 
ATOM     22  C   UNL     1       8.674   7.680   6.968  0.00  0.00    +0.002 A 
ATOM     23  C   UNL     1       8.863   6.921   8.123  0.00  0.00    +0.020 A 
ENDBRANCH  11  15
ENDBRANCH   4  11
ENDBRANCH   6   4
BRANCH   6   9
ATOM      9  C   UNL     1      11.847   4.637   2.427  0.00  0.00    +0.085 C 
BRANCH   9  10
ATOM      3  O   UNL     1      10.072   4.121  -0.628  0.00  0.00    -0.359 OA
ATOM      5  N   UNL     1      10.121   4.411   0.730  0.00  0.00    -0.083 NA
ATOM     10  C   UNL     1      11.420   4.370   1.045  0.00  0.00    +0.086 A 
ATOM     13  C   UNL     1      12.228   4.060  -0.063  0.00  0.00    +0.071 A 
ATOM     14  C   UNL     1      11.332   3.913  -1.089  0.00  0.00    +0.143 A 
BRANCH  14  12
ATOM     12  C   UNL     1      11.471   3.576  -2.583  0.00  0.00    +0.023 C 
ATOM     16  C   UNL     1      12.106   2.193  -2.854  0.00  0.00    +0.019 C 
ATOM     17  C   UNL     1      12.361   4.631  -3.273  0.00  0.00    +0.019 C 
ATOM     18  C   UNL     1      10.076   3.575  -3.247  0.00  0.00    +0.019 C 
ENDBRANCH  14  12
ENDBRANCH   9  10
ENDBRANCH   6   9
TORSDOF 6
ENDMDL
MODEL 3
REMARK VINA RESULT:      -5.7      2.079      6.137
REMARK  Name = 56775457
REMARK  9 active torsions:
REMARK  status: ('A' for Active; 'I' for Inactive)
REMARK    1  A    between atoms: N_4  and  C_6
REMARK    2  A    between atoms: N_4  and  C_11
REMARK    3  A    between atoms: C_6  and  C_9
REMARK    4  A    between atoms: C_9  and  C_10
REMARK    5  A    between atoms: C_11  and  C_15
REMARK    6  A    between atoms: C_12  and  C_14
REMARK    7  A    between atoms: C_12  and  C_16
REMARK    8  A    between atoms: C_12  and  C_17
REMARK    9  A    between atoms: C_12  and  C_18
REMARK                            x       y       z     vdW  Elec       q    Type
REMARK                         _______ _______ _______ _____ _____    ______ ____
ROOT
ATOM      2  O   UNL     1      -2.059 -13.853  13.004  0.00  0.00    -0.376 OA
ATOM      6  C   UNL     1      -2.557 -12.147  14.188  0.00  0.00    +0.072 C 
ATOM      7  C   UNL     1      -1.321 -12.992  13.902  0.00  0.00    +0.184 C 
ATOM      8  C   UNL     1      -3.288 -13.152  13.303  0.00  0.00    +0.184 C 
ENDROOT
BRANCH   6   4
ATOM      4  N   UNL     1      -2.960 -12.358  15.571  0.00  0.00    -0.302 NA
ATOM     24  H   UNL     1      -3.850 -12.842  15.692  0.00  0.00    +0.123 HD
BRANCH   4  11
ATOM     11  C   UNL     1      -2.989 -11.081  16.278  0.00  0.00    +0.117 C 
BRANCH  11  15
ATOM      1 CL   UNL     1      -7.745  -9.231  17.334  0.00  0.00    -0.084 Cl
ATOM     15  C   UNL     1      -4.155 -10.991  17.227  0.00  0.00    -0.032 A 
ATOM     19  C   UNL     1      -5.278 -10.240  16.881  0.00  0.00    +0.025 A 
ATOM     20  C   UNL     1      -4.111 -11.658  18.451  0.00  0.00    +0.005 A 
ATOM     21  C   UNL     1      -6.359 -10.157  17.760  0.00  0.00    +0.041 A 
ATOM     22  C   UNL     1      -5.191 -11.575  19.329  0.00  0.00    +0.002 A 
ATOM     23  C   UNL     1      -6.315 -10.825  18.984  0.00  0.00    +0.020 A 
ENDBRANCH  11  15
ENDBRANCH   4  11
ENDBRANCH   6   4
BRANCH   6   9
ATOM      9  C   UNL     1      -2.553 -10.667  13.786  0.00  0.00    +0.085 C 
BRANCH   9  10
ATOM      3  O   UNL     1      -5.642  -9.995  12.125  0.00  0.00    -0.359 OA
ATOM      5  N   UNL     1      -4.895 -10.279  13.262  0.00  0.00    -0.083 NA
ATOM     10  C   UNL     1      -3.634 -10.372  12.831  0.00  0.00    +0.086 A 
ATOM     13  C   UNL     1      -3.525 -10.159  11.446  0.00  0.00    +0.071 A 
ATOM     14  C   UNL     1      -4.817  -9.927  11.050  0.00  0.00    +0.143 A 
BRANCH  14  12
ATOM     12  C   UNL     1      -5.475  -9.620   9.695  0.00  0.00    +0.023 C 
ATOM     16  C   UNL     1      -6.898 -10.206   9.545  0.00  0.00    +0.019 C 
ATOM     17  C   UNL     1      -4.617 -10.207   8.554  0.00  0.00    +0.019 C 
ATOM     18  C   UNL     1      -5.591  -8.091   9.508  0.00  0.00    +0.019 C 
ENDBRANCH  14  12
ENDBRANCH   9  10
ENDBRANCH   6   9
TORSDOF 6
ENDMDL
MODEL 4
REMARK VINA RESULT:      -5.7     23.697     25.724
REMARK  Name = 56775457
REMARK  9 active torsions:
REMARK  status: ('A' for Active; 'I' for Inactive)
REMARK    1  A    between atoms: N_4  and  C_6
REMARK    2  A    between atoms: N_4  and  C_11
REMARK    3  A    between atoms: C_6  and  C_9
REMARK    4  A    between atoms: C_9  and  C_10
REMARK    5  A    between atoms: C_11  and  C_15
REMARK    6  A    between atoms: C_12  and  C_14
REMARK    7  A    between atoms: C_12  and  C_16
REMARK    8  A    between atoms: C_12  and  C_17
REMARK    9  A    between atoms: C_12  and  C_18
REMARK                            x       y       z     vdW  Elec       q    Type
REMARK                         _______ _______ _______ _____ _____    ______ ____
ROOT
ATOM      2  O   UNL     1      16.661   9.063   4.667  0.00  0.00    -0.376 OA
ATOM      6  C   UNL     1      14.791   8.246   5.296  0.00  0.00    +0.072 C 
ATOM      7  C   UNL     1      16.265   8.079   5.651  0.00  0.00    +0.184 C 
ATOM      8  C   UNL     1      15.294   9.200   4.218  0.00  0.00    +0.184 C 
ENDROOT
BRANCH   6   4
ATOM      4  N   UNL     1      14.321   7.024   4.660  0.00  0.00    -0.302 NA
ATOM     24  H   UNL     1      15.055   6.398   4.331  0.00  0.00    +0.123 HD
BRANCH   4  11
ATOM     11  C   UNL     1      13.421   7.355   3.559  0.00  0.00    +0.117 C 
BRANCH  11  15
ATOM      1 CL   UNL     1      13.157   3.202   0.422  0.00  0.00    -0.084 Cl
ATOM     15  C   UNL     1      12.656   6.150   3.078  0.00  0.00    -0.032 A 
ATOM     19  C   UNL     1      13.198   5.330   2.088  0.00  0.00    +0.025 A 
ATOM     20  C   UNL     1      11.406   5.854   3.622  0.00  0.00    +0.005 A 
ATOM     21  C   UNL     1      12.490   4.213   1.643  0.00  0.00    +0.041 A 
ATOM     22  C   UNL     1      10.699   4.738   3.177  0.00  0.00    +0.002 A 
ATOM     23  C   UNL     1      11.240   3.917   2.188  0.00  0.00    +0.020 A 
ENDBRANCH  11  15
ENDBRANCH   4  11
ENDBRANCH   6   4
BRANCH   6   9
ATOM      9  C   UNL     1      13.825   8.773   6.365  0.00  0.00    +0.085 C 
BRANCH   9  10
ATOM      3  O   UNL     1      12.321   5.828   7.713  0.00  0.00    -0.359 OA
ATOM      5  N   UNL     1      13.427   6.602   7.385  0.00  0.00    -0.083 NA
ATOM     10  C   UNL     1      12.922   7.711   6.836  0.00  0.00    +0.086 A 
ATOM     13  C   UNL     1      11.517   7.693   6.792  0.00  0.00    +0.071 A 
ATOM     14  C   UNL     1      11.190   6.487   7.355  0.00  0.00    +0.143 A 
BRANCH  14  12
ATOM     12  C   UNL     1       9.858   5.775   7.645  0.00  0.00    +0.023 C 
ATOM     16  C   UNL     1       9.743   5.229   9.087  0.00  0.00    +0.019 C 
ATOM     17  C   UNL     1       9.692   4.575   6.689  0.00  0.00    +0.019 C 
ATOM     18  C   UNL     1       8.686   6.758   7.435  0.00  0.00    +0.019 C 
ENDBRANCH  14  12
ENDBRANCH   9  10
ENDBRANCH   6   9
TORSDOF 6
ENDMDL
MODEL 5
REMARK VINA RESULT:      -5.6      1.724      2.032
REMARK  Name = 56775457
REMARK  9 active torsions:
REMARK  status: ('A' for Active; 'I' for Inactive)
REMARK    1  A    between atoms: N_4  and  C_6
REMARK    2  A    between atoms: N_4  and  C_11
REMARK    3  A    between atoms: C_6  and  C_9
REMARK    4  A    between atoms: C_9  and  C_10
REMARK    5  A    between atoms: C_11  and  C_15
REMARK    6  A    between atoms: C_12  and  C_14
REMARK    7  A    between atoms: C_12  and  C_16
REMARK    8  A    between atoms: C_12  and  C_17
REMARK    9  A    between atoms: C_12  and  C_18
REMARK                            x       y       z     vdW  Elec       q    Type
REMARK                         _______ _______ _______ _____ _____    ______ ____
ROOT
ATOM      2  O   UNL     1      -2.023 -14.735  14.288  0.00  0.00    -0.376 OA
ATOM      6  C   UNL     1      -2.577 -12.730  13.808  0.00  0.00    +0.072 C 
ATOM      7  C   UNL     1      -3.248 -13.973  14.384  0.00  0.00    +0.184 C 
ATOM      8  C   UNL     1      -1.352 -13.624  13.651  0.00  0.00    +0.184 C 
ENDROOT
BRANCH   6   4
ATOM      4  N   UNL     1      -3.136 -12.463  12.491  0.00  0.00    -0.302 NA
ATOM     24  H   UNL     1      -3.112 -13.251  11.844  0.00  0.00    +0.123 HD
BRANCH   4  11
ATOM     11  C   UNL     1      -2.467 -11.311  11.894  0.00  0.00    +0.117 C 
BRANCH  11  15
ATOM      1 CL   UNL     1      -5.649 -12.155   7.854  0.00  0.00    -0.084 Cl
ATOM     15  C   UNL     1      -3.236 -10.759  10.723  0.00  0.00    -0.032 A 
ATOM     19  C   UNL     1      -3.997 -11.613   9.925  0.00  0.00    +0.025 A 
ATOM     20  C   UNL     1      -3.189  -9.395  10.437  0.00  0.00    +0.005 A 
ATOM     21  C   UNL     1      -4.711 -11.102   8.840  0.00  0.00    +0.041 A 
ATOM     22  C   UNL     1      -3.902  -8.884   9.354  0.00  0.00    +0.002 A 
ATOM     23  C   UNL     1      -4.663  -9.737   8.555  0.00  0.00    +0.020 A 
ENDBRANCH  11  15
ENDBRANCH   4  11
ENDBRANCH   6   4
BRANCH   6   9
ATOM      9  C   UNL     1      -2.473 -11.472  14.679  0.00  0.00    +0.085 C 
BRANCH   9  10
ATOM      3  O   UNL     1      -5.804 -10.382  15.362  0.00  0.00    -0.359 OA
ATOM      5  N   UNL     1      -4.727 -10.576  14.507  0.00  0.00    -0.083 NA
ATOM     10  C   UNL     1      -3.776 -11.124  15.269  0.00  0.00    +0.086 A 
ATOM     13  C   UNL     1      -4.193 -11.298  16.601  0.00  0.00    +0.071 A 
ATOM     14  C   UNL     1      -5.475 -10.815  16.605  0.00  0.00    +0.143 A 
BRANCH  14  12
ATOM     12  C   UNL     1      -6.556 -10.676  17.690  0.00  0.00    +0.023 C 
ATOM     16  C   UNL     1      -5.989 -10.511  19.119  0.00  0.00    +0.019 C 
ATOM     17  C   UNL     1      -7.450 -11.934  17.697  0.00  0.00    +0.019 C 
ATOM     18  C   UNL     1      -7.428  -9.434  17.400  0.00  0.00    +0.019 C 
ENDBRANCH  14  12
ENDBRANCH   9  10
ENDBRANCH   6   9
TORSDOF 6
ENDMDL
MODEL 6
REMARK VINA RESULT:      -5.6     22.808     25.365
REMARK  Name = 56775457
REMARK  9 active torsions:
REMARK  status: ('A' for Active; 'I' for Inactive)
REMARK    1  A    between atoms: N_4  and  C_6
REMARK    2  A    between atoms: N_4  and  C_11
REMARK    3  A    between atoms: C_6  and  C_9
REMARK    4  A    between atoms: C_9  and  C_10
REMARK    5  A    between atoms: C_11  and  C_15
REMARK    6  A    between atoms: C_12  and  C_14
REMARK    7  A    between atoms: C_12  and  C_16
REMARK    8  A    between atoms: C_12  and  C_17
REMARK    9  A    between atoms: C_12  and  C_18
REMARK                            x       y       z     vdW  Elec       q    Type
REMARK                         _______ _______ _______ _____ _____    ______ ____
ROOT
ATOM      2  O   UNL     1       9.359   5.243   9.239  0.00  0.00    -0.376 OA
ATOM      6  C   UNL     1       9.887   5.710   7.224  0.00  0.00    +0.072 C 
ATOM      7  C   UNL     1       9.793   4.465   8.100  0.00  0.00    +0.184 C 
ATOM      8  C   UNL     1       9.517   6.471   8.493  0.00  0.00    +0.184 C 
ENDROOT
BRANCH   6   4
ATOM      4  N   UNL     1      11.287   5.962   6.916  0.00  0.00    -0.302 NA
ATOM     24  H   UNL     1      11.955   5.469   7.507  0.00  0.00    +0.123 HD
BRANCH   4  11
ATOM     11  C   UNL     1      11.552   7.397   6.958  0.00  0.00    +0.117 C 
BRANCH  11  15
ATOM      1 CL   UNL     1      15.094   6.953   3.161  0.00  0.00    -0.084 Cl
ATOM     15  C   UNL     1      12.115   7.903   5.656  0.00  0.00    -0.032 A 
ATOM     19  C   UNL     1      13.215   7.268   5.079  0.00  0.00    +0.025 A 
ATOM     20  C   UNL     1      11.537   9.004   5.026  0.00  0.00    +0.005 A 
ATOM     21  C   UNL     1      13.737   7.735   3.872  0.00  0.00    +0.041 A 
ATOM     22  C   UNL     1      12.057   9.471   3.820  0.00  0.00    +0.002 A 
ATOM     23  C   UNL     1      13.157   8.837   3.243  0.00  0.00    +0.020 A 
ENDBRANCH  11  15
ENDBRANCH   4  11
ENDBRANCH   6   4
BRANCH   6   9
ATOM      9  C   UNL     1       8.975   5.824   5.996  0.00  0.00    +0.085 C 
BRANCH   9  10
ATOM      3  O   UNL     1      10.916   4.302   3.413  0.00  0.00    -0.359 OA
ATOM      5  N   UNL     1      10.364   4.317   4.688  0.00  0.00    -0.083 NA
ATOM     10  C   UNL     1       9.697   5.473   4.763  0.00  0.00    +0.086 A 
ATOM     13  C   UNL     1       9.792   6.221   3.577  0.00  0.00    +0.071 A 
ATOM     14  C   UNL     1      10.569   5.441   2.761  0.00  0.00    +0.143 A 
BRANCH  14  12
ATOM     12  C   UNL     1      11.096   5.599   1.325  0.00  0.00    +0.023 C 
ATOM     16  C   UNL     1      10.373   4.703   0.293  0.00  0.00    +0.019 C 
ATOM     17  C   UNL     1      12.595   5.231   1.278  0.00  0.00    +0.019 C 
ATOM     18  C   UNL     1      10.917   7.062   0.863  0.00  0.00    +0.019 C 
ENDBRANCH  14  12
ENDBRANCH   9  10
ENDBRANCH   6   9
TORSDOF 6
ENDMDL
MODEL 7
REMARK VINA RESULT:      -5.5     15.726     18.521
REMARK  Name = 56775457
REMARK  9 active torsions:
REMARK  status: ('A' for Active; 'I' for Inactive)
REMARK    1  A    between atoms: N_4  and  C_6
REMARK    2  A    between atoms: N_4  and  C_11
REMARK    3  A    between atoms: C_6  and  C_9
REMARK    4  A    between atoms: C_9  and  C_10
REMARK    5  A    between atoms: C_11  and  C_15
REMARK    6  A    between atoms: C_12  and  C_14
REMARK    7  A    between atoms: C_12  and  C_16
REMARK    8  A    between atoms: C_12  and  C_17
REMARK    9  A    between atoms: C_12  and  C_18
REMARK                            x       y       z     vdW  Elec       q    Type
REMARK                         _______ _______ _______ _____ _____    ______ ____
ROOT
ATOM      2  O   UNL     1       2.272 -10.495  -5.734  0.00  0.00    -0.376 OA
ATOM      6  C   UNL     1       0.901 -12.052  -5.232  0.00  0.00    +0.072 C 
ATOM      7  C   UNL     1       1.486 -11.438  -6.499  0.00  0.00    +0.184 C 
ATOM      8  C   UNL     1       1.684 -10.968  -4.501  0.00  0.00    +0.184 C 
ENDROOT
BRANCH   6   4
ATOM      4  N   UNL     1      -0.518 -11.731  -5.168  0.00  0.00    -0.302 NA
ATOM     24  H   UNL     1      -0.853 -11.435  -4.251  0.00  0.00    +0.123 HD
BRANCH   4  11
ATOM     11  C   UNL     1      -1.304 -12.867  -5.640  0.00  0.00    +0.117 C 
BRANCH  11  15
ATOM      1 CL   UNL     1      -4.520 -14.717  -1.979  0.00  0.00    -0.084 Cl
ATOM     15  C   UNL     1      -2.679 -12.893  -5.026  0.00  0.00    -0.032 A 
ATOM     19  C   UNL     1      -2.932 -13.699  -3.917  0.00  0.00    +0.025 A 
ATOM     20  C   UNL     1      -3.698 -12.110  -5.567  0.00  0.00    +0.005 A 
ATOM     21  C   UNL     1      -4.206 -13.722  -3.347  0.00  0.00    +0.041 A 
ATOM     22  C   UNL     1      -4.971 -12.132  -4.998  0.00  0.00    +0.002 A 
ATOM     23  C   UNL     1      -5.225 -12.938  -3.888  0.00  0.00    +0.020 A 
ENDBRANCH  11  15
ENDBRANCH   4  11
ENDBRANCH   6   4
BRANCH   6   9
ATOM      9  C   UNL     1       1.195 -13.524  -4.916  0.00  0.00    +0.085 C 
BRANCH   9  10
ATOM      3  O   UNL     1       1.086 -13.761  -1.354  0.00  0.00    -0.359 OA
ATOM      5  N   UNL     1       0.503 -13.486  -2.585  0.00  0.00    -0.083 NA
ATOM     10  C   UNL     1       1.468 -13.716  -3.482  0.00  0.00    +0.086 A 
ATOM     13  C   UNL     1       2.668 -14.133  -2.881  0.00  0.00    +0.071 A 
ATOM     14  C   UNL     1       2.375 -14.144  -1.543  0.00  0.00    +0.143 A 
BRANCH  14  12
ATOM     12  C   UNL     1       3.181 -14.490  -0.280  0.00  0.00    +0.023 C 
ATOM     16  C   UNL     1       3.247 -16.004   0.024  0.00  0.00    +0.019 C 
ATOM     17  C   UNL     1       2.542 -13.806   0.948  0.00  0.00    +0.019 C 
ATOM     18  C   UNL     1       4.635 -13.993  -0.439  0.00  0.00    +0.019 C 
ENDBRANCH  14  12
ENDBRANCH   9  10
ENDBRANCH   6   9
TORSDOF 6
ENDMDL
MODEL 8
REMARK VINA RESULT:      -5.5      2.624      6.551
REMARK  Name = 56775457
REMARK  9 active torsions:
REMARK  status: ('A' for Active; 'I' for Inactive)
REMARK    1  A    between atoms: N_4  and  C_6
REMARK    2  A    between atoms: N_4  and  C_11
REMARK    3  A    between atoms: C_6  and  C_9
REMARK    4  A    between atoms: C_9  and  C_10
REMARK    5  A    between atoms: C_11  and  C_15
REMARK    6  A    between atoms: C_12  and  C_14
REMARK    7  A    between atoms: C_12  and  C_16
REMARK    8  A    between atoms: C_12  and  C_17
REMARK    9  A    between atoms: C_12  and  C_18
REMARK                            x       y       z     vdW  Elec       q    Type
REMARK                         _______ _______ _______ _____ _____    ______ ____
ROOT
ATOM      2  O   UNL     1      -4.592 -13.448  18.224  0.00  0.00    -0.376 OA
ATOM      6  C   UNL     1      -5.288 -11.556  17.523  0.00  0.00    +0.072 C 
ATOM      7  C   UNL     1      -5.000 -12.217  18.866  0.00  0.00    +0.184 C 
ATOM      8  C   UNL     1      -4.934 -12.913  16.926  0.00  0.00    +0.184 C 
ENDROOT
BRANCH   6   4
ATOM      4  N   UNL     1      -6.724 -11.349  17.401  0.00  0.00    -0.302 NA
ATOM     24  H   UNL     1      -7.180 -11.898  16.672  0.00  0.00    +0.123 HD
BRANCH   4  11
ATOM     11  C   UNL     1      -7.004  -9.930  17.200  0.00  0.00    +0.117 C 
BRANCH  11  15
ATOM      1 CL   UNL     1     -11.017  -6.660  16.600  0.00  0.00    -0.084 Cl
ATOM     15  C   UNL     1      -8.447  -9.597  17.474  0.00  0.00    -0.032 A 
ATOM     19  C   UNL     1      -8.999  -8.420  16.969  0.00  0.00    +0.025 A 
ATOM     20  C   UNL     1      -9.232 -10.466  18.232  0.00  0.00    +0.005 A 
ATOM     21  C   UNL     1     -10.336  -8.112  17.222  0.00  0.00    +0.041 A 
ATOM     22  C   UNL     1     -10.568 -10.159  18.484  0.00  0.00    +0.002 A 
ATOM     23  C   UNL     1     -11.121  -8.982  17.979  0.00  0.00    +0.020 A 
ENDBRANCH  11  15
ENDBRANCH   4  11
ENDBRANCH   6   4
BRANCH   6   9
ATOM      9  C   UNL     1      -4.470 -10.325  17.110  0.00  0.00    +0.085 C 
BRANCH   9  10
ATOM      3  O   UNL     1      -2.190 -10.938  14.431  0.00  0.00    -0.359 OA
ATOM      5  N   UNL     1      -2.488 -10.784  15.780  0.00  0.00    -0.083 NA
ATOM     10  C   UNL     1      -3.802 -10.540  15.817  0.00  0.00    +0.086 A 
ATOM     13  C   UNL     1      -4.379 -10.529  14.536  0.00  0.00    +0.071 A 
ATOM     14  C   UNL     1      -3.323 -10.784  13.700  0.00  0.00    +0.143 A 
BRANCH  14  12
ATOM     12  C   UNL     1      -3.182 -10.921  12.176  0.00  0.00    +0.023 C 
ATOM     16  C   UNL     1      -4.368 -10.325  11.382  0.00  0.00    +0.019 C 
ATOM     17  C   UNL     1      -3.083 -12.414  11.795  0.00  0.00    +0.019 C 
ATOM     18  C   UNL     1      -1.905 -10.190  11.704  0.00  0.00    +0.019 C 
ENDBRANCH  14  12
ENDBRANCH   9  10
ENDBRANCH   6   9
TORSDOF 6
ENDMDL
MODEL 9
REMARK VINA RESULT:      -5.4      2.771      6.342
REMARK  Name = 56775457
REMARK  9 active torsions:
REMARK  status: ('A' for Active; 'I' for Inactive)
REMARK    1  A    between atoms: N_4  and  C_6
REMARK    2  A    between atoms: N_4  and  C_11
REMARK    3  A    between atoms: C_6  and  C_9
REMARK    4  A    between atoms: C_9  and  C_10
REMARK    5  A    between atoms: C_11  and  C_15
REMARK    6  A    between atoms: C_12  and  C_14
REMARK    7  A    between atoms: C_12  and  C_16
REMARK    8  A    between atoms: C_12  and  C_17
REMARK    9  A    between atoms: C_12  and  C_18
REMARK                            x       y       z     vdW  Elec       q    Type
REMARK                         _______ _______ _______ _____ _____    ______ ____
ROOT
ATOM      2  O   UNL     1      -5.611 -13.099  17.983  0.00  0.00    -0.376 OA
ATOM      6  C   UNL     1      -6.074 -11.201  17.123  0.00  0.00    +0.072 C 
ATOM      7  C   UNL     1      -5.862 -11.779  18.518  0.00  0.00    +0.184 C 
ATOM      8  C   UNL     1      -5.892 -12.637  16.643  0.00  0.00    +0.184 C 
ENDROOT
BRANCH   6   4
ATOM      4  N   UNL     1      -7.475 -10.831  16.976  0.00  0.00    -0.302 NA
ATOM     24  H   UNL     1      -7.885 -11.042  16.067  0.00  0.00    +0.123 HD
BRANCH   4  11
ATOM     11  C   UNL     1      -7.646  -9.414  17.282  0.00  0.00    +0.117 C 
BRANCH  11  15
ATOM      1 CL   UNL     1     -10.812  -9.123  13.152  0.00  0.00    -0.084 Cl
ATOM     15  C   UNL     1      -8.892  -8.850  16.651  0.00  0.00    -0.032 A 
ATOM     19  C   UNL     1      -9.235  -9.206  15.347  0.00  0.00    +0.025 A 
ATOM     20  C   UNL     1      -9.702  -7.972  17.370  0.00  0.00    +0.005 A 
ATOM     21  C   UNL     1     -10.389  -8.685  14.761  0.00  0.00    +0.041 A 
ATOM     22  C   UNL     1     -10.856  -7.451  16.785  0.00  0.00    +0.002 A 
ATOM     23  C   UNL     1     -11.200  -7.807  15.481  0.00  0.00    +0.020 A 
ENDBRANCH  11  15
ENDBRANCH   4  11
ENDBRANCH   6   4
BRANCH   6   9
ATOM      9  C   UNL     1      -5.114 -10.119  16.613  0.00  0.00    +0.085 C 
BRANCH   9  10
ATOM      3  O   UNL     1      -5.273 -10.182  13.046  0.00  0.00    -0.359 OA
ATOM      5  N   UNL     1      -5.826  -9.931  14.296  0.00  0.00    -0.083 NA
ATOM     10  C   UNL     1      -4.870 -10.263  15.169  0.00  0.00    +0.086 A 
ATOM     13  C   UNL     1      -3.704 -10.725  14.534  0.00  0.00    +0.071 A 
ATOM     14  C   UNL     1      -4.010 -10.654  13.200  0.00  0.00    +0.143 A 
BRANCH  14  12
ATOM     12  C   UNL     1      -3.239 -10.989  11.912  0.00  0.00    +0.023 C 
ATOM     16  C   UNL     1      -2.977 -12.500  11.716  0.00  0.00    +0.019 C 
ATOM     17  C   UNL     1      -1.864 -10.287  11.931  0.00  0.00    +0.019 C 
ATOM     18  C   UNL     1      -4.041 -10.503  10.685  0.00  0.00    +0.019 C 
ENDBRANCH  14  12
ENDBRANCH   9  10
ENDBRANCH   6   9
TORSDOF 6
ENDMDL
MODEL 10
REMARK VINA RESULT:      -5.4     29.380     30.994
REMARK  Name = 56775457
REMARK  9 active torsions:
REMARK  status: ('A' for Active; 'I' for Inactive)
REMARK    1  A    between atoms: N_4  and  C_6
REMARK    2  A    between atoms: N_4  and  C_11
REMARK    3  A    between atoms: C_6  and  C_9
REMARK    4  A    between atoms: C_9  and  C_10
REMARK    5  A    between atoms: C_11  and  C_15
REMARK    6  A    between atoms: C_12  and  C_14
REMARK    7  A    between atoms: C_12  and  C_16
REMARK    8  A    between atoms: C_12  and  C_17
REMARK    9  A    between atoms: C_12  and  C_18
REMARK                            x       y       z     vdW  Elec       q    Type
REMARK                         _______ _______ _______ _____ _____    ______ ____
ROOT
ATOM      2  O   UNL     1      22.878   7.966  20.866  0.00  0.00    -0.376 OA
ATOM      6  C   UNL     1      21.548   6.301  21.001  0.00  0.00    +0.072 C 
ATOM      7  C   UNL     1      22.869   6.735  21.626  0.00  0.00    +0.184 C 
ATOM      8  C   UNL     1      21.675   7.571  20.167  0.00  0.00    +0.184 C 
ENDROOT
BRANCH   6   4
ATOM      4  N   UNL     1      21.790   5.150  20.143  0.00  0.00    -0.302 NA
ATOM     24  H   UNL     1      21.158   5.063  19.348  0.00  0.00    +0.123 HD
BRANCH   4  11
ATOM     11  C   UNL     1      21.759   3.926  20.938  0.00  0.00    +0.117 C 
BRANCH  11  15
ATOM      1 CL   UNL     1      26.619   3.510  19.104  0.00  0.00    -0.084 Cl
ATOM     15  C   UNL     1      23.113   3.270  21.014  0.00  0.00    -0.032 A 
ATOM     19  C   UNL     1      24.121   3.650  20.127  0.00  0.00    +0.025 A 
ATOM     20  C   UNL     1      23.359   2.285  21.969  0.00  0.00    +0.005 A 
ATOM     21  C   UNL     1      25.376   3.044  20.197  0.00  0.00    +0.041 A 
ATOM     22  C   UNL     1      24.613   1.679  22.039  0.00  0.00    +0.002 A 
ATOM     23  C   UNL     1      25.622   2.058  21.154  0.00  0.00    +0.020 A 
ENDBRANCH  11  15
ENDBRANCH   4  11
ENDBRANCH   6   4
BRANCH   6   9
ATOM      9  C   UNL     1      20.322   6.124  21.906  0.00  0.00    +0.085 C 
BRANCH   9  10
ATOM      3  O   UNL     1      17.592   5.980  19.608  0.00  0.00    -0.359 OA
ATOM      5  N   UNL     1      18.834   5.559  20.068  0.00  0.00    -0.083 NA
ATOM     10  C   UNL     1      19.072   6.307  21.150  0.00  0.00    +0.086 A 
ATOM     13  C   UNL     1      18.027   7.207  21.418  0.00  0.00    +0.071 A 
ATOM     14  C   UNL     1      17.122   6.961  20.418  0.00  0.00    +0.143 A 
BRANCH  14  12
ATOM     12  C   UNL     1      15.748   7.551  20.058  0.00  0.00    +0.023 C 
ATOM     16  C   UNL     1      14.611   7.111  21.008  0.00  0.00    +0.019 C 
ATOM     17  C   UNL     1      15.349   7.108  18.634  0.00  0.00    +0.019 C 
ATOM     18  C   UNL     1      15.815   9.093  20.110  0.00  0.00    +0.019 C 
ENDBRANCH  14  12
ENDBRANCH   9  10
ENDBRANCH   6   9
TORSDOF 6
ENDMDL
