MODEL 1
REMARK VINA RESULT:      -6.7      0.000      0.000
REMARK  Name = 75368621
REMARK  8 active torsions:
REMARK  status: ('A' for Active; 'I' for Inactive)
REMARK    1  A    between atoms: O_2  and  C_17
REMARK    2  A    between atoms: O_2  and  C_27
REMARK    3  A    between atoms: O_3  and  C_26
REMARK    4  A    between atoms: O_3  and  C_28
REMARK    5  A    between atoms: N_5  and  C_13
REMARK    6  A    between atoms: N_6  and  C_14
REMARK    7  A    between atoms: C_13  and  C_15
REMARK    8  A    between atoms: C_14  and  C_16
REMARK                            x       y       z     vdW  Elec       q    Type
REMARK                         _______ _______ _______ _____ _____    ______ ____
ROOT
ATOM      1  O   UNL     1     -17.208   1.791  22.849  0.00  0.00    -0.252 OA
ATOM      4  N   UNL     1     -16.433   2.204  25.028  0.00  0.00    -0.278 N 
ATOM      5  N   UNL     1     -16.328   2.117  27.837  0.00  0.00    -0.295 NA
ATOM      6  N   UNL     1     -16.497   3.919  23.578  0.00  0.00    -0.279 N 
ATOM      7  C   UNL     1     -15.824   3.307  25.742  0.00  0.00    +0.109 C 
ATOM      8  C   UNL     1     -16.414   3.420  27.147  0.00  0.00    +0.109 C 
ATOM      9  C   UNL     1     -16.082   4.511  24.838  0.00  0.00    +0.133 C 
ATOM     10  C   UNL     1     -16.536   0.912  25.672  0.00  0.00    +0.125 C 
ATOM     11  C   UNL     1     -17.073   1.079  27.096  0.00  0.00    +0.104 C 
ATOM     12  C   UNL     1     -16.765   2.542  23.708  0.00  0.00    +0.305 C 
ENDROOT
BRANCH   5  13
ATOM     13  C   UNL     1     -16.834   2.229  29.204  0.00  0.00    +0.123 C 
BRANCH  13  15
ATOM     15  C   UNL     1     -15.731   2.469  30.194  0.00  0.00    +0.008 A 
ATOM     17  C   UNL     1     -14.877   1.433  30.575  0.00  0.00    +0.124 A 
ATOM     18  C   UNL     1     -15.565   3.743  30.735  0.00  0.00    +0.008 A 
ATOM     21  C   UNL     1     -13.857   1.672  31.495  0.00  0.00    +0.046 A 
ATOM     22  C   UNL     1     -14.545   3.983  31.657  0.00  0.00    +0.001 A 
ATOM     25  C   UNL     1     -13.691   2.947  32.037  0.00  0.00    +0.004 A 
BRANCH  17   2
ATOM      2  O   UNL     1     -15.025   0.181  30.055  0.00  0.00    -0.495 OA
ATOM     27  C   UNL     1     -13.832  -0.547  29.772  0.00  0.00    +0.277 C 
ENDBRANCH  17   2
ENDBRANCH  13  15
ENDBRANCH   5  13
BRANCH   6  14
ATOM     14  C   UNL     1     -16.738   4.719  22.398  0.00  0.00    +0.144 C 
BRANCH  14  16
ATOM     16  C   UNL     1     -15.578   5.620  22.083  0.00  0.00    -0.030 A 
ATOM     19  C   UNL     1     -15.771   6.998  21.993  0.00  0.00    +0.009 A 
ATOM     20  C   UNL     1     -14.309   5.078  21.882  0.00  0.00    +0.009 A 
ATOM     23  C   UNL     1     -14.693   7.835  21.700  0.00  0.00    +0.046 A 
ATOM     24  C   UNL     1     -13.232   5.914  21.589  0.00  0.00    +0.046 A 
ATOM     26  C   UNL     1     -13.424   7.293  21.499  0.00  0.00    +0.120 A 
BRANCH  26   3
ATOM      3  O   UNL     1     -12.373   8.109  21.213  0.00  0.00    -0.495 OA
ATOM     28  C   UNL     1     -11.446   7.652  20.228  0.00  0.00    +0.277 C 
ENDBRANCH  26   3
ENDBRANCH  14  16
ENDBRANCH   6  14
TORSDOF 6
ENDMDL
MODEL 2
REMARK VINA RESULT:      -6.5     15.515     16.958
REMARK  Name = 75368621
REMARK  8 active torsions:
REMARK  status: ('A' for Active; 'I' for Inactive)
REMARK    1  A    between atoms: O_2  and  C_17
REMARK    2  A    between atoms: O_2  and  C_27
REMARK    3  A    between atoms: O_3  and  C_26
REMARK    4  A    between atoms: O_3  and  C_28
REMARK    5  A    between atoms: N_5  and  C_13
REMARK    6  A    between atoms: N_6  and  C_14
REMARK    7  A    between atoms: C_13  and  C_15
REMARK    8  A    between atoms: C_14  and  C_16
REMARK                            x       y       z     vdW  Elec       q    Type
REMARK                         _______ _______ _______ _____ _____    ______ ____
ROOT
ATOM      1  O   UNL     1     -12.929  -8.173  13.291  0.00  0.00    -0.252 OA
ATOM      4  N   UNL     1     -11.020  -8.137  14.660  0.00  0.00    -0.278 N 
ATOM      5  N   UNL     1      -9.107  -9.024  16.522  0.00  0.00    -0.295 NA
ATOM      6  N   UNL     1     -12.318  -6.304  14.595  0.00  0.00    -0.279 N 
ATOM      7  C   UNL     1     -10.307  -7.159  15.455  0.00  0.00    +0.109 C 
ATOM      8  C   UNL     1      -9.855  -7.776  16.778  0.00  0.00    +0.109 C 
ATOM      9  C   UNL     1     -11.302  -6.008  15.591  0.00  0.00    +0.133 C 
ATOM     10  C   UNL     1     -10.444  -9.451  14.469  0.00  0.00    +0.125 C 
ATOM     11  C   UNL     1      -9.951 -10.005  15.808  0.00  0.00    +0.104 C 
ATOM     12  C   UNL     1     -12.181  -7.608  14.079  0.00  0.00    +0.305 C 
ENDROOT
BRANCH   5  13
ATOM     13  C   UNL     1      -8.618  -9.591  17.777  0.00  0.00    +0.123 C 
BRANCH  13  15
ATOM     15  C   UNL     1      -7.170  -9.978  17.693  0.00  0.00    +0.008 A 
ATOM     17  C   UNL     1      -6.569 -10.717  18.712  0.00  0.00    +0.124 A 
ATOM     18  C   UNL     1      -6.424  -9.590  16.580  0.00  0.00    +0.008 A 
ATOM     21  C   UNL     1      -5.222 -11.069  18.618  0.00  0.00    +0.046 A 
ATOM     22  C   UNL     1      -5.077  -9.942  16.486  0.00  0.00    +0.001 A 
ATOM     25  C   UNL     1      -4.476 -10.681  17.505  0.00  0.00    +0.004 A 
BRANCH  17   2
ATOM      2  O   UNL     1      -7.283 -11.105  19.806  0.00  0.00    -0.495 OA
ATOM     27  C   UNL     1      -7.679 -12.473  19.868  0.00  0.00    +0.277 C 
ENDBRANCH  17   2
ENDBRANCH  13  15
ENDBRANCH   5  13
BRANCH   6  14
ATOM     14  C   UNL     1     -13.406  -5.394  14.314  0.00  0.00    +0.144 C 
BRANCH  14  16
ATOM     16  C   UNL     1     -13.318  -4.826  12.926  0.00  0.00    -0.030 A 
ATOM     19  C   UNL     1     -12.243  -4.011  12.574  0.00  0.00    +0.009 A 
ATOM     20  C   UNL     1     -14.311  -5.113  11.991  0.00  0.00    +0.009 A 
ATOM     23  C   UNL     1     -12.161  -3.482  11.285  0.00  0.00    +0.046 A 
ATOM     24  C   UNL     1     -14.230  -4.585  10.702  0.00  0.00    +0.046 A 
ATOM     26  C   UNL     1     -13.154  -3.771  10.350  0.00  0.00    +0.120 A 
BRANCH  26   3
ATOM      3  O   UNL     1     -13.075  -3.255   9.093  0.00  0.00    -0.495 OA
ATOM     28  C   UNL     1     -14.300  -2.863   8.474  0.00  0.00    +0.277 C 
ENDBRANCH  26   3
ENDBRANCH  14  16
ENDBRANCH   6  14
TORSDOF 6
ENDMDL
MODEL 3
REMARK VINA RESULT:      -6.3      1.153      2.077
REMARK  Name = 75368621
REMARK  8 active torsions:
REMARK  status: ('A' for Active; 'I' for Inactive)
REMARK    1  A    between atoms: O_2  and  C_17
REMARK    2  A    between atoms: O_2  and  C_27
REMARK    3  A    between atoms: O_3  and  C_26
REMARK    4  A    between atoms: O_3  and  C_28
REMARK    5  A    between atoms: N_5  and  C_13
REMARK    6  A    between atoms: N_6  and  C_14
REMARK    7  A    between atoms: C_13  and  C_15
REMARK    8  A    between atoms: C_14  and  C_16
REMARK                            x       y       z     vdW  Elec       q    Type
REMARK                         _______ _______ _______ _____ _____    ______ ____
ROOT
ATOM      1  O   UNL     1     -17.311   2.052  22.534  0.00  0.00    -0.252 OA
ATOM      4  N   UNL     1     -16.598   2.227  24.766  0.00  0.00    -0.278 N 
ATOM      5  N   UNL     1     -16.628   1.927  27.562  0.00  0.00    -0.295 NA
ATOM      6  N   UNL     1     -16.431   4.040  23.450  0.00  0.00    -0.279 N 
ATOM      7  C   UNL     1     -15.918   3.209  25.585  0.00  0.00    +0.109 C 
ATOM      8  C   UNL     1     -16.557   3.279  26.971  0.00  0.00    +0.109 C 
ATOM      9  C   UNL     1     -16.018   4.494  24.766  0.00  0.00    +0.133 C 
ATOM     10  C   UNL     1     -16.855   0.908  25.305  0.00  0.00    +0.125 C 
ATOM     11  C   UNL     1     -17.437   1.025  26.717  0.00  0.00    +0.104 C 
ATOM     12  C   UNL     1     -16.837   2.690  23.465  0.00  0.00    +0.305 C 
ENDROOT
BRANCH   5  13
ATOM     13  C   UNL     1     -17.182   1.990  28.914  0.00  0.00    +0.123 C 
BRANCH  13  15
ATOM     15  C   UNL     1     -16.108   2.086  29.958  0.00  0.00    +0.008 A 
ATOM     17  C   UNL     1     -16.078   3.156  30.854  0.00  0.00    +0.124 A 
ATOM     18  C   UNL     1     -15.133   1.091  30.028  0.00  0.00    +0.008 A 
ATOM     21  C   UNL     1     -15.073   3.229  31.818  0.00  0.00    +0.046 A 
ATOM     22  C   UNL     1     -14.128   1.165  30.992  0.00  0.00    +0.001 A 
ATOM     25  C   UNL     1     -14.098   2.234  31.888  0.00  0.00    +0.004 A 
BRANCH  17   2
ATOM      2  O   UNL     1     -17.023   4.136  30.801  0.00  0.00    -0.495 OA
ATOM     27  C   UNL     1     -17.347   4.789  32.026  0.00  0.00    +0.277 C 
ENDBRANCH  17   2
ENDBRANCH  13  15
ENDBRANCH   5  13
BRANCH   6  14
ATOM     14  C   UNL     1     -16.540   4.943  22.326  0.00  0.00    +0.144 C 
BRANCH  14  16
ATOM     16  C   UNL     1     -15.207   5.514  21.933  0.00  0.00    -0.030 A 
ATOM     19  C   UNL     1     -14.033   4.871  22.322  0.00  0.00    +0.009 A 
ATOM     20  C   UNL     1     -15.145   6.685  21.179  0.00  0.00    +0.009 A 
ATOM     23  C   UNL     1     -12.794   5.400  21.957  0.00  0.00    +0.046 A 
ATOM     24  C   UNL     1     -13.907   7.215  20.814  0.00  0.00    +0.046 A 
ATOM     26  C   UNL     1     -12.732   6.572  21.203  0.00  0.00    +0.120 A 
BRANCH  26   3
ATOM      3  O   UNL     1     -11.524   7.089  20.848  0.00  0.00    -0.495 OA
ATOM     28  C   UNL     1     -11.533   8.220  19.977  0.00  0.00    +0.277 C 
ENDBRANCH  26   3
ENDBRANCH  14  16
ENDBRANCH   6  14
TORSDOF 6
ENDMDL
MODEL 4
REMARK VINA RESULT:      -6.2      2.043      9.375
REMARK  Name = 75368621
REMARK  8 active torsions:
REMARK  status: ('A' for Active; 'I' for Inactive)
REMARK    1  A    between atoms: O_2  and  C_17
REMARK    2  A    between atoms: O_2  and  C_27
REMARK    3  A    between atoms: O_3  and  C_26
REMARK    4  A    between atoms: O_3  and  C_28
REMARK    5  A    between atoms: N_5  and  C_13
REMARK    6  A    between atoms: N_6  and  C_14
REMARK    7  A    between atoms: C_13  and  C_15
REMARK    8  A    between atoms: C_14  and  C_16
REMARK                            x       y       z     vdW  Elec       q    Type
REMARK                         _______ _______ _______ _____ _____    ______ ____
ROOT
ATOM      1  O   UNL     1     -18.389   5.209  26.272  0.00  0.00    -0.252 OA
ATOM      4  N   UNL     1     -16.683   5.451  24.675  0.00  0.00    -0.278 N 
ATOM      5  N   UNL     1     -15.434   6.153  22.255  0.00  0.00    -0.295 NA
ATOM      6  N   UNL     1     -16.842   3.498  25.774  0.00  0.00    -0.279 N 
ATOM      7  C   UNL     1     -15.534   4.690  24.231  0.00  0.00    +0.109 C 
ATOM      8  C   UNL     1     -15.413   4.747  22.709  0.00  0.00    +0.109 C 
ATOM      9  C   UNL     1     -15.780   3.296  24.803  0.00  0.00    +0.133 C 
ATOM     10  C   UNL     1     -16.882   6.794  24.172  0.00  0.00    +0.125 C 
ATOM     11  C   UNL     1     -16.692   6.816  22.652  0.00  0.00    +0.104 C 
ATOM     12  C   UNL     1     -17.425   4.776  25.654  0.00  0.00    +0.305 C 
ENDROOT
BRANCH   5  13
ATOM     13  C   UNL     1     -15.257   6.222  20.805  0.00  0.00    +0.123 C 
BRANCH  13  15
ATOM     15  C   UNL     1     -13.944   6.842  20.426  0.00  0.00    +0.008 A 
ATOM     17  C   UNL     1     -13.850   7.703  19.333  0.00  0.00    +0.124 A 
ATOM     18  C   UNL     1     -12.808   6.549  21.182  0.00  0.00    +0.008 A 
ATOM     21  C   UNL     1     -12.622   8.271  18.995  0.00  0.00    +0.046 A 
ATOM     22  C   UNL     1     -11.579   7.116  20.844  0.00  0.00    +0.001 A 
ATOM     25  C   UNL     1     -11.486   7.977  19.750  0.00  0.00    +0.004 A 
BRANCH  17   2
ATOM      2  O   UNL     1     -14.950   8.001  18.584  0.00  0.00    -0.495 OA
ATOM     27  C   UNL     1     -14.721   8.466  17.256  0.00  0.00    +0.277 C 
ENDBRANCH  17   2
ENDBRANCH  13  15
ENDBRANCH   5  13
BRANCH   6  14
ATOM     14  C   UNL     1     -17.311   2.433  26.633  0.00  0.00    +0.144 C 
BRANCH  14  16
ATOM     16  C   UNL     1     -16.412   2.234  27.820  0.00  0.00    -0.030 A 
ATOM     19  C   UNL     1     -16.216   0.954  28.338  0.00  0.00    +0.009 A 
ATOM     20  C   UNL     1     -15.774   3.328  28.404  0.00  0.00    +0.009 A 
ATOM     23  C   UNL     1     -15.382   0.768  29.441  0.00  0.00    +0.046 A 
ATOM     24  C   UNL     1     -14.941   3.143  29.507  0.00  0.00    +0.046 A 
ATOM     26  C   UNL     1     -14.744   1.863  30.024  0.00  0.00    +0.120 A 
BRANCH  26   3
ATOM      3  O   UNL     1     -13.931   1.682  31.101  0.00  0.00    -0.495 OA
ATOM     28  C   UNL     1     -14.546   1.704  32.389  0.00  0.00    +0.277 C 
ENDBRANCH  26   3
ENDBRANCH  14  16
ENDBRANCH   6  14
TORSDOF 6
ENDMDL
MODEL 5
REMARK VINA RESULT:      -6.0     31.088     37.063
REMARK  Name = 75368621
REMARK  8 active torsions:
REMARK  status: ('A' for Active; 'I' for Inactive)
REMARK    1  A    between atoms: O_2  and  C_17
REMARK    2  A    between atoms: O_2  and  C_27
REMARK    3  A    between atoms: O_3  and  C_26
REMARK    4  A    between atoms: O_3  and  C_28
REMARK    5  A    between atoms: N_5  and  C_13
REMARK    6  A    between atoms: N_6  and  C_14
REMARK    7  A    between atoms: C_13  and  C_15
REMARK    8  A    between atoms: C_14  and  C_16
REMARK                            x       y       z     vdW  Elec       q    Type
REMARK                         _______ _______ _______ _____ _____    ______ ____
ROOT
ATOM      1  O   UNL     1      11.588  10.451   4.650  0.00  0.00    -0.252 OA
ATOM      4  N   UNL     1      13.746   9.588   4.996  0.00  0.00    -0.278 N 
ATOM      5  N   UNL     1      16.513   9.224   4.652  0.00  0.00    -0.295 NA
ATOM      6  N   UNL     1      12.021   8.150   4.936  0.00  0.00    -0.279 N 
ATOM      7  C   UNL     1      14.331   8.305   5.324  0.00  0.00    +0.109 C 
ATOM      8  C   UNL     1      15.599   8.073   4.503  0.00  0.00    +0.109 C 
ATOM      9  C   UNL     1      13.202   7.312   5.055  0.00  0.00    +0.133 C 
ATOM     10  C   UNL     1      14.588  10.765   4.966  0.00  0.00    +0.125 C 
ATOM     11  C   UNL     1      15.872  10.470   4.186  0.00  0.00    +0.104 C 
ATOM     12  C   UNL     1      12.354   9.516   4.840  0.00  0.00    +0.305 C 
ENDROOT
BRANCH   5  13
ATOM     13  C   UNL     1      17.756   8.985   3.919  0.00  0.00    +0.123 C 
BRANCH  13  15
ATOM     15  C   UNL     1      18.878   8.582   4.831  0.00  0.00    +0.008 A 
ATOM     17  C   UNL     1      19.965   7.855   4.345  0.00  0.00    +0.124 A 
ATOM     18  C   UNL     1      18.827   8.942   6.177  0.00  0.00    +0.008 A 
ATOM     21  C   UNL     1      21.000   7.489   5.205  0.00  0.00    +0.046 A 
ATOM     22  C   UNL     1      19.862   8.576   7.038  0.00  0.00    +0.001 A 
ATOM     25  C   UNL     1      20.949   7.849   6.552  0.00  0.00    +0.004 A 
BRANCH  17   2
ATOM      2  O   UNL     1      20.032   7.495   3.032  0.00  0.00    -0.495 OA
ATOM     27  C   UNL     1      20.987   8.177   2.222  0.00  0.00    +0.277 C 
ENDBRANCH  17   2
ENDBRANCH  13  15
ENDBRANCH   5  13
BRANCH   6  14
ATOM     14  C   UNL     1      10.696   7.591   4.784  0.00  0.00    +0.144 C 
BRANCH  14  16
ATOM     16  C   UNL     1      10.354   6.645   5.901  0.00  0.00    -0.030 A 
ATOM     19  C   UNL     1      10.331   7.103   7.218  0.00  0.00    +0.009 A 
ATOM     20  C   UNL     1      10.060   5.312   5.620  0.00  0.00    +0.009 A 
ATOM     23  C   UNL     1      10.013   6.225   8.255  0.00  0.00    +0.046 A 
ATOM     24  C   UNL     1       9.743   4.434   6.656  0.00  0.00    +0.046 A 
ATOM     26  C   UNL     1       9.719   4.891   7.974  0.00  0.00    +0.120 A 
BRANCH  26   3
ATOM      3  O   UNL     1       9.411   4.034   8.985  0.00  0.00    -0.495 OA
ATOM     28  C   UNL     1       8.973   4.613  10.215  0.00  0.00    +0.277 C 
ENDBRANCH  26   3
ENDBRANCH  14  16
ENDBRANCH   6  14
TORSDOF 6
ENDMDL
MODEL 6
REMARK VINA RESULT:      -6.0     19.606     21.136
REMARK  Name = 75368621
REMARK  8 active torsions:
REMARK  status: ('A' for Active; 'I' for Inactive)
REMARK    1  A    between atoms: O_2  and  C_17
REMARK    2  A    between atoms: O_2  and  C_27
REMARK    3  A    between atoms: O_3  and  C_26
REMARK    4  A    between atoms: O_3  and  C_28
REMARK    5  A    between atoms: N_5  and  C_13
REMARK    6  A    between atoms: N_6  and  C_14
REMARK    7  A    between atoms: C_13  and  C_15
REMARK    8  A    between atoms: C_14  and  C_16
REMARK                            x       y       z     vdW  Elec       q    Type
REMARK                         _______ _______ _______ _____ _____    ______ ____
ROOT
ATOM      1  O   UNL     1      -1.358 -11.306  15.343  0.00  0.00    -0.252 OA
ATOM      4  N   UNL     1      -3.633 -10.916  15.776  0.00  0.00    -0.278 N 
ATOM      5  N   UNL     1      -6.183 -11.248  16.918  0.00  0.00    -0.295 NA
ATOM      6  N   UNL     1      -2.936 -10.881  13.641  0.00  0.00    -0.279 N 
ATOM      7  C   UNL     1      -4.800 -10.513  15.020  0.00  0.00    +0.109 C 
ATOM      8  C   UNL     1      -6.021 -11.323  15.451  0.00  0.00    +0.109 C 
ATOM      9  C   UNL     1      -4.377 -10.715  13.566  0.00  0.00    +0.133 C 
ATOM     10  C   UNL     1      -3.725 -11.022  17.218  0.00  0.00    +0.125 C 
ATOM     11  C   UNL     1      -4.992 -11.788  17.606  0.00  0.00    +0.104 C 
ATOM     12  C   UNL     1      -2.497 -11.062  14.968  0.00  0.00    +0.305 C 
ENDROOT
BRANCH   5  13
ATOM     13  C   UNL     1      -7.384 -11.970  17.336  0.00  0.00    +0.123 C 
BRANCH  13  15
ATOM     15  C   UNL     1      -8.507 -11.038  17.685  0.00  0.00    +0.008 A 
ATOM     17  C   UNL     1      -9.189 -11.166  18.895  0.00  0.00    +0.124 A 
ATOM     18  C   UNL     1      -8.868 -10.036  16.784  0.00  0.00    +0.008 A 
ATOM     21  C   UNL     1     -10.231 -10.291  19.205  0.00  0.00    +0.046 A 
ATOM     22  C   UNL     1      -9.910  -9.162  17.093  0.00  0.00    +0.001 A 
ATOM     25  C   UNL     1     -10.592  -9.289  18.303  0.00  0.00    +0.004 A 
BRANCH  17   2
ATOM      2  O   UNL     1      -8.850 -12.138  19.788  0.00  0.00    -0.495 OA
ATOM     27  C   UNL     1      -9.889 -13.017  20.214  0.00  0.00    +0.277 C 
ENDBRANCH  17   2
ENDBRANCH  13  15
ENDBRANCH   5  13
BRANCH   6  14
ATOM     14  C   UNL     1      -2.113 -10.993  12.457  0.00  0.00    +0.144 C 
BRANCH  14  16
ATOM     16  C   UNL     1      -2.892 -10.713  11.204  0.00  0.00    -0.030 A 
ATOM     19  C   UNL     1      -2.984  -9.409  10.718  0.00  0.00    +0.009 A 
ATOM     20  C   UNL     1      -3.523 -11.756  10.527  0.00  0.00    +0.009 A 
ATOM     23  C   UNL     1      -3.708  -9.148   9.553  0.00  0.00    +0.046 A 
ATOM     24  C   UNL     1      -4.247 -11.495   9.363  0.00  0.00    +0.046 A 
ATOM     26  C   UNL     1      -4.338 -10.192   8.877  0.00  0.00    +0.120 A 
BRANCH  26   3
ATOM      3  O   UNL     1      -5.045  -9.937   7.741  0.00  0.00    -0.495 OA
ATOM     28  C   UNL     1      -6.464  -9.844   7.868  0.00  0.00    +0.277 C 
ENDBRANCH  26   3
ENDBRANCH  14  16
ENDBRANCH   6  14
TORSDOF 6
ENDMDL
MODEL 7
REMARK VINA RESULT:      -5.9     19.468     20.935
REMARK  Name = 75368621
REMARK  8 active torsions:
REMARK  status: ('A' for Active; 'I' for Inactive)
REMARK    1  A    between atoms: O_2  and  C_17
REMARK    2  A    between atoms: O_2  and  C_27
REMARK    3  A    between atoms: O_3  and  C_26
REMARK    4  A    between atoms: O_3  and  C_28
REMARK    5  A    between atoms: N_5  and  C_13
REMARK    6  A    between atoms: N_6  and  C_14
REMARK    7  A    between atoms: C_13  and  C_15
REMARK    8  A    between atoms: C_14  and  C_16
REMARK                            x       y       z     vdW  Elec       q    Type
REMARK                         _______ _______ _______ _____ _____    ______ ____
ROOT
ATOM      1  O   UNL     1      -4.273 -13.608  13.383  0.00  0.00    -0.252 OA
ATOM      4  N   UNL     1      -4.038 -12.507  15.445  0.00  0.00    -0.278 N 
ATOM      5  N   UNL     1      -4.768 -11.366  17.910  0.00  0.00    -0.295 NA
ATOM      6  N   UNL     1      -2.959 -11.668  13.661  0.00  0.00    -0.279 N 
ATOM      7  C   UNL     1      -3.244 -11.419  15.978  0.00  0.00    +0.109 C 
ATOM      8  C   UNL     1      -4.095 -10.536  16.889  0.00  0.00    +0.109 C 
ATOM      9  C   UNL     1      -2.702 -10.721  14.732  0.00  0.00    +0.133 C 
ATOM     10  C   UNL     1      -4.856 -13.294  16.343  0.00  0.00    +0.125 C 
ATOM     11  C   UNL     1      -5.645 -12.372  17.276  0.00  0.00    +0.104 C 
ATOM     12  C   UNL     1      -3.812 -12.711  14.076  0.00  0.00    +0.305 C 
ENDROOT
BRANCH   5  13
ATOM     13  C   UNL     1      -5.537 -10.524  18.825  0.00  0.00    +0.123 C 
BRANCH  13  15
ATOM     15  C   UNL     1      -6.960 -10.359  18.375  0.00  0.00    +0.008 A 
ATOM     17  C   UNL     1      -7.990 -11.066  18.996  0.00  0.00    +0.124 A 
ATOM     18  C   UNL     1      -7.247  -9.487  17.325  0.00  0.00    +0.008 A 
ATOM     21  C   UNL     1      -9.307 -10.901  18.567  0.00  0.00    +0.046 A 
ATOM     22  C   UNL     1      -8.564  -9.322  16.895  0.00  0.00    +0.001 A 
ATOM     25  C   UNL     1      -9.594 -10.029  17.516  0.00  0.00    +0.004 A 
BRANCH  17   2
ATOM      2  O   UNL     1      -7.728 -11.921  20.025  0.00  0.00    -0.495 OA
ATOM     27  C   UNL     1      -8.469 -13.139  20.059  0.00  0.00    +0.277 C 
ENDBRANCH  17   2
ENDBRANCH  13  15
ENDBRANCH   5  13
BRANCH   6  14
ATOM     14  C   UNL     1      -2.497 -11.443  12.309  0.00  0.00    +0.144 C 
BRANCH  14  16
ATOM     16  C   UNL     1      -3.380 -10.479  11.568  0.00  0.00    -0.030 A 
ATOM     19  C   UNL     1      -4.698 -10.285  11.979  0.00  0.00    +0.009 A 
ATOM     20  C   UNL     1      -2.881  -9.779  10.470  0.00  0.00    +0.009 A 
ATOM     23  C   UNL     1      -5.519  -9.390  11.291  0.00  0.00    +0.046 A 
ATOM     24  C   UNL     1      -3.701  -8.885   9.782  0.00  0.00    +0.046 A 
ATOM     26  C   UNL     1      -5.019  -8.690  10.193  0.00  0.00    +0.120 A 
BRANCH  26   3
ATOM      3  O   UNL     1      -5.820  -7.818   9.521  0.00  0.00    -0.495 OA
ATOM     28  C   UNL     1      -6.941  -8.368   8.829  0.00  0.00    +0.277 C 
ENDBRANCH  26   3
ENDBRANCH  14  16
ENDBRANCH   6  14
TORSDOF 6
ENDMDL
MODEL 8
REMARK VINA RESULT:      -5.8     19.874     21.398
REMARK  Name = 75368621
REMARK  8 active torsions:
REMARK  status: ('A' for Active; 'I' for Inactive)
REMARK    1  A    between atoms: O_2  and  C_17
REMARK    2  A    between atoms: O_2  and  C_27
REMARK    3  A    between atoms: O_3  and  C_26
REMARK    4  A    between atoms: O_3  and  C_28
REMARK    5  A    between atoms: N_5  and  C_13
REMARK    6  A    between atoms: N_6  and  C_14
REMARK    7  A    between atoms: C_13  and  C_15
REMARK    8  A    between atoms: C_14  and  C_16
REMARK                            x       y       z     vdW  Elec       q    Type
REMARK                         _______ _______ _______ _____ _____    ______ ____
ROOT
ATOM      1  O   UNL     1      -3.586 -14.119  13.869  0.00  0.00    -0.252 OA
ATOM      4  N   UNL     1      -4.080 -12.672  15.652  0.00  0.00    -0.278 N 
ATOM      5  N   UNL     1      -5.615 -11.263  17.542  0.00  0.00    -0.295 NA
ATOM      6  N   UNL     1      -2.600 -11.989  14.106  0.00  0.00    -0.279 N 
ATOM      7  C   UNL     1      -3.585 -11.408  16.156  0.00  0.00    +0.109 C 
ATOM      8  C   UNL     1      -4.748 -10.522  16.602  0.00  0.00    +0.109 C 
ATOM      9  C   UNL     1      -2.763 -10.852  14.995  0.00  0.00    +0.133 C 
ATOM     10  C   UNL     1      -5.052 -13.414  16.428  0.00  0.00    +0.125 C 
ATOM     11  C   UNL     1      -6.165 -12.476  16.904  0.00  0.00    +0.104 C 
ATOM     12  C   UNL     1      -3.438 -13.062  14.469  0.00  0.00    +0.305 C 
ENDROOT
BRANCH   5  13
ATOM     13  C   UNL     1      -6.697 -10.404  18.021  0.00  0.00    +0.123 C 
BRANCH  13  15
ATOM     15  C   UNL     1      -7.787 -11.192  18.687  0.00  0.00    +0.008 A 
ATOM     17  C   UNL     1      -9.125 -10.984  18.348  0.00  0.00    +0.124 A 
ATOM     18  C   UNL     1      -7.452 -12.141  19.652  0.00  0.00    +0.008 A 
ATOM     21  C   UNL     1     -10.126 -11.725  18.976  0.00  0.00    +0.046 A 
ATOM     22  C   UNL     1      -8.453 -12.882  20.280  0.00  0.00    +0.001 A 
ATOM     25  C   UNL     1      -9.791 -12.674  19.942  0.00  0.00    +0.004 A 
BRANCH  17   2
ATOM      2  O   UNL     1      -9.470 -10.062  17.406  0.00  0.00    -0.495 OA
ATOM     27  C   UNL     1     -10.471  -9.113  17.767  0.00  0.00    +0.277 C 
ENDBRANCH  17   2
ENDBRANCH  13  15
ENDBRANCH   5  13
BRANCH   6  14
ATOM     14  C   UNL     1      -1.778 -11.922  12.918  0.00  0.00    +0.144 C 
BRANCH  14  16
ATOM     16  C   UNL     1      -2.470 -11.199  11.797  0.00  0.00    -0.030 A 
ATOM     19  C   UNL     1      -3.462 -11.845  11.060  0.00  0.00    +0.009 A 
ATOM     20  C   UNL     1      -2.121  -9.884  11.495  0.00  0.00    +0.009 A 
ATOM     23  C   UNL     1      -4.104 -11.174  10.018  0.00  0.00    +0.046 A 
ATOM     24  C   UNL     1      -2.762  -9.213  10.454  0.00  0.00    +0.046 A 
ATOM     26  C   UNL     1      -3.755  -9.858   9.717  0.00  0.00    +0.120 A 
BRANCH  26   3
ATOM      3  O   UNL     1      -4.381  -9.204   8.700  0.00  0.00    -0.495 OA
ATOM     28  C   UNL     1      -5.209  -9.984   7.839  0.00  0.00    +0.277 C 
ENDBRANCH  26   3
ENDBRANCH  14  16
ENDBRANCH   6  14
TORSDOF 6
ENDMDL
MODEL 9
REMARK VINA RESULT:      -5.8     19.986     22.850
REMARK  Name = 75368621
REMARK  8 active torsions:
REMARK  status: ('A' for Active; 'I' for Inactive)
REMARK    1  A    between atoms: O_2  and  C_17
REMARK    2  A    between atoms: O_2  and  C_27
REMARK    3  A    between atoms: O_3  and  C_26
REMARK    4  A    between atoms: O_3  and  C_28
REMARK    5  A    between atoms: N_5  and  C_13
REMARK    6  A    between atoms: N_6  and  C_14
REMARK    7  A    between atoms: C_13  and  C_15
REMARK    8  A    between atoms: C_14  and  C_16
REMARK                            x       y       z     vdW  Elec       q    Type
REMARK                         _______ _______ _______ _____ _____    ______ ____
ROOT
ATOM      1  O   UNL     1      -6.507 -11.880   9.039  0.00  0.00    -0.252 OA
ATOM      4  N   UNL     1      -7.521  -9.764   9.143  0.00  0.00    -0.278 N 
ATOM      5  N   UNL     1      -9.153  -7.595   8.403  0.00  0.00    -0.295 NA
ATOM      6  N   UNL     1      -5.321  -9.912   9.572  0.00  0.00    -0.279 N 
ATOM      7  C   UNL     1      -7.139  -8.427   9.548  0.00  0.00    +0.109 C 
ATOM      8  C   UNL     1      -7.698  -7.394   8.571  0.00  0.00    +0.109 C 
ATOM      9  C   UNL     1      -5.614  -8.490   9.612  0.00  0.00    +0.133 C 
ATOM     10  C   UNL     1      -8.903 -10.036   8.809  0.00  0.00    +0.125 C 
ATOM     11  C   UNL     1      -9.440  -8.945   7.877  0.00  0.00    +0.104 C 
ATOM     12  C   UNL     1      -6.457 -10.672   9.231  0.00  0.00    +0.305 C 
ENDROOT
BRANCH   5  13
ATOM     13  C   UNL     1      -9.709  -6.574   7.517  0.00  0.00    +0.123 C 
BRANCH  13  15
ATOM     15  C   UNL     1     -10.630  -5.639   8.244  0.00  0.00    +0.008 A 
ATOM     17  C   UNL     1     -11.977  -5.957   8.418  0.00  0.00    +0.124 A 
ATOM     18  C   UNL     1     -10.126  -4.441   8.750  0.00  0.00    +0.008 A 
ATOM     21  C   UNL     1     -12.820  -5.077   9.097  0.00  0.00    +0.046 A 
ATOM     22  C   UNL     1     -10.968  -3.560   9.429  0.00  0.00    +0.001 A 
ATOM     25  C   UNL     1     -12.316  -3.878   9.602  0.00  0.00    +0.004 A 
BRANCH  17   2
ATOM      2  O   UNL     1     -12.486  -7.124   7.931  0.00  0.00    -0.495 OA
ATOM     27  C   UNL     1     -13.425  -7.024   6.862  0.00  0.00    +0.277 C 
ENDBRANCH  17   2
ENDBRANCH  13  15
ENDBRANCH   5  13
BRANCH   6  14
ATOM     14  C   UNL     1      -3.976 -10.423   9.722  0.00  0.00    +0.144 C 
BRANCH  14  16
ATOM     16  C   UNL     1      -3.555 -10.483  11.162  0.00  0.00    -0.030 A 
ATOM     19  C   UNL     1      -4.493 -10.788  12.149  0.00  0.00    +0.009 A 
ATOM     20  C   UNL     1      -2.229 -10.236  11.513  0.00  0.00    +0.009 A 
ATOM     23  C   UNL     1      -4.102 -10.844  13.488  0.00  0.00    +0.046 A 
ATOM     24  C   UNL     1      -1.838 -10.292  12.850  0.00  0.00    +0.046 A 
ATOM     26  C   UNL     1      -2.775 -10.597  13.837  0.00  0.00    +0.120 A 
BRANCH  26   3
ATOM      3  O   UNL     1      -2.394 -10.651  15.143  0.00  0.00    -0.495 OA
ATOM     28  C   UNL     1      -1.128 -10.080  15.474  0.00  0.00    +0.277 C 
ENDBRANCH  26   3
ENDBRANCH  14  16
ENDBRANCH   6  14
TORSDOF 6
ENDMDL
MODEL 10
REMARK VINA RESULT:      -5.8     20.052     22.922
REMARK  Name = 75368621
REMARK  8 active torsions:
REMARK  status: ('A' for Active; 'I' for Inactive)
REMARK    1  A    between atoms: O_2  and  C_17
REMARK    2  A    between atoms: O_2  and  C_27
REMARK    3  A    between atoms: O_3  and  C_26
REMARK    4  A    between atoms: O_3  and  C_28
REMARK    5  A    between atoms: N_5  and  C_13
REMARK    6  A    between atoms: N_6  and  C_14
REMARK    7  A    between atoms: C_13  and  C_15
REMARK    8  A    between atoms: C_14  and  C_16
REMARK                            x       y       z     vdW  Elec       q    Type
REMARK                         _______ _______ _______ _____ _____    ______ ____
ROOT
ATOM      1  O   UNL     1      -4.591 -13.424  17.527  0.00  0.00    -0.252 OA
ATOM      4  N   UNL     1      -4.570 -12.435  15.396  0.00  0.00    -0.278 N 
ATOM      5  N   UNL     1      -3.638 -11.736  12.836  0.00  0.00    -0.295 NA
ATOM      6  N   UNL     1      -5.254 -11.193  17.138  0.00  0.00    -0.279 N 
ATOM      7  C   UNL     1      -5.013 -11.190  14.803  0.00  0.00    +0.109 C 
ATOM      8  C   UNL     1      -3.973 -10.675  13.808  0.00  0.00    +0.109 C 
ATOM      9  C   UNL     1      -5.255 -10.282  16.007  0.00  0.00    +0.133 C 
ATOM     10  C   UNL     1      -4.077 -13.493  14.539  0.00  0.00    +0.125 C 
ATOM     11  C   UNL     1      -3.086 -12.922  13.521  0.00  0.00    +0.104 C 
ATOM     12  C   UNL     1      -4.784 -12.473  16.781  0.00  0.00    +0.305 C 
ENDROOT
BRANCH   5  13
ATOM     13  C   UNL     1      -2.689 -11.234  11.842  0.00  0.00    +0.123 C 
BRANCH  13  15
ATOM     15  C   UNL     1      -3.381 -10.726  10.611  0.00  0.00    +0.008 A 
ATOM     17  C   UNL     1      -3.933 -11.613   9.686  0.00  0.00    +0.124 A 
ATOM     18  C   UNL     1      -3.468  -9.351  10.395  0.00  0.00    +0.008 A 
ATOM     21  C   UNL     1      -4.573 -11.125   8.547  0.00  0.00    +0.046 A 
ATOM     22  C   UNL     1      -4.107  -8.862   9.256  0.00  0.00    +0.001 A 
ATOM     25  C   UNL     1      -4.660  -9.749   8.331  0.00  0.00    +0.004 A 
BRANCH  17   2
ATOM      2  O   UNL     1      -3.858 -12.960   9.882  0.00  0.00    -0.495 OA
ATOM     27  C   UNL     1      -5.027 -13.722   9.588  0.00  0.00    +0.277 C 
ENDBRANCH  17   2
ENDBRANCH  13  15
ENDBRANCH   5  13
BRANCH   6  14
ATOM     14  C   UNL     1      -5.560 -10.750  18.480  0.00  0.00    +0.144 C 
BRANCH  14  16
ATOM     16  C   UNL     1      -6.944 -11.154  18.902  0.00  0.00    -0.030 A 
ATOM     19  C   UNL     1      -8.040 -10.374  18.534  0.00  0.00    +0.009 A 
ATOM     20  C   UNL     1      -7.133 -12.309  19.660  0.00  0.00    +0.009 A 
ATOM     23  C   UNL     1      -9.326 -10.748  18.926  0.00  0.00    +0.046 A 
ATOM     24  C   UNL     1      -8.418 -12.683  20.053  0.00  0.00    +0.046 A 
ATOM     26  C   UNL     1      -9.514 -11.903  19.684  0.00  0.00    +0.120 A 
BRANCH  26   3
ATOM      3  O   UNL     1     -10.768 -12.269  20.067  0.00  0.00    -0.495 OA
ATOM     28  C   UNL     1     -11.816 -12.087  19.116  0.00  0.00    +0.277 C 
ENDBRANCH  26   3
ENDBRANCH  14  16
ENDBRANCH   6  14
TORSDOF 6
ENDMDL
