MODEL 1
REMARK VINA RESULT:      -8.0      0.000      0.000
REMARK  Name = 45361204
REMARK  8 active torsions:
REMARK  status: ('A' for Active; 'I' for Inactive)
REMARK    1  A    between atoms: O_6  and  C_28
REMARK    2  A    between atoms: N_7  and  C_20
REMARK    3  A    between atoms: N_8  and  C_19
REMARK    4  A    between atoms: C_15  and  C_18
REMARK    5  A    between atoms: C_18  and  C_21
REMARK    6  A    between atoms: C_19  and  C_22
REMARK    7  A    between atoms: C_21  and  C_23
REMARK    8  A    between atoms: C_33  and  C_34
REMARK                            x       y       z     vdW  Elec       q    Type
REMARK                         _______ _______ _______ _____ _____    ______ ____
ROOT
ATOM      4  O   UNL     1     -14.486   4.237  24.197  0.00  0.00    -0.274 OA
ATOM      7  N   UNL     1     -17.567   1.955  24.736  0.00  0.00    -0.296 NA
ATOM      8  N   UNL     1     -16.567   4.708  22.543  0.00  0.00    -0.286 NA
ATOM      9  N   UNL     1     -15.780   3.811  26.035  0.00  0.00    -0.312 N 
ATOM     11  C   UNL     1     -17.841   3.107  23.849  0.00  0.00    +0.084 C 
ATOM     12  C   UNL     1     -16.902   4.347  23.933  0.00  0.00    +0.161 C 
ATOM     13  C   UNL     1     -17.788   2.767  22.348  0.00  0.00    +0.036 C 
ATOM     14  C   UNL     1     -17.588   4.115  21.688  0.00  0.00    +0.087 C 
ATOM     15  C   UNL     1     -17.697   2.251  26.190  0.00  0.00    +0.074 C 
ATOM     16  C   UNL     1     -15.602   4.122  24.700  0.00  0.00    +0.232 C 
ATOM     17  C   UNL     1     -17.080   3.591  26.638  0.00  0.00    +0.123 C 
ATOM     20  C   UNL     1     -18.408   0.803  24.373  0.00  0.00    +0.105 C 
ATOM     35  H   UNL     1     -14.953   3.726  26.619  0.00  0.00    +0.149 HD
ENDROOT
BRANCH  15  18
ATOM     18  C   UNL     1     -17.045   1.135  27.030  0.00  0.00    +0.029 C 
BRANCH  18  21
ATOM     21  C   UNL     1     -17.019   1.478  28.507  0.00  0.00    +0.097 C 
BRANCH  21  23
ATOM      5  O   UNL     1     -15.383  -0.119  29.126  0.00  0.00    -0.276 OA
ATOM     10  N   UNL     1     -14.952   2.086  29.715  0.00  0.00    -0.301 N 
ATOM     23  C   UNL     1     -15.713   1.069  29.140  0.00  0.00    +0.216 C 
ATOM     24  C   UNL     1     -13.649   1.775  30.308  0.00  0.00    +0.110 C 
ATOM     25  C   UNL     1     -15.321   3.508  29.747  0.00  0.00    +0.110 C 
ATOM     26  C   UNL     1     -13.570   2.282  31.745  0.00  0.00    +0.050 C 
ATOM     27  C   UNL     1     -15.270   4.048  31.173  0.00  0.00    +0.050 C 
ATOM     28  C   UNL     1     -13.915   3.771  31.825  0.00  0.00    +0.118 C 
BRANCH  28   6
ATOM      6  O   UNL     1     -13.967   4.181  33.186  0.00  0.00    -0.392 OA
ATOM     36  H   UNL     1     -14.839   4.582  33.339  0.00  0.00    +0.210 HD
ENDBRANCH  28   6
ENDBRANCH  21  23
ENDBRANCH  18  21
ENDBRANCH  15  18
BRANCH   8  19
ATOM     19  C   UNL     1     -16.445   6.146  22.334  0.00  0.00    +0.120 C 
BRANCH  19  22
ATOM     22  C   UNL     1     -15.199   6.496  21.563  0.00  0.00    -0.033 A 
ATOM     29  C   UNL     1     -15.290   7.270  20.406  0.00  0.00    +0.005 A 
ATOM     30  C   UNL     1     -13.955   6.047  22.008  0.00  0.00    +0.005 A 
ATOM     31  C   UNL     1     -14.136   7.595  19.693  0.00  0.00    +0.012 A 
ATOM     32  C   UNL     1     -12.802   6.373  21.294  0.00  0.00    +0.012 A 
ATOM     33  C   UNL     1     -12.892   7.147  20.137  0.00  0.00    +0.055 A 
BRANCH  33  34
ATOM      1  F   UNL     1     -11.856   8.449  18.419  0.00  0.00    -0.166 F 
ATOM      2  F   UNL     1     -11.123   6.425  18.722  0.00  0.00    -0.166 F 
ATOM      3  F   UNL     1     -10.652   7.985  20.162  0.00  0.00    -0.166 F 
ATOM     34  C   UNL     1     -11.658   7.497  19.377  0.00  0.00    +0.417 C 
ENDBRANCH  33  34
ENDBRANCH  19  22
ENDBRANCH   8  19
TORSDOF 7
ENDMDL
MODEL 2
REMARK VINA RESULT:      -7.9     28.038     31.369
REMARK  Name = 45361204
REMARK  8 active torsions:
REMARK  status: ('A' for Active; 'I' for Inactive)
REMARK    1  A    between atoms: O_6  and  C_28
REMARK    2  A    between atoms: N_7  and  C_20
REMARK    3  A    between atoms: N_8  and  C_19
REMARK    4  A    between atoms: C_15  and  C_18
REMARK    5  A    between atoms: C_18  and  C_21
REMARK    6  A    between atoms: C_19  and  C_22
REMARK    7  A    between atoms: C_21  and  C_23
REMARK    8  A    between atoms: C_33  and  C_34
REMARK                            x       y       z     vdW  Elec       q    Type
REMARK                         _______ _______ _______ _____ _____    ______ ____
ROOT
ATOM      4  O   UNL     1      14.198  10.377  22.266  0.00  0.00    -0.274 OA
ATOM      7  N   UNL     1      14.395   7.679  19.496  0.00  0.00    -0.296 NA
ATOM      8  N   UNL     1      11.830   9.306  21.536  0.00  0.00    -0.286 NA
ATOM      9  N   UNL     1      15.364   8.414  22.112  0.00  0.00    -0.312 N 
ATOM     11  C   UNL     1      13.074   7.742  20.158  0.00  0.00    +0.084 C 
ATOM     12  C   UNL     1      12.983   8.386  21.572  0.00  0.00    +0.161 C 
ATOM     13  C   UNL     1      12.019   8.543  19.373  0.00  0.00    +0.036 C 
ATOM     14  C   UNL     1      10.985   8.890  20.423  0.00  0.00    +0.087 C 
ATOM     15  C   UNL     1      15.400   6.837  20.203  0.00  0.00    +0.074 C 
ATOM     16  C   UNL     1      14.216   9.176  22.003  0.00  0.00    +0.232 C 
ATOM     17  C   UNL     1      15.436   7.017  21.734  0.00  0.00    +0.123 C 
ATOM     20  C   UNL     1      14.260   7.243  18.096  0.00  0.00    +0.105 C 
ATOM     35  H   UNL     1      16.202   8.864  22.470  0.00  0.00    +0.149 HD
ENDROOT
BRANCH  15  18
ATOM     18  C   UNL     1      16.818   7.123  19.669  0.00  0.00    +0.029 C 
BRANCH  18  21
ATOM     21  C   UNL     1      17.879   6.904  20.731  0.00  0.00    +0.097 C 
BRANCH  21  23
ATOM      5  O   UNL     1      18.536   5.028  19.441  0.00  0.00    -0.276 OA
ATOM     10  N   UNL     1      20.106   5.856  20.940  0.00  0.00    -0.301 N 
ATOM     23  C   UNL     1      18.864   5.843  20.307  0.00  0.00    +0.216 C 
ATOM     24  C   UNL     1      21.132   4.885  20.550  0.00  0.00    +0.110 C 
ATOM     25  C   UNL     1      20.523   6.813  21.974  0.00  0.00    +0.110 C 
ATOM     26  C   UNL     1      21.648   4.121  21.765  0.00  0.00    +0.050 C 
ATOM     27  C   UNL     1      21.031   6.084  23.214  0.00  0.00    +0.050 C 
ATOM     28  C   UNL     1      22.126   5.079  22.859  0.00  0.00    +0.118 C 
BRANCH  28   6
ATOM      6  O   UNL     1      22.472   4.343  24.026  0.00  0.00    -0.392 OA
ATOM     36  H   UNL     1      23.398   4.062  23.933  0.00  0.00    +0.210 HD
ENDBRANCH  28   6
ENDBRANCH  21  23
ENDBRANCH  18  21
ENDBRANCH  15  18
BRANCH   8  19
ATOM     19  C   UNL     1      11.094   9.358  22.793  0.00  0.00    +0.120 C 
BRANCH  19  22
ATOM     22  C   UNL     1      11.003  10.762  23.331  0.00  0.00    -0.033 A 
ATOM     29  C   UNL     1      10.905  11.841  22.453  0.00  0.00    +0.005 A 
ATOM     30  C   UNL     1      11.017  10.982  24.709  0.00  0.00    +0.005 A 
ATOM     31  C   UNL     1      10.820  13.141  22.952  0.00  0.00    +0.012 A 
ATOM     32  C   UNL     1      10.931  12.282  25.207  0.00  0.00    +0.012 A 
ATOM     33  C   UNL     1      10.833  13.361  24.329  0.00  0.00    +0.055 A 
BRANCH  33  34
ATOM      1  F   UNL     1      10.765  14.816  26.226  0.00  0.00    -0.166 F 
ATOM      2  F   UNL     1       9.587  15.380  24.488  0.00  0.00    -0.166 F 
ATOM      3  F   UNL     1      11.752  15.566  24.447  0.00  0.00    -0.166 F 
ATOM     34  C   UNL     1      10.739  14.751  24.863  0.00  0.00    +0.417 C 
ENDBRANCH  33  34
ENDBRANCH  19  22
ENDBRANCH   8  19
TORSDOF 7
ENDMDL
MODEL 3
REMARK VINA RESULT:      -7.7     32.151     35.658
REMARK  Name = 45361204
REMARK  8 active torsions:
REMARK  status: ('A' for Active; 'I' for Inactive)
REMARK    1  A    between atoms: O_6  and  C_28
REMARK    2  A    between atoms: N_7  and  C_20
REMARK    3  A    between atoms: N_8  and  C_19
REMARK    4  A    between atoms: C_15  and  C_18
REMARK    5  A    between atoms: C_18  and  C_21
REMARK    6  A    between atoms: C_19  and  C_22
REMARK    7  A    between atoms: C_21  and  C_23
REMARK    8  A    between atoms: C_33  and  C_34
REMARK                            x       y       z     vdW  Elec       q    Type
REMARK                         _______ _______ _______ _____ _____    ______ ____
ROOT
ATOM      4  O   UNL     1      20.164   6.239  23.870  0.00  0.00    -0.274 OA
ATOM      7  N   UNL     1      17.974   6.837  20.734  0.00  0.00    -0.296 NA
ATOM      8  N   UNL     1      21.217   5.352  21.548  0.00  0.00    -0.286 NA
ATOM      9  N   UNL     1      19.256   8.136  22.968  0.00  0.00    -0.312 N 
ATOM     11  C   UNL     1      19.354   6.413  20.410  0.00  0.00    +0.084 C 
ATOM     12  C   UNL     1      20.463   6.617  21.484  0.00  0.00    +0.161 C 
ATOM     13  C   UNL     1      19.489   4.912  20.093  0.00  0.00    +0.036 C 
ATOM     14  C   UNL     1      20.963   4.638  20.302  0.00  0.00    +0.087 C 
ATOM     15  C   UNL     1      17.816   8.300  20.960  0.00  0.00    +0.074 C 
ATOM     16  C   UNL     1      19.953   6.946  22.885  0.00  0.00    +0.232 C 
ATOM     17  C   UNL     1      18.922   8.949  21.815  0.00  0.00    +0.123 C 
ATOM     20  C   UNL     1      17.030   6.375  19.702  0.00  0.00    +0.105 C 
ATOM     35  H   UNL     1      18.958   8.451  23.886  0.00  0.00    +0.149 HD
ENDROOT
BRANCH  15  18
ATOM     18  C   UNL     1      16.466   8.599  21.644  0.00  0.00    +0.029 C 
BRANCH  18  21
ATOM     21  C   UNL     1      15.922   9.961  21.255  0.00  0.00    +0.097 C 
BRANCH  21  23
ATOM      5  O   UNL     1      13.827  10.193  22.337  0.00  0.00    -0.276 OA
ATOM     10  N   UNL     1      13.772   9.723  20.063  0.00  0.00    -0.301 N 
ATOM     23  C   UNL     1      14.414   9.972  21.275  0.00  0.00    +0.216 C 
ATOM     24  C   UNL     1      12.309   9.763  19.992  0.00  0.00    +0.110 C 
ATOM     25  C   UNL     1      14.444   9.456  18.784  0.00  0.00    +0.110 C 
ATOM     26  C   UNL     1      11.758   8.472  19.394  0.00  0.00    +0.050 C 
ATOM     27  C   UNL     1      13.930   8.162  18.161  0.00  0.00    +0.050 C 
ATOM     28  C   UNL     1      12.406   8.169  18.041  0.00  0.00    +0.118 C 
BRANCH  28   6
ATOM      6  O   UNL     1      11.976   6.897  17.575  0.00  0.00    -0.392 OA
ATOM     36  H   UNL     1      11.622   6.409  18.337  0.00  0.00    +0.210 HD
ENDBRANCH  28   6
ENDBRANCH  21  23
ENDBRANCH  18  21
ENDBRANCH  15  18
BRANCH   8  19
ATOM     19  C   UNL     1      22.642   5.540  21.790  0.00  0.00    +0.120 C 
BRANCH  19  22
ATOM     22  C   UNL     1      23.344   4.234  22.055  0.00  0.00    -0.033 A 
ATOM     29  C   UNL     1      22.920   3.414  23.101  0.00  0.00    +0.005 A 
ATOM     30  C   UNL     1      24.417   3.844  21.253  0.00  0.00    +0.005 A 
ATOM     31  C   UNL     1      23.570   2.204  23.345  0.00  0.00    +0.012 A 
ATOM     32  C   UNL     1      25.066   2.634  21.498  0.00  0.00    +0.012 A 
ATOM     33  C   UNL     1      24.642   1.814  22.544  0.00  0.00    +0.055 A 
BRANCH  33  34
ATOM      1  F   UNL     1      26.638   0.661  23.182  0.00  0.00    -0.166 F 
ATOM      2  F   UNL     1      25.360  -0.291  21.703  0.00  0.00    -0.166 F 
ATOM      3  F   UNL     1      24.754  -0.224  23.790  0.00  0.00    -0.166 F 
ATOM     34  C   UNL     1      25.335   0.519  22.802  0.00  0.00    +0.417 C 
ENDBRANCH  33  34
ENDBRANCH  19  22
ENDBRANCH   8  19
TORSDOF 7
ENDMDL
MODEL 4
REMARK VINA RESULT:      -7.7      1.694      2.678
REMARK  Name = 45361204
REMARK  8 active torsions:
REMARK  status: ('A' for Active; 'I' for Inactive)
REMARK    1  A    between atoms: O_6  and  C_28
REMARK    2  A    between atoms: N_7  and  C_20
REMARK    3  A    between atoms: N_8  and  C_19
REMARK    4  A    between atoms: C_15  and  C_18
REMARK    5  A    between atoms: C_18  and  C_21
REMARK    6  A    between atoms: C_19  and  C_22
REMARK    7  A    between atoms: C_21  and  C_23
REMARK    8  A    between atoms: C_33  and  C_34
REMARK                            x       y       z     vdW  Elec       q    Type
REMARK                         _______ _______ _______ _____ _____    ______ ____
ROOT
ATOM      4  O   UNL     1     -13.485   4.847  23.026  0.00  0.00    -0.274 OA
ATOM      7  N   UNL     1     -17.200   3.789  22.754  0.00  0.00    -0.296 NA
ATOM      8  N   UNL     1     -14.980   6.328  21.334  0.00  0.00    -0.286 NA
ATOM      9  N   UNL     1     -15.134   4.606  24.594  0.00  0.00    -0.312 N 
ATOM     11  C   UNL     1     -16.918   5.098  22.126  0.00  0.00    +0.084 C 
ATOM     12  C   UNL     1     -15.644   5.874  22.571  0.00  0.00    +0.161 C 
ATOM     13  C   UNL     1     -16.734   5.032  20.598  0.00  0.00    +0.036 C 
ATOM     14  C   UNL     1     -15.984   6.308  20.277  0.00  0.00    +0.087 C 
ATOM     15  C   UNL     1     -17.463   3.851  24.218  0.00  0.00    +0.074 C 
ATOM     16  C   UNL     1     -14.642   5.060  23.386  0.00  0.00    +0.232 C 
ATOM     17  C   UNL     1     -16.513   4.772  25.010  0.00  0.00    +0.123 C 
ATOM     20  C   UNL     1     -18.308   3.106  22.065  0.00  0.00    +0.105 C 
ATOM     35  H   UNL     1     -14.494   4.124  25.218  0.00  0.00    +0.149 HD
ENDROOT
BRANCH  15  18
ATOM     18  C   UNL     1     -17.374   2.445  24.844  0.00  0.00    +0.029 C 
BRANCH  18  21
ATOM     21  C   UNL     1     -17.908   2.421  26.264  0.00  0.00    +0.097 C 
BRANCH  21  23
ATOM      5  O   UNL     1     -17.607   0.157  26.896  0.00  0.00    -0.276 OA
ATOM     10  N   UNL     1     -16.286   1.724  27.991  0.00  0.00    -0.301 N 
ATOM     23  C   UNL     1     -17.258   1.327  27.073  0.00  0.00    +0.216 C 
ATOM     24  C   UNL     1     -15.576   0.715  28.781  0.00  0.00    +0.110 C 
ATOM     25  C   UNL     1     -15.851   3.108  28.224  0.00  0.00    +0.110 C 
ATOM     26  C   UNL     1     -15.669   1.027  30.272  0.00  0.00    +0.050 C 
ATOM     27  C   UNL     1     -15.946   3.463  29.704  0.00  0.00    +0.050 C 
ATOM     28  C   UNL     1     -15.194   2.451  30.568  0.00  0.00    +0.118 C 
BRANCH  28   6
ATOM      6  O   UNL     1     -15.420   2.759  31.938  0.00  0.00    -0.392 OA
ATOM     36  H   UNL     1     -15.589   3.714  32.001  0.00  0.00    +0.210 HD
ENDBRANCH  28   6
ENDBRANCH  21  23
ENDBRANCH  18  21
ENDBRANCH  15  18
BRANCH   8  19
ATOM     19  C   UNL     1     -14.347   7.634  21.464  0.00  0.00    +0.120 C 
BRANCH  19  22
ATOM     22  C   UNL     1     -13.368   7.896  20.350  0.00  0.00    -0.033 A 
ATOM     29  C   UNL     1     -12.201   7.138  20.254  0.00  0.00    +0.005 A 
ATOM     30  C   UNL     1     -13.629   8.897  19.413  0.00  0.00    +0.005 A 
ATOM     31  C   UNL     1     -11.295   7.381  19.221  0.00  0.00    +0.012 A 
ATOM     32  C   UNL     1     -12.723   9.139  18.381  0.00  0.00    +0.012 A 
ATOM     33  C   UNL     1     -11.556   8.380  18.285  0.00  0.00    +0.055 A 
BRANCH  33  34
ATOM      1  F   UNL     1     -11.089   9.432  16.188  0.00  0.00    -0.166 F 
ATOM      2  F   UNL     1     -10.184   7.491  16.559  0.00  0.00    -0.166 F 
ATOM      3  F   UNL     1      -9.443   9.257  17.588  0.00  0.00    -0.166 F 
ATOM     34  C   UNL     1     -10.589   8.638  17.179  0.00  0.00    +0.417 C 
ENDBRANCH  33  34
ENDBRANCH  19  22
ENDBRANCH   8  19
TORSDOF 7
ENDMDL
MODEL 5
REMARK VINA RESULT:      -7.5     30.430     33.836
REMARK  Name = 45361204
REMARK  8 active torsions:
REMARK  status: ('A' for Active; 'I' for Inactive)
REMARK    1  A    between atoms: O_6  and  C_28
REMARK    2  A    between atoms: N_7  and  C_20
REMARK    3  A    between atoms: N_8  and  C_19
REMARK    4  A    between atoms: C_15  and  C_18
REMARK    5  A    between atoms: C_18  and  C_21
REMARK    6  A    between atoms: C_19  and  C_22
REMARK    7  A    between atoms: C_21  and  C_23
REMARK    8  A    between atoms: C_33  and  C_34
REMARK                            x       y       z     vdW  Elec       q    Type
REMARK                         _______ _______ _______ _____ _____    ______ ____
ROOT
ATOM      4  O   UNL     1      18.642   5.789  19.459  0.00  0.00    -0.274 OA
ATOM      7  N   UNL     1      16.537   8.940  20.254  0.00  0.00    -0.296 NA
ATOM      8  N   UNL     1      19.455   7.200  21.612  0.00  0.00    -0.286 NA
ATOM      9  N   UNL     1      16.407   6.086  19.855  0.00  0.00    -0.312 N 
ATOM     11  C   UNL     1      17.471   8.572  21.340  0.00  0.00    +0.084 C 
ATOM     12  C   UNL     1      17.999   7.109  21.400  0.00  0.00    +0.161 C 
ATOM     13  C   UNL     1      18.780   9.384  21.341  0.00  0.00    +0.036 C 
ATOM     14  C   UNL     1      19.727   8.526  22.154  0.00  0.00    +0.087 C 
ATOM     15  C   UNL     1      15.233   8.222  20.293  0.00  0.00    +0.074 C 
ATOM     16  C   UNL     1      17.745   6.278  20.145  0.00  0.00    +0.232 C 
ATOM     17  C   UNL     1      15.331   6.714  20.596  0.00  0.00    +0.123 C 
ATOM     20  C   UNL     1      16.317  10.396  20.224  0.00  0.00    +0.105 C 
ATOM     35  H   UNL     1      16.171   5.477  19.077  0.00  0.00    +0.149 HD
ENDROOT
BRANCH  15  18
ATOM     18  C   UNL     1      14.490   8.378  18.950  0.00  0.00    +0.029 C 
BRANCH  18  21
ATOM     21  C   UNL     1      13.203   9.168  19.103  0.00  0.00    +0.097 C 
BRANCH  21  23
ATOM      5  O   UNL     1      11.652   7.487  19.722  0.00  0.00    -0.276 OA
ATOM     10  N   UNL     1      12.148   9.084  21.335  0.00  0.00    -0.301 N 
ATOM     23  C   UNL     1      12.264   8.498  20.075  0.00  0.00    +0.216 C 
ATOM     24  C   UNL     1      11.290   8.466  22.348  0.00  0.00    +0.110 C 
ATOM     25  C   UNL     1      12.863  10.287  21.781  0.00  0.00    +0.110 C 
ATOM     26  C   UNL     1      10.286   9.473  22.899  0.00  0.00    +0.050 C 
ATOM     27  C   UNL     1      11.887  11.327  22.325  0.00  0.00    +0.050 C 
ATOM     28  C   UNL     1      10.988  10.733  23.409  0.00  0.00    +0.118 C 
BRANCH  28   6
ATOM      6  O   UNL     1      10.021  11.704  23.788  0.00  0.00    -0.392 OA
ATOM     36  H   UNL     1      10.313  12.098  24.627  0.00  0.00    +0.210 HD
ENDBRANCH  28   6
ENDBRANCH  21  23
ENDBRANCH  18  21
ENDBRANCH  15  18
BRANCH   8  19
ATOM     19  C   UNL     1      19.983   6.142  22.464  0.00  0.00    +0.120 C 
BRANCH  19  22
ATOM     22  C   UNL     1      21.217   5.510  21.875  0.00  0.00    -0.033 A 
ATOM     29  C   UNL     1      21.808   4.415  22.504  0.00  0.00    +0.005 A 
ATOM     30  C   UNL     1      21.768   6.021  20.699  0.00  0.00    +0.005 A 
ATOM     31  C   UNL     1      22.950   3.830  21.957  0.00  0.00    +0.012 A 
ATOM     32  C   UNL     1      22.910   5.436  20.153  0.00  0.00    +0.012 A 
ATOM     33  C   UNL     1      23.501   4.340  20.782  0.00  0.00    +0.055 A 
BRANCH  33  34
ATOM      1  F   UNL     1      25.350   4.497  19.273  0.00  0.00    -0.166 F 
ATOM      2  F   UNL     1      24.449   2.539  19.553  0.00  0.00    -0.166 F 
ATOM      3  F   UNL     1      25.679   3.411  21.120  0.00  0.00    -0.166 F 
ATOM     34  C   UNL     1      24.720   3.713  20.195  0.00  0.00    +0.417 C 
ENDBRANCH  33  34
ENDBRANCH  19  22
ENDBRANCH   8  19
TORSDOF 7
ENDMDL
MODEL 6
REMARK VINA RESULT:      -7.3     19.564     21.118
REMARK  Name = 45361204
REMARK  8 active torsions:
REMARK  status: ('A' for Active; 'I' for Inactive)
REMARK    1  A    between atoms: O_6  and  C_28
REMARK    2  A    between atoms: N_7  and  C_20
REMARK    3  A    between atoms: N_8  and  C_19
REMARK    4  A    between atoms: C_15  and  C_18
REMARK    5  A    between atoms: C_18  and  C_21
REMARK    6  A    between atoms: C_19  and  C_22
REMARK    7  A    between atoms: C_21  and  C_23
REMARK    8  A    between atoms: C_33  and  C_34
REMARK                            x       y       z     vdW  Elec       q    Type
REMARK                         _______ _______ _______ _____ _____    ______ ____
ROOT
ATOM      4  O   UNL     1      -1.944 -11.013  16.291  0.00  0.00    -0.274 OA
ATOM      7  N   UNL     1      -5.569 -12.373  16.312  0.00  0.00    -0.296 NA
ATOM      8  N   UNL     1      -2.444 -12.976  14.506  0.00  0.00    -0.286 NA
ATOM      9  N   UNL     1      -3.973  -9.986  16.036  0.00  0.00    -0.312 N 
ATOM     11  C   UNL     1      -4.782 -12.826  15.145  0.00  0.00    +0.084 C 
ATOM     12  C   UNL     1      -3.528 -12.001  14.731  0.00  0.00    +0.161 C 
ATOM     13  C   UNL     1      -4.195 -14.242  15.298  0.00  0.00    +0.036 C 
ATOM     14  C   UNL     1      -3.074 -14.272  14.282  0.00  0.00    +0.087 C 
ATOM     15  C   UNL     1      -6.211 -11.040  16.143  0.00  0.00    +0.074 C 
ATOM     16  C   UNL     1      -3.054 -10.982  15.764  0.00  0.00    +0.232 C 
ATOM     17  C   UNL     1      -5.316  -9.966  15.493  0.00  0.00    +0.123 C 
ATOM     20  C   UNL     1      -6.576 -13.380  16.688  0.00  0.00    +0.105 C 
ATOM     35  H   UNL     1      -3.689  -9.233  16.656  0.00  0.00    +0.149 HD
ENDROOT
BRANCH  15  18
ATOM     18  C   UNL     1      -6.682 -10.490  17.504  0.00  0.00    +0.029 C 
BRANCH  18  21
ATOM     21  C   UNL     1      -7.735  -9.408  17.345  0.00  0.00    +0.097 C 
BRANCH  21  23
ATOM      5  O   UNL     1      -9.189 -11.017  18.299  0.00  0.00    -0.276 OA
ATOM     10  N   UNL     1     -10.153  -9.006  17.649  0.00  0.00    -0.301 N 
ATOM     23  C   UNL     1      -9.086  -9.889  17.810  0.00  0.00    +0.216 C 
ATOM     24  C   UNL     1     -11.488  -9.384  18.118  0.00  0.00    +0.110 C 
ATOM     25  C   UNL     1     -10.061  -7.659  17.070  0.00  0.00    +0.110 C 
ATOM     26  C   UNL     1     -12.518  -9.245  17.002  0.00  0.00    +0.050 C 
ATOM     27  C   UNL     1     -11.066  -7.487  15.936  0.00  0.00    +0.050 C 
ATOM     28  C   UNL     1     -12.482  -7.843  16.388  0.00  0.00    +0.118 C 
BRANCH  28   6
ATOM      6  O   UNL     1     -13.352  -7.786  15.265  0.00  0.00    -0.392 OA
ATOM     36  H   UNL     1     -13.414  -6.857  14.988  0.00  0.00    +0.210 HD
ENDBRANCH  28   6
ENDBRANCH  21  23
ENDBRANCH  18  21
ENDBRANCH  15  18
BRANCH   8  19
ATOM     19  C   UNL     1      -1.550 -12.605  13.417  0.00  0.00    +0.120 C 
BRANCH  19  22
ATOM     22  C   UNL     1      -2.280 -11.883  12.314  0.00  0.00    -0.033 A 
ATOM     29  C   UNL     1      -3.184 -12.574  11.506  0.00  0.00    +0.005 A 
ATOM     30  C   UNL     1      -2.053 -10.523  12.101  0.00  0.00    +0.005 A 
ATOM     31  C   UNL     1      -3.860 -11.905  10.486  0.00  0.00    +0.012 A 
ATOM     32  C   UNL     1      -2.729  -9.855  11.080  0.00  0.00    +0.012 A 
ATOM     33  C   UNL     1      -3.633 -10.546  10.273  0.00  0.00    +0.055 A 
BRANCH  33  34
ATOM      1  F   UNL     1      -3.819  -8.615   8.874  0.00  0.00    -0.166 F 
ATOM      2  F   UNL     1      -5.663  -9.582   9.498  0.00  0.00    -0.166 F 
ATOM      3  F   UNL     1      -4.390 -10.518   8.005  0.00  0.00    -0.166 F 
ATOM     34  C   UNL     1      -4.358  -9.830   9.184  0.00  0.00    +0.417 C 
ENDBRANCH  33  34
ENDBRANCH  19  22
ENDBRANCH   8  19
TORSDOF 7
ENDMDL
MODEL 7
REMARK VINA RESULT:      -7.2     18.558     21.077
REMARK  Name = 45361204
REMARK  8 active torsions:
REMARK  status: ('A' for Active; 'I' for Inactive)
REMARK    1  A    between atoms: O_6  and  C_28
REMARK    2  A    between atoms: N_7  and  C_20
REMARK    3  A    between atoms: N_8  and  C_19
REMARK    4  A    between atoms: C_15  and  C_18
REMARK    5  A    between atoms: C_18  and  C_21
REMARK    6  A    between atoms: C_19  and  C_22
REMARK    7  A    between atoms: C_21  and  C_23
REMARK    8  A    between atoms: C_33  and  C_34
REMARK                            x       y       z     vdW  Elec       q    Type
REMARK                         _______ _______ _______ _____ _____    ______ ____
ROOT
ATOM      4  O   UNL     1      -6.406 -10.281  20.156  0.00  0.00    -0.274 OA
ATOM      7  N   UNL     1      -5.747 -10.506  16.348  0.00  0.00    -0.296 NA
ATOM      8  N   UNL     1      -8.520 -11.061  18.670  0.00  0.00    -0.286 NA
ATOM      9  N   UNL     1      -4.858 -11.437  18.929  0.00  0.00    -0.312 N 
ATOM     11  C   UNL     1      -7.027 -11.125  16.757  0.00  0.00    +0.084 C 
ATOM     12  C   UNL     1      -7.199 -11.558  18.242  0.00  0.00    +0.161 C 
ATOM     13  C   UNL     1      -8.255 -10.222  16.543  0.00  0.00    +0.036 C 
ATOM     14  C   UNL     1      -9.299 -10.823  17.461  0.00  0.00    +0.087 C 
ATOM     15  C   UNL     1      -4.562 -11.399  16.471  0.00  0.00    +0.074 C 
ATOM     16  C   UNL     1      -6.145 -11.011  19.201  0.00  0.00    +0.232 C 
ATOM     17  C   UNL     1      -4.508 -12.230  17.768  0.00  0.00    +0.123 C 
ATOM     20  C   UNL     1      -5.840  -9.967  14.980  0.00  0.00    +0.105 C 
ATOM     35  H   UNL     1      -4.122 -11.172  19.576  0.00  0.00    +0.149 HD
ENDROOT
BRANCH  15  18
ATOM     18  C   UNL     1      -3.258 -10.581  16.388  0.00  0.00    +0.029 C 
BRANCH  18  21
ATOM     21  C   UNL     1      -2.186 -11.300  15.590  0.00  0.00    +0.097 C 
BRANCH  21  23
ATOM      5  O   UNL     1      -1.097  -9.426  14.634  0.00  0.00    -0.276 OA
ATOM     10  N   UNL     1      -2.050 -10.939  13.150  0.00  0.00    -0.301 N 
ATOM     23  C   UNL     1      -1.725 -10.466  14.421  0.00  0.00    +0.216 C 
ATOM     24  C   UNL     1      -1.597 -10.209  11.964  0.00  0.00    +0.110 C 
ATOM     25  C   UNL     1      -2.797 -12.172  12.868  0.00  0.00    +0.110 C 
ATOM     26  C   UNL     1      -2.769  -9.887  11.042  0.00  0.00    +0.050 C 
ATOM     27  C   UNL     1      -3.989 -11.888  11.960  0.00  0.00    +0.050 C 
ATOM     28  C   UNL     1      -3.559 -11.150  10.692  0.00  0.00    +0.118 C 
BRANCH  28   6
ATOM      6  O   UNL     1      -4.719 -10.801   9.947  0.00  0.00    -0.392 OA
ATOM     36  H   UNL     1      -5.392 -10.494  10.578  0.00  0.00    +0.210 HD
ENDBRANCH  28   6
ENDBRANCH  21  23
ENDBRANCH  18  21
ENDBRANCH  15  18
BRANCH   8  19
ATOM     19  C   UNL     1      -9.203 -11.958  19.594  0.00  0.00    +0.120 C 
BRANCH  19  22
ATOM     22  C   UNL     1     -10.598 -11.483  19.908  0.00  0.00    -0.033 A 
ATOM     29  C   UNL     1     -11.666 -12.379  19.862  0.00  0.00    +0.005 A 
ATOM     30  C   UNL     1     -10.820 -10.148  20.245  0.00  0.00    +0.005 A 
ATOM     31  C   UNL     1     -12.957 -11.938  20.153  0.00  0.00    +0.012 A 
ATOM     32  C   UNL     1     -12.112  -9.709  20.537  0.00  0.00    +0.012 A 
ATOM     33  C   UNL     1     -13.180 -10.604  20.491  0.00  0.00    +0.055 A 
BRANCH  33  34
ATOM      1  F   UNL     1     -14.649  -8.786  20.998  0.00  0.00    -0.166 F 
ATOM      2  F   UNL     1     -15.060 -10.700  21.944  0.00  0.00    -0.166 F 
ATOM      3  F   UNL     1     -15.470 -10.416  19.828  0.00  0.00    -0.166 F 
ATOM     34  C   UNL     1     -14.560 -10.134  20.806  0.00  0.00    +0.417 C 
ENDBRANCH  33  34
ENDBRANCH  19  22
ENDBRANCH   8  19
TORSDOF 7
ENDMDL
MODEL 8
REMARK VINA RESULT:      -7.2     27.028     29.139
REMARK  Name = 45361204
REMARK  8 active torsions:
REMARK  status: ('A' for Active; 'I' for Inactive)
REMARK    1  A    between atoms: O_6  and  C_28
REMARK    2  A    between atoms: N_7  and  C_20
REMARK    3  A    between atoms: N_8  and  C_19
REMARK    4  A    between atoms: C_15  and  C_18
REMARK    5  A    between atoms: C_18  and  C_21
REMARK    6  A    between atoms: C_19  and  C_22
REMARK    7  A    between atoms: C_21  and  C_23
REMARK    8  A    between atoms: C_33  and  C_34
REMARK                            x       y       z     vdW  Elec       q    Type
REMARK                         _______ _______ _______ _____ _____    ______ ____
ROOT
ATOM      4  O   UNL     1      14.593   7.667  22.340  0.00  0.00    -0.274 OA
ATOM      7  N   UNL     1      12.085  10.512  23.116  0.00  0.00    -0.296 NA
ATOM      8  N   UNL     1      12.132   7.349  21.277  0.00  0.00    -0.286 NA
ATOM      9  N   UNL     1      14.675   9.926  21.989  0.00  0.00    -0.312 N 
ATOM     11  C   UNL     1      11.610   9.585  22.066  0.00  0.00    +0.084 C 
ATOM     12  C   UNL     1      12.661   8.725  21.305  0.00  0.00    +0.161 C 
ATOM     13  C   UNL     1      10.630   8.512  22.577  0.00  0.00    +0.036 C 
ATOM     14  C   UNL     1      10.695   7.438  21.511  0.00  0.00    +0.087 C 
ATOM     15  C   UNL     1      12.967  11.605  22.621  0.00  0.00    +0.074 C 
ATOM     16  C   UNL     1      14.051   8.694  21.937  0.00  0.00    +0.232 C 
ATOM     17  C   UNL     1      14.032  11.165  21.597  0.00  0.00    +0.123 C 
ATOM     20  C   UNL     1      10.952  11.074  23.871  0.00  0.00    +0.105 C 
ATOM     35  H   UNL     1      15.632   9.961  22.326  0.00  0.00    +0.149 HD
ENDROOT
BRANCH  15  18
ATOM     18  C   UNL     1      13.703  12.280  23.796  0.00  0.00    +0.029 C 
BRANCH  18  21
ATOM     21  C   UNL     1      13.673  13.793  23.689  0.00  0.00    +0.097 C 
BRANCH  21  23
ATOM      5  O   UNL     1      12.376  14.285  25.609  0.00  0.00    -0.276 OA
ATOM     10  N   UNL     1      11.499  14.959  23.566  0.00  0.00    -0.301 N 
ATOM     23  C   UNL     1      12.462  14.366  24.381  0.00  0.00    +0.216 C 
ATOM     24  C   UNL     1      10.316  15.578  24.169  0.00  0.00    +0.110 C 
ATOM     25  C   UNL     1      11.575  15.069  22.103  0.00  0.00    +0.110 C 
ATOM     26  C   UNL     1       9.037  15.019  23.556  0.00  0.00    +0.050 C 
ATOM     27  C   UNL     1      10.317  14.503  21.452  0.00  0.00    +0.050 C 
ATOM     28  C   UNL     1       9.055  15.142  22.031  0.00  0.00    +0.118 C 
BRANCH  28   6
ATOM      6  O   UNL     1       7.916  14.492  21.481  0.00  0.00    -0.392 OA
ATOM     36  H   UNL     1       7.676  14.959  20.664  0.00  0.00    +0.210 HD
ENDBRANCH  28   6
ENDBRANCH  21  23
ENDBRANCH  18  21
ENDBRANCH  15  18
BRANCH   8  19
ATOM     19  C   UNL     1      12.443   6.635  20.045  0.00  0.00    +0.120 C 
BRANCH  19  22
ATOM     22  C   UNL     1      12.750   7.580  18.913  0.00  0.00    -0.033 A 
ATOM     29  C   UNL     1      14.068   7.761  18.494  0.00  0.00    +0.005 A 
ATOM     30  C   UNL     1      11.716   8.273  18.282  0.00  0.00    +0.005 A 
ATOM     31  C   UNL     1      14.352   8.636  17.445  0.00  0.00    +0.012 A 
ATOM     32  C   UNL     1      12.001   9.146  17.233  0.00  0.00    +0.012 A 
ATOM     33  C   UNL     1      13.319   9.328  16.814  0.00  0.00    +0.055 A 
BRANCH  33  34
ATOM      1  F   UNL     1      12.601  10.386  14.793  0.00  0.00    -0.166 F 
ATOM      2  F   UNL     1      14.705   9.865  14.959  0.00  0.00    -0.166 F 
ATOM      3  F   UNL     1      13.900  11.534  16.096  0.00  0.00    -0.166 F 
ATOM     34  C   UNL     1      13.622  10.260  15.690  0.00  0.00    +0.417 C 
ENDBRANCH  33  34
ENDBRANCH  19  22
ENDBRANCH   8  19
TORSDOF 7
ENDMDL
MODEL 9
REMARK VINA RESULT:      -7.2     19.744     22.356
REMARK  Name = 45361204
REMARK  8 active torsions:
REMARK  status: ('A' for Active; 'I' for Inactive)
REMARK    1  A    between atoms: O_6  and  C_28
REMARK    2  A    between atoms: N_7  and  C_20
REMARK    3  A    between atoms: N_8  and  C_19
REMARK    4  A    between atoms: C_15  and  C_18
REMARK    5  A    between atoms: C_18  and  C_21
REMARK    6  A    between atoms: C_19  and  C_22
REMARK    7  A    between atoms: C_21  and  C_23
REMARK    8  A    between atoms: C_33  and  C_34
REMARK                            x       y       z     vdW  Elec       q    Type
REMARK                         _______ _______ _______ _____ _____    ______ ____
ROOT
ATOM      4  O   UNL     1      -6.831  -8.091   9.276  0.00  0.00    -0.274 OA
ATOM      7  N   UNL     1      -9.939  -9.034   7.168  0.00  0.00    -0.296 NA
ATOM      8  N   UNL     1      -6.643 -10.426   7.934  0.00  0.00    -0.286 NA
ATOM      9  N   UNL     1      -7.951  -6.990   7.611  0.00  0.00    -0.312 N 
ATOM     11  C   UNL     1      -8.758  -9.876   6.878  0.00  0.00    +0.084 C 
ATOM     12  C   UNL     1      -7.348  -9.328   7.246  0.00  0.00    +0.161 C 
ATOM     13  C   UNL     1      -8.770 -11.238   7.598  0.00  0.00    +0.036 C 
ATOM     14  C   UNL     1      -7.318 -11.665   7.568  0.00  0.00    +0.087 C 
ATOM     15  C   UNL     1      -9.981  -7.750   6.414  0.00  0.00    +0.074 C 
ATOM     16  C   UNL     1      -7.348  -8.106   8.160  0.00  0.00    +0.232 C 
ATOM     17  C   UNL     1      -8.638  -6.999   6.335  0.00  0.00    +0.123 C 
ATOM     20  C   UNL     1     -11.186  -9.789   6.960  0.00  0.00    +0.105 C 
ATOM     35  H   UNL     1      -7.915  -6.122   8.137  0.00  0.00    +0.149 HD
ENDROOT
BRANCH  15  18
ATOM     18  C   UNL     1     -11.014  -6.790   7.038  0.00  0.00    +0.029 C 
BRANCH  18  21
ATOM     21  C   UNL     1     -10.934  -6.779   8.553  0.00  0.00    +0.097 C 
BRANCH  21  23
ATOM      5  O   UNL     1      -9.800  -4.719   8.843  0.00  0.00    -0.276 OA
ATOM     10  N   UNL     1     -11.896  -4.894   9.828  0.00  0.00    -0.301 N 
ATOM     23  C   UNL     1     -10.819  -5.372   9.083  0.00  0.00    +0.216 C 
ATOM     24  C   UNL     1     -11.878  -3.521  10.337  0.00  0.00    +0.110 C 
ATOM     25  C   UNL     1     -13.121  -5.648  10.130  0.00  0.00    +0.110 C 
ATOM     26  C   UNL     1     -12.126  -3.495  11.842  0.00  0.00    +0.050 C 
ATOM     27  C   UNL     1     -13.394  -5.659  11.631  0.00  0.00    +0.050 C 
ATOM     28  C   UNL     1     -13.412  -4.241  12.203  0.00  0.00    +0.118 C 
BRANCH  28   6
ATOM      6  O   UNL     1     -13.544  -4.318  13.617  0.00  0.00    -0.392 OA
ATOM     36  H   UNL     1     -14.286  -4.915  13.811  0.00  0.00    +0.210 HD
ENDBRANCH  28   6
ENDBRANCH  21  23
ENDBRANCH  18  21
ENDBRANCH  15  18
BRANCH   8  19
ATOM     19  C   UNL     1      -5.216 -10.470   7.638  0.00  0.00    +0.120 C 
BRANCH  19  22
ATOM     22  C   UNL     1      -4.384 -10.492   8.894  0.00  0.00    -0.033 A 
ATOM     29  C   UNL     1      -4.234 -11.679   9.611  0.00  0.00    +0.005 A 
ATOM     30  C   UNL     1      -3.762  -9.324   9.338  0.00  0.00    +0.005 A 
ATOM     31  C   UNL     1      -3.462 -11.698  10.773  0.00  0.00    +0.012 A 
ATOM     32  C   UNL     1      -2.991  -9.345  10.500  0.00  0.00    +0.012 A 
ATOM     33  C   UNL     1      -2.841 -10.532  11.217  0.00  0.00    +0.055 A 
BRANCH  33  34
ATOM      1  F   UNL     1      -2.727 -10.319  13.597  0.00  0.00    -0.166 F 
ATOM      2  F   UNL     1      -1.024  -9.612  12.445  0.00  0.00    -0.166 F 
ATOM      3  F   UNL     1      -1.380 -11.745  12.672  0.00  0.00    -0.166 F 
ATOM     34  C   UNL     1      -2.013 -10.554  12.458  0.00  0.00    +0.417 C 
ENDBRANCH  33  34
ENDBRANCH  19  22
ENDBRANCH   8  19
TORSDOF 7
ENDMDL
MODEL 10
REMARK VINA RESULT:      -7.2     19.493     21.011
REMARK  Name = 45361204
REMARK  8 active torsions:
REMARK  status: ('A' for Active; 'I' for Inactive)
REMARK    1  A    between atoms: O_6  and  C_28
REMARK    2  A    between atoms: N_7  and  C_20
REMARK    3  A    between atoms: N_8  and  C_19
REMARK    4  A    between atoms: C_15  and  C_18
REMARK    5  A    between atoms: C_18  and  C_21
REMARK    6  A    between atoms: C_19  and  C_22
REMARK    7  A    between atoms: C_21  and  C_23
REMARK    8  A    between atoms: C_33  and  C_34
REMARK                            x       y       z     vdW  Elec       q    Type
REMARK                         _______ _______ _______ _____ _____    ______ ____
ROOT
ATOM      4  O   UNL     1      -6.748  -8.776  12.092  0.00  0.00    -0.274 OA
ATOM      7  N   UNL     1      -3.205 -10.336  12.042  0.00  0.00    -0.296 NA
ATOM      8  N   UNL     1      -5.755  -9.290   9.635  0.00  0.00    -0.286 NA
ATOM      9  N   UNL     1      -5.885 -10.662  13.058  0.00  0.00    -0.312 N 
ATOM     11  C   UNL     1      -3.882 -10.382  10.728  0.00  0.00    +0.084 C 
ATOM     12  C   UNL     1      -5.435 -10.270  10.690  0.00  0.00    +0.161 C 
ATOM     13  C   UNL     1      -3.457  -9.258   9.765  0.00  0.00    +0.036 C 
ATOM     14  C   UNL     1      -4.590  -9.205   8.762  0.00  0.00    +0.087 C 
ATOM     15  C   UNL     1      -3.544 -11.465  12.951  0.00  0.00    +0.074 C 
ATOM     16  C   UNL     1      -6.081  -9.804  11.992  0.00  0.00    +0.232 C 
ATOM     17  C   UNL     1      -5.039 -11.838  12.993  0.00  0.00    +0.123 C 
ATOM     20  C   UNL     1      -1.745 -10.236  11.875  0.00  0.00    +0.105 C 
ATOM     35  H   UNL     1      -6.354 -10.450  13.933  0.00  0.00    +0.149 HD
ENDROOT
BRANCH  15  18
ATOM     18  C   UNL     1      -3.105 -11.147  14.395  0.00  0.00    +0.029 C 
BRANCH  18  21
ATOM     21  C   UNL     1      -3.751 -12.079  15.403  0.00  0.00    +0.097 C 
BRANCH  21  23
ATOM      5  O   UNL     1      -2.850 -10.958  17.285  0.00  0.00    -0.276 OA
ATOM     10  N   UNL     1      -5.131 -11.397  17.335  0.00  0.00    -0.301 N 
ATOM     23  C   UNL     1      -3.862 -11.426  16.757  0.00  0.00    +0.216 C 
ATOM     24  C   UNL     1      -5.327 -10.739  18.629  0.00  0.00    +0.110 C 
ATOM     25  C   UNL     1      -6.352 -11.947  16.730  0.00  0.00    +0.110 C 
ATOM     26  C   UNL     1      -6.000 -11.681  19.622  0.00  0.00    +0.050 C 
ATOM     27  C   UNL     1      -7.046 -12.909  17.690  0.00  0.00    +0.050 C 
ATOM     28  C   UNL     1      -7.298 -12.255  19.048  0.00  0.00    +0.118 C 
BRANCH  28   6
ATOM      6  O   UNL     1      -7.828 -13.230  19.937  0.00  0.00    -0.392 OA
ATOM     36  H   UNL     1      -7.258 -13.252  20.723  0.00  0.00    +0.210 HD
ENDBRANCH  28   6
ENDBRANCH  21  23
ENDBRANCH  18  21
ENDBRANCH  15  18
BRANCH   8  19
ATOM     19  C   UNL     1      -6.970  -9.612   8.898  0.00  0.00    +0.120 C 
BRANCH  19  22
ATOM     22  C   UNL     1      -7.949  -8.467   8.903  0.00  0.00    -0.033 A 
ATOM     29  C   UNL     1      -9.189  -8.611   9.524  0.00  0.00    +0.005 A 
ATOM     30  C   UNL     1      -7.613  -7.260   8.286  0.00  0.00    +0.005 A 
ATOM     31  C   UNL     1     -10.094  -7.550   9.529  0.00  0.00    +0.012 A 
ATOM     32  C   UNL     1      -8.519  -6.200   8.292  0.00  0.00    +0.012 A 
ATOM     33  C   UNL     1      -9.760  -6.345   8.913  0.00  0.00    +0.055 A 
BRANCH  33  34
ATOM      1  F   UNL     1     -11.718  -5.327   7.991  0.00  0.00    -0.166 F 
ATOM      2  F   UNL     1     -10.127  -4.009   8.667  0.00  0.00    -0.166 F 
ATOM      3  F   UNL     1     -11.373  -5.050  10.114  0.00  0.00    -0.166 F 
ATOM     34  C   UNL     1     -10.726  -5.209   8.921  0.00  0.00    +0.417 C 
ENDBRANCH  33  34
ENDBRANCH  19  22
ENDBRANCH   8  19
TORSDOF 7
ENDMDL
