REMARK  Name = 7674043
REMARK  7 active torsions:
REMARK  status: ('A' for Active; 'I' for Inactive)
REMARK    1  A    between atoms: S_1  and  N_9
REMARK    2  A    between atoms: S_1  and  C_22
REMARK    3  A    between atoms: O_8  and  C_25
REMARK    4  A    between atoms: O_8  and  C_31
REMARK    5  A    between atoms: N_11  and  C_18
REMARK    6  A    between atoms: C_13  and  C_17
REMARK    7  A    between atoms: C_21  and  C_25
REMARK                            x       y       z     vdW  Elec       q    Type
REMARK                         _______ _______ _______ _____ _____    ______ ____
ROOT
ATOM      6  O   UNL     1      -1.719  -3.293   1.685  0.00  0.00    -0.273 OA
ATOM      9  N   UNL     1       1.037  -0.181  -1.120  0.00  0.00    -0.162 NA
ATOM     10  N   UNL     1      -0.130  -2.441   0.215  0.00  0.00    -0.296 N 
ATOM     13  C   UNL     1       0.140   0.033   0.051  0.00  0.00    +0.183 C 
ATOM     14  C   UNL     1       0.034  -1.190   0.958  0.00  0.00    +0.138 C 
ATOM     15  C   UNL     1       1.727  -1.496  -1.143  0.00  0.00    +0.129 C 
ATOM     16  C   UNL     1       0.695  -2.604  -0.985  0.00  0.00    +0.125 C 
ATOM     21  C   UNL     1      -1.018  -3.414   0.678  0.00  0.00    +0.241 C 
ENDROOT
BRANCH  13  17
ATOM      3  O   UNL     1      -1.558  -0.118  -1.616  0.00  0.00    -0.274 OA
ATOM     11  N   UNL     1      -1.884   1.297   0.204  0.00  0.00    -0.303 N 
ATOM     17  C   UNL     1      -1.184   0.374  -0.554  0.00  0.00    +0.234 C 
ATOM     32  H   UNL     1      -1.490   1.613   1.085  0.00  0.00    +0.149 HD
BRANCH  11  18
ATOM      7  O   UNL     1      -2.260   4.004   0.228  0.00  0.00    -0.274 OA
ATOM     12  N   UNL     1      -4.504   3.750   0.569  0.00  0.00    -0.314 N 
ATOM     18  C   UNL     1      -3.177   1.808  -0.173  0.00  0.00    +0.159 C 
ATOM     19  C   UNL     1      -4.290   0.933   0.388  0.00  0.00    +0.033 C 
ATOM     20  C   UNL     1      -5.635   1.590   0.126  0.00  0.00    +0.021 C 
ATOM     23  C   UNL     1      -3.248   3.268   0.258  0.00  0.00    +0.233 C 
ATOM     24  C   UNL     1      -5.676   2.934   0.827  0.00  0.00    +0.104 C 
ATOM     33  H   UNL     1      -4.572   4.736   0.801  0.00  0.00    +0.149 HD
ENDBRANCH  11  18
ENDBRANCH  13  17
BRANCH   9   1
ATOM      1  S   UNL     1       1.961   1.163  -1.635  0.00  0.00    +0.062 S 
ATOM      4  O   UNL     1       1.207   2.376  -1.396  0.00  0.00    -0.153 OA
ATOM      5  O   UNL     1       2.520   0.879  -2.939  0.00  0.00    -0.153 OA
BRANCH   1  22
ATOM      2  F   UNL     1       6.347   0.967   2.299  0.00  0.00    -0.205 F 
ATOM     22  C   UNL     1       3.275   1.105  -0.456  0.00  0.00    +0.106 A 
ATOM     26  C   UNL     1       4.425   0.364  -0.731  0.00  0.00    +0.031 A 
ATOM     27  C   UNL     1       3.163   1.798   0.749  0.00  0.00    +0.031 A 
ATOM     28  C   UNL     1       5.463   0.318   0.200  0.00  0.00    +0.040 A 
ATOM     29  C   UNL     1       4.200   1.752   1.679  0.00  0.00    +0.040 A 
ATOM     30  C   UNL     1       5.351   1.012   1.405  0.00  0.00    +0.124 A 
ENDBRANCH   1  22
ENDBRANCH   9   1
BRANCH  21  25
ATOM     25  C   UNL     1      -1.091  -4.684  -0.135  0.00  0.00    +0.255 C 
BRANCH  25   8
ATOM      8  O   UNL     1      -2.005  -5.529   0.521  0.00  0.00    -0.374 OA
ATOM     31  C   UNL     1      -2.164  -6.775  -0.156  0.00  0.00    +0.194 C 
ENDBRANCH  25   8
ENDBRANCH  21  25
TORSDOF 6
