MODEL 1
REMARK VINA RESULT:      -6.2      0.000      0.000
REMARK  Name = 75536154
REMARK  13 active torsions:
REMARK  status: ('A' for Active; 'I' for Inactive)
REMARK    1  A    between atoms: O_2  and  C_26
REMARK    2  A    between atoms: O_2  and  C_30
REMARK    3  A    between atoms: N_3  and  C_14
REMARK    4  A    between atoms: N_6  and  C_25
REMARK    5  A    between atoms: C_7  and  C_11
REMARK    6  A    between atoms: C_8  and  C_14
REMARK    7  A    between atoms: C_10  and  C_15
REMARK    8  A    between atoms: C_11  and  C_16
REMARK    9  A    between atoms: C_11  and  C_17
REMARK   10  A    between atoms: C_12  and  C_18
REMARK   11  A    between atoms: C_15  and  C_19
REMARK   12  A    between atoms: C_25  and  C_28
REMARK   13  A    between atoms: C_28  and  C_29
REMARK                            x       y       z     vdW  Elec       q    Type
REMARK                         _______ _______ _______ _____ _____    ______ ____
ROOT
ATOM      7  C   UNL     1       9.106   8.266   5.263  0.00  0.00    +0.000 C 
ATOM      8  C   UNL     1       8.764   8.908   6.630  0.00  0.00    +0.032 C 
ATOM      9  C   UNL     1       8.598   6.817   5.209  0.00  0.00    +0.012 C 
ATOM     10  C   UNL     1       9.205   5.945   6.325  0.00  0.00    +0.022 C 
ATOM     12  C   UNL     1       9.146   6.633   7.673  0.00  0.00    -0.073 C 
ATOM     13  C   UNL     1       8.935   7.956   7.790  0.00  0.00    -0.022 C 
ATOM     18  C   UNL     1       9.290   5.757   8.887  0.00  0.00    +0.039 C 
ENDROOT
BRANCH   7  11
ATOM     11  C   UNL     1       8.519   9.065   4.096  0.00  0.00    -0.013 C 
ATOM     16  C   UNL     1       8.559   8.240   2.813  0.00  0.00    +0.007 C 
ATOM     17  C   UNL     1       7.093   9.503   4.414  0.00  0.00    +0.007 C 
ENDBRANCH   7  11
BRANCH   8  14
ATOM     14  C   UNL     1       9.604  10.167   6.876  0.00  0.00    +0.113 C 
BRANCH  14   3
ATOM      1  O   UNL     1      12.023  10.206   5.304  0.00  0.00    -0.253 OA
ATOM      3  N   UNL     1      10.920   9.822   7.312  0.00  0.00    -0.299 N 
ATOM      6  N   UNL     1      13.203   9.480   7.166  0.00  0.00    -0.299 N 
ATOM     20  C   UNL     1      12.050   9.866   6.486  0.00  0.00    +0.300 C 
ATOM     31  H   UNL     1      11.061   9.593   8.292  0.00  0.00    +0.150 HD
ATOM     33  H   UNL     1      13.126   9.206   8.140  0.00  0.00    +0.150 HD
BRANCH   6  25
ATOM     25  C   UNL     1      14.504   9.439   6.540  0.00  0.00    +0.105 C 
BRANCH  25  28
ATOM     28  C   UNL     1      14.914   8.024   6.148  0.00  0.00    +0.015 C 
ATOM     29  C   UNL     1      14.073   6.956   6.833  0.00  0.00    +0.005 C 
ENDBRANCH  25  28
ENDBRANCH   6  25
ENDBRANCH  14   3
ENDBRANCH   8  14
BRANCH  10  15
ATOM     15  C   UNL     1      10.640   5.531   5.982  0.00  0.00    +0.082 C 
BRANCH  15  19
ATOM      4  N   UNL     1      10.244   4.509   3.733  0.00  0.00    -0.342 N 
ATOM      5  N   UNL     1      11.605   6.265   3.774  0.00  0.00    -0.232 NA
ATOM     19  C   UNL     1      10.853   5.465   4.497  0.00  0.00    +0.109 A 
ATOM     21  C   UNL     1      10.628   4.704   2.431  0.00  0.00    +0.070 A 
ATOM     22  C   UNL     1      11.478   5.806   2.483  0.00  0.00    +0.089 A 
ATOM     23  C   UNL     1      10.316   4.033   1.249  0.00  0.00    +0.073 A 
ATOM     24  C   UNL     1      12.059   6.279   1.295  0.00  0.00    +0.033 A 
ATOM     26  C   UNL     1      10.902   4.517   0.076  0.00  0.00    +0.122 A 
ATOM     27  C   UNL     1      11.759   5.621   0.096  0.00  0.00    +0.048 A 
ATOM     32  H   UNL     1       9.620   3.785   4.067  0.00  0.00    +0.167 HD
BRANCH  26   2
ATOM      2  O   UNL     1      10.632   3.900  -1.110  0.00  0.00    -0.495 OA
ATOM     30  C   UNL     1      10.472   4.738  -2.253  0.00  0.00    +0.277 C 
ENDBRANCH  26   2
ENDBRANCH  15  19
ENDBRANCH  10  15
TORSDOF 8
ENDMDL
MODEL 2
REMARK VINA RESULT:      -6.2     16.043     19.407
REMARK  Name = 75536154
REMARK  13 active torsions:
REMARK  status: ('A' for Active; 'I' for Inactive)
REMARK    1  A    between atoms: O_2  and  C_26
REMARK    2  A    between atoms: O_2  and  C_30
REMARK    3  A    between atoms: N_3  and  C_14
REMARK    4  A    between atoms: N_6  and  C_25
REMARK    5  A    between atoms: C_7  and  C_11
REMARK    6  A    between atoms: C_8  and  C_14
REMARK    7  A    between atoms: C_10  and  C_15
REMARK    8  A    between atoms: C_11  and  C_16
REMARK    9  A    between atoms: C_11  and  C_17
REMARK   10  A    between atoms: C_12  and  C_18
REMARK   11  A    between atoms: C_15  and  C_19
REMARK   12  A    between atoms: C_25  and  C_28
REMARK   13  A    between atoms: C_28  and  C_29
REMARK                            x       y       z     vdW  Elec       q    Type
REMARK                         _______ _______ _______ _____ _____    ______ ____
ROOT
ATOM      7  C   UNL     1      20.207   5.895  21.835  0.00  0.00    +0.000 C 
ATOM      8  C   UNL     1      20.588   7.183  22.606  0.00  0.00    +0.032 C 
ATOM      9  C   UNL     1      19.573   6.247  20.481  0.00  0.00    +0.012 C 
ATOM     10  C   UNL     1      18.309   7.114  20.637  0.00  0.00    +0.022 C 
ATOM     12  C   UNL     1      18.530   8.262  21.601  0.00  0.00    -0.073 C 
ATOM     13  C   UNL     1      19.560   8.281  22.464  0.00  0.00    -0.022 C 
ATOM     18  C   UNL     1      17.561   9.409  21.518  0.00  0.00    +0.039 C 
ENDROOT
BRANCH   7  11
ATOM     11  C   UNL     1      21.419   4.983  21.619  0.00  0.00    -0.013 C 
ATOM     16  C   UNL     1      21.015   3.739  20.833  0.00  0.00    +0.007 C 
ATOM     17  C   UNL     1      22.533   5.738  20.902  0.00  0.00    +0.007 C 
ENDBRANCH   7  11
BRANCH   8  14
ATOM     14  C   UNL     1      20.819   6.890  24.093  0.00  0.00    +0.113 C 
BRANCH  14   3
ATOM      1  O   UNL     1      21.429   7.670  26.804  0.00  0.00    -0.253 OA
ATOM      3  N   UNL     1      20.089   7.808  24.911  0.00  0.00    -0.299 N 
ATOM      6  N   UNL     1      19.566   9.053  26.788  0.00  0.00    -0.299 N 
ATOM     20  C   UNL     1      20.450   8.136  26.223  0.00  0.00    +0.300 C 
ATOM     31  H   UNL     1      19.301   8.300  24.501  0.00  0.00    +0.150 HD
ATOM     33  H   UNL     1      18.778   9.376  26.235  0.00  0.00    +0.150 HD
BRANCH   6  25
ATOM     25  C   UNL     1      19.713   9.556  28.134  0.00  0.00    +0.105 C 
BRANCH  25  28
ATOM     28  C   UNL     1      18.507  10.371  28.584  0.00  0.00    +0.015 C 
ATOM     29  C   UNL     1      18.129  11.461  27.590  0.00  0.00    +0.005 C 
ENDBRANCH  25  28
ENDBRANCH   6  25
ENDBRANCH  14   3
ENDBRANCH   8  14
BRANCH  10  15
ATOM     15  C   UNL     1      17.107   6.264  21.061  0.00  0.00    +0.082 C 
BRANCH  15  19
ATOM      4  N   UNL     1      15.878   7.169  19.079  0.00  0.00    -0.342 N 
ATOM      5  N   UNL     1      14.634   6.696  20.860  0.00  0.00    -0.232 NA
ATOM     19  C   UNL     1      15.851   6.701  20.364  0.00  0.00    +0.109 A 
ATOM     21  C   UNL     1      14.592   7.487  18.722  0.00  0.00    +0.070 A 
ATOM     22  C   UNL     1      13.834   7.182  19.850  0.00  0.00    +0.089 A 
ATOM     23  C   UNL     1      14.044   7.997  17.546  0.00  0.00    +0.073 A 
ATOM     24  C   UNL     1      12.446   7.395  19.820  0.00  0.00    +0.033 A 
ATOM     26  C   UNL     1      12.660   8.203  17.534  0.00  0.00    +0.122 A 
ATOM     27  C   UNL     1      11.874   7.907  18.650  0.00  0.00    +0.048 A 
ATOM     32  H   UNL     1      16.698   7.264  18.494  0.00  0.00    +0.167 HD
BRANCH  26   2
ATOM      2  O   UNL     1      12.069   8.701  16.410  0.00  0.00    -0.495 OA
ATOM     30  C   UNL     1      10.646   8.631  16.343  0.00  0.00    +0.277 C 
ENDBRANCH  26   2
ENDBRANCH  15  19
ENDBRANCH  10  15
TORSDOF 8
ENDMDL
MODEL 3
REMARK VINA RESULT:      -6.0     28.481     31.405
REMARK  Name = 75536154
REMARK  13 active torsions:
REMARK  status: ('A' for Active; 'I' for Inactive)
REMARK    1  A    between atoms: O_2  and  C_26
REMARK    2  A    between atoms: O_2  and  C_30
REMARK    3  A    between atoms: N_3  and  C_14
REMARK    4  A    between atoms: N_6  and  C_25
REMARK    5  A    between atoms: C_7  and  C_11
REMARK    6  A    between atoms: C_8  and  C_14
REMARK    7  A    between atoms: C_10  and  C_15
REMARK    8  A    between atoms: C_11  and  C_16
REMARK    9  A    between atoms: C_11  and  C_17
REMARK   10  A    between atoms: C_12  and  C_18
REMARK   11  A    between atoms: C_15  and  C_19
REMARK   12  A    between atoms: C_25  and  C_28
REMARK   13  A    between atoms: C_28  and  C_29
REMARK                            x       y       z     vdW  Elec       q    Type
REMARK                         _______ _______ _______ _____ _____    ______ ____
ROOT
ATOM      7  C   UNL     1     -17.087   5.546  22.647  0.00  0.00    +0.000 C 
ATOM      8  C   UNL     1     -16.539   4.462  23.608  0.00  0.00    +0.032 C 
ATOM      9  C   UNL     1     -16.295   5.546  21.331  0.00  0.00    +0.012 C 
ATOM     10  C   UNL     1     -14.793   5.806  21.554  0.00  0.00    +0.022 C 
ATOM     12  C   UNL     1     -14.236   4.958  22.679  0.00  0.00    -0.073 C 
ATOM     13  C   UNL     1     -15.032   4.355  23.580  0.00  0.00    -0.022 C 
ATOM     18  C   UNL     1     -12.743   4.782  22.719  0.00  0.00    +0.039 C 
ENDROOT
BRANCH   7  11
ATOM     11  C   UNL     1     -18.577   5.346  22.355  0.00  0.00    -0.013 C 
ATOM     16  C   UNL     1     -19.273   6.694  22.192  0.00  0.00    +0.007 C 
ATOM     17  C   UNL     1     -18.766   4.485  21.111  0.00  0.00    +0.007 C 
ENDBRANCH   7  11
BRANCH   8  14
ATOM     14  C   UNL     1     -17.005   4.712  25.047  0.00  0.00    +0.113 C 
BRANCH  14   3
ATOM      1  O   UNL     1     -17.591   3.647  27.665  0.00  0.00    -0.253 OA
ATOM      3  N   UNL     1     -16.073   4.168  25.985  0.00  0.00    -0.299 N 
ATOM      6  N   UNL     1     -15.332   3.200  27.951  0.00  0.00    -0.299 N 
ATOM     20  C   UNL     1     -16.436   3.669  27.242  0.00  0.00    +0.300 C 
ATOM     31  H   UNL     1     -15.101   4.077  25.704  0.00  0.00    +0.150 HD
ATOM     33  H   UNL     1     -14.414   3.267  27.523  0.00  0.00    +0.150 HD
BRANCH   6  25
ATOM     25  C   UNL     1     -15.435   2.634  29.275  0.00  0.00    +0.105 C 
BRANCH  25  28
ATOM     28  C   UNL     1     -15.448   1.110  29.255  0.00  0.00    +0.015 C 
ATOM     29  C   UNL     1     -14.490   0.499  30.268  0.00  0.00    +0.005 C 
ENDBRANCH  25  28
ENDBRANCH   6  25
ENDBRANCH  14   3
ENDBRANCH   8  14
BRANCH  10  15
ATOM     15  C   UNL     1     -14.522   7.293  21.801  0.00  0.00    +0.082 C 
BRANCH  15  19
ATOM      4  N   UNL     1     -13.399   7.453  19.571  0.00  0.00    -0.342 N 
ATOM      5  N   UNL     1     -12.477   8.639  21.209  0.00  0.00    -0.232 NA
ATOM     19  C   UNL     1     -13.450   7.816  20.888  0.00  0.00    +0.109 A 
ATOM     21  C   UNL     1     -12.321   8.083  19.004  0.00  0.00    +0.070 A 
ATOM     22  C   UNL     1     -11.762   8.819  20.047  0.00  0.00    +0.089 A 
ATOM     23  C   UNL     1     -11.804   8.076  17.709  0.00  0.00    +0.073 A 
ATOM     24  C   UNL     1     -10.619   9.596  19.800  0.00  0.00    +0.033 A 
ATOM     26  C   UNL     1     -10.665   8.856  17.481  0.00  0.00    +0.122 A 
ATOM     27  C   UNL     1     -10.082   9.603  18.507  0.00  0.00    +0.048 A 
ATOM     32  H   UNL     1     -14.040   6.830  19.098  0.00  0.00    +0.167 HD
BRANCH  26   2
ATOM      2  O   UNL     1     -10.116   8.886  16.233  0.00  0.00    -0.495 OA
ATOM     30  C   UNL     1     -10.987   8.616  15.137  0.00  0.00    +0.277 C 
ENDBRANCH  26   2
ENDBRANCH  15  19
ENDBRANCH  10  15
TORSDOF 8
ENDMDL
MODEL 4
REMARK VINA RESULT:      -6.0     22.610     25.195
REMARK  Name = 75536154
REMARK  13 active torsions:
REMARK  status: ('A' for Active; 'I' for Inactive)
REMARK    1  A    between atoms: O_2  and  C_26
REMARK    2  A    between atoms: O_2  and  C_30
REMARK    3  A    between atoms: N_3  and  C_14
REMARK    4  A    between atoms: N_6  and  C_25
REMARK    5  A    between atoms: C_7  and  C_11
REMARK    6  A    between atoms: C_8  and  C_14
REMARK    7  A    between atoms: C_10  and  C_15
REMARK    8  A    between atoms: C_11  and  C_16
REMARK    9  A    between atoms: C_11  and  C_17
REMARK   10  A    between atoms: C_12  and  C_18
REMARK   11  A    between atoms: C_15  and  C_19
REMARK   12  A    between atoms: C_25  and  C_28
REMARK   13  A    between atoms: C_28  and  C_29
REMARK                            x       y       z     vdW  Elec       q    Type
REMARK                         _______ _______ _______ _____ _____    ______ ____
ROOT
ATOM      7  C   UNL     1      -3.051 -12.519  13.391  0.00  0.00    +0.000 C 
ATOM      8  C   UNL     1      -1.833 -11.624  13.724  0.00  0.00    +0.032 C 
ATOM      9  C   UNL     1      -3.189 -12.695  11.871  0.00  0.00    +0.012 C 
ATOM     10  C   UNL     1      -3.358 -11.349  11.141  0.00  0.00    +0.022 C 
ATOM     12  C   UNL     1      -2.351 -10.321  11.615  0.00  0.00    -0.073 C 
ATOM     13  C   UNL     1      -1.669 -10.467  12.765  0.00  0.00    -0.022 C 
ATOM     18  C   UNL     1      -2.112  -9.142  10.714  0.00  0.00    +0.039 C 
ENDROOT
BRANCH   7  11
ATOM     11  C   UNL     1      -2.951 -13.891  14.064  0.00  0.00    -0.013 C 
ATOM     16  C   UNL     1      -4.129 -14.771  13.658  0.00  0.00    +0.007 C 
ATOM     17  C   UNL     1      -1.627 -14.561  13.713  0.00  0.00    +0.007 C 
ENDBRANCH   7  11
BRANCH   8  14
ATOM     14  C   UNL     1      -1.914 -11.089  15.158  0.00  0.00    +0.113 C 
BRANCH  14   3
ATOM      1  O   UNL     1      -4.069 -11.575  17.014  0.00  0.00    -0.253 OA
ATOM      3  N   UNL     1      -3.089 -10.297  15.340  0.00  0.00    -0.299 N 
ATOM      6  N   UNL     1      -5.126  -9.662  16.234  0.00  0.00    -0.299 N 
ATOM     20  C   UNL     1      -4.096 -10.599  16.265  0.00  0.00    +0.300 C 
ATOM     31  H   UNL     1      -3.174  -9.430  14.817  0.00  0.00    +0.150 HD
ATOM     33  H   UNL     1      -5.065  -8.893  15.574  0.00  0.00    +0.150 HD
BRANCH   6  25
ATOM     25  C   UNL     1      -6.285  -9.743  17.090  0.00  0.00    +0.105 C 
BRANCH  25  28
ATOM     28  C   UNL     1      -7.588  -9.547  16.324  0.00  0.00    +0.015 C 
ATOM     29  C   UNL     1      -8.736  -9.103  17.218  0.00  0.00    +0.005 C 
ENDBRANCH  25  28
ENDBRANCH   6  25
ENDBRANCH  14   3
ENDBRANCH   8  14
BRANCH  10  15
ATOM     15  C   UNL     1      -4.790 -10.821  11.282  0.00  0.00    +0.082 C 
BRANCH  15  19
ATOM      4  N   UNL     1      -6.373  -9.480   9.885  0.00  0.00    -0.342 N 
ATOM      5  N   UNL     1      -4.944 -10.766   8.769  0.00  0.00    -0.232 NA
ATOM     19  C   UNL     1      -5.345 -10.378   9.959  0.00  0.00    +0.109 A 
ATOM     21  C   UNL     1      -6.656  -9.276   8.559  0.00  0.00    +0.070 A 
ATOM     22  C   UNL     1      -5.751 -10.089   7.882  0.00  0.00    +0.089 A 
ATOM     23  C   UNL     1      -7.596  -8.473   7.913  0.00  0.00    +0.073 A 
ATOM     24  C   UNL     1      -5.771 -10.116   6.478  0.00  0.00    +0.033 A 
ATOM     26  C   UNL     1      -7.603  -8.513   6.515  0.00  0.00    +0.122 A 
ATOM     27  C   UNL     1      -6.707  -9.319   5.808  0.00  0.00    +0.048 A 
ATOM     32  H   UNL     1      -6.843  -9.044  10.668  0.00  0.00    +0.167 HD
BRANCH  26   2
ATOM      2  O   UNL     1      -8.501  -7.748   5.829  0.00  0.00    -0.495 OA
ATOM     30  C   UNL     1      -9.369  -6.922   6.603  0.00  0.00    +0.277 C 
ENDBRANCH  26   2
ENDBRANCH  15  19
ENDBRANCH  10  15
TORSDOF 8
ENDMDL
MODEL 5
REMARK VINA RESULT:      -5.9     22.599     25.118
REMARK  Name = 75536154
REMARK  13 active torsions:
REMARK  status: ('A' for Active; 'I' for Inactive)
REMARK    1  A    between atoms: O_2  and  C_26
REMARK    2  A    between atoms: O_2  and  C_30
REMARK    3  A    between atoms: N_3  and  C_14
REMARK    4  A    between atoms: N_6  and  C_25
REMARK    5  A    between atoms: C_7  and  C_11
REMARK    6  A    between atoms: C_8  and  C_14
REMARK    7  A    between atoms: C_10  and  C_15
REMARK    8  A    between atoms: C_11  and  C_16
REMARK    9  A    between atoms: C_11  and  C_17
REMARK   10  A    between atoms: C_12  and  C_18
REMARK   11  A    between atoms: C_15  and  C_19
REMARK   12  A    between atoms: C_25  and  C_28
REMARK   13  A    between atoms: C_28  and  C_29
REMARK                            x       y       z     vdW  Elec       q    Type
REMARK                         _______ _______ _______ _____ _____    ______ ____
ROOT
ATOM      7  C   UNL     1      -3.142 -12.194  13.814  0.00  0.00    +0.000 C 
ATOM      8  C   UNL     1      -1.948 -11.352  14.326  0.00  0.00    +0.032 C 
ATOM      9  C   UNL     1      -2.974 -12.512  12.321  0.00  0.00    +0.012 C 
ATOM     10  C   UNL     1      -2.871 -11.238  11.461  0.00  0.00    +0.022 C 
ATOM     12  C   UNL     1      -1.900 -10.236  12.053  0.00  0.00    -0.073 C 
ATOM     13  C   UNL     1      -1.489 -10.311  13.331  0.00  0.00    -0.022 C 
ATOM     18  C   UNL     1      -1.379  -9.172  11.128  0.00  0.00    +0.039 C 
ENDROOT
BRANCH   7  11
ATOM     11  C   UNL     1      -3.303 -13.495  14.606  0.00  0.00    -0.013 C 
ATOM     16  C   UNL     1      -4.764 -13.936  14.616  0.00  0.00    +0.007 C 
ATOM     17  C   UNL     1      -2.411 -14.586  14.024  0.00  0.00    +0.007 C 
ENDBRANCH   7  11
BRANCH   8  14
ATOM     14  C   UNL     1      -2.280 -10.672  15.659  0.00  0.00    +0.113 C 
BRANCH  14   3
ATOM      1  O   UNL     1      -4.293 -11.039  17.693  0.00  0.00    -0.253 OA
ATOM      3  N   UNL     1      -3.615 -10.163  15.651  0.00  0.00    -0.299 N 
ATOM      6  N   UNL     1      -5.763  -9.777  16.417  0.00  0.00    -0.299 N 
ATOM     20  C   UNL     1      -4.539 -10.386  16.680  0.00  0.00    +0.300 C 
ATOM     31  H   UNL     1      -3.896  -9.552  14.889  0.00  0.00    +0.150 HD
ATOM     33  H   UNL     1      -5.876  -9.264  15.547  0.00  0.00    +0.150 HD
BRANCH   6  25
ATOM     25  C   UNL     1      -6.887  -9.854  17.320  0.00  0.00    +0.105 C 
BRANCH  25  28
ATOM     28  C   UNL     1      -8.103  -9.097  16.800  0.00  0.00    +0.015 C 
ATOM     29  C   UNL     1      -8.822  -9.837  15.681  0.00  0.00    +0.005 C 
ENDBRANCH  25  28
ENDBRANCH   6  25
ENDBRANCH  14   3
ENDBRANCH   8  14
BRANCH  10  15
ATOM     15  C   UNL     1      -4.250 -10.605  11.245  0.00  0.00    +0.082 C 
BRANCH  15  19
ATOM      4  N   UNL     1      -4.146 -11.562   8.936  0.00  0.00    -0.342 N 
ATOM      5  N   UNL     1      -5.459  -9.787   9.193  0.00  0.00    -0.232 NA
ATOM     19  C   UNL     1      -4.641 -10.621   9.795  0.00  0.00    +0.109 A 
ATOM     21  C   UNL     1      -4.680 -11.320   7.696  0.00  0.00    +0.070 A 
ATOM     22  C   UNL     1      -5.496 -10.207   7.882  0.00  0.00    +0.089 A 
ATOM     23  C   UNL     1      -4.525 -11.959   6.466  0.00  0.00    +0.073 A 
ATOM     24  C   UNL     1      -6.206  -9.688   6.787  0.00  0.00    +0.033 A 
ATOM     26  C   UNL     1      -5.238 -11.429   5.387  0.00  0.00    +0.122 A 
ATOM     27  C   UNL     1      -6.065 -10.313   5.542  0.00  0.00    +0.048 A 
ATOM     32  H   UNL     1      -3.501 -12.306   9.171  0.00  0.00    +0.167 HD
BRANCH  26   2
ATOM      2  O   UNL     1      -5.125 -12.013   4.159  0.00  0.00    -0.495 OA
ATOM     30  C   UNL     1      -3.812 -12.375   3.736  0.00  0.00    +0.277 C 
ENDBRANCH  26   2
ENDBRANCH  15  19
ENDBRANCH  10  15
TORSDOF 8
ENDMDL
MODEL 6
REMARK VINA RESULT:      -5.9     25.617     28.762
REMARK  Name = 75536154
REMARK  13 active torsions:
REMARK  status: ('A' for Active; 'I' for Inactive)
REMARK    1  A    between atoms: O_2  and  C_26
REMARK    2  A    between atoms: O_2  and  C_30
REMARK    3  A    between atoms: N_3  and  C_14
REMARK    4  A    between atoms: N_6  and  C_25
REMARK    5  A    between atoms: C_7  and  C_11
REMARK    6  A    between atoms: C_8  and  C_14
REMARK    7  A    between atoms: C_10  and  C_15
REMARK    8  A    between atoms: C_11  and  C_16
REMARK    9  A    between atoms: C_11  and  C_17
REMARK   10  A    between atoms: C_12  and  C_18
REMARK   11  A    between atoms: C_15  and  C_19
REMARK   12  A    between atoms: C_25  and  C_28
REMARK   13  A    between atoms: C_28  and  C_29
REMARK                            x       y       z     vdW  Elec       q    Type
REMARK                         _______ _______ _______ _____ _____    ______ ____
ROOT
ATOM      7  C   UNL     1     -12.839   8.587  20.532  0.00  0.00    +0.000 C 
ATOM      8  C   UNL     1     -13.440   8.485  21.955  0.00  0.00    +0.032 C 
ATOM      9  C   UNL     1     -11.637   9.542  20.523  0.00  0.00    +0.012 C 
ATOM     10  C   UNL     1     -12.015  10.959  20.996  0.00  0.00    +0.022 C 
ATOM     12  C   UNL     1     -12.846  10.926  22.263  0.00  0.00    -0.073 C 
ATOM     13  C   UNL     1     -13.464   9.808  22.682  0.00  0.00    -0.022 C 
ATOM     18  C   UNL     1     -12.913  12.199  23.061  0.00  0.00    +0.039 C 
ENDROOT
BRANCH   7  11
ATOM     11  C   UNL     1     -12.415   7.216  19.993  0.00  0.00    -0.013 C 
ATOM     16  C   UNL     1     -11.532   7.379  18.760  0.00  0.00    +0.007 C 
ATOM     17  C   UNL     1     -11.694   6.419  21.075  0.00  0.00    +0.007 C 
ENDBRANCH   7  11
BRANCH   8  14
ATOM     14  C   UNL     1     -14.855   7.897  21.918  0.00  0.00    +0.113 C 
BRANCH  14   3
ATOM      1  O   UNL     1     -14.902   5.012  21.966  0.00  0.00    -0.253 OA
ATOM      3  N   UNL     1     -15.087   7.058  23.052  0.00  0.00    -0.299 N 
ATOM      6  N   UNL     1     -15.344   5.092  24.243  0.00  0.00    -0.299 N 
ATOM     20  C   UNL     1     -15.094   5.659  22.995  0.00  0.00    +0.300 C 
ATOM     31  H   UNL     1     -15.189   7.494  23.964  0.00  0.00    +0.150 HD
ATOM     33  H   UNL     1     -15.501   5.707  25.035  0.00  0.00    +0.150 HD
BRANCH   6  25
ATOM     25  C   UNL     1     -15.405   3.665  24.457  0.00  0.00    +0.105 C 
BRANCH  25  28
ATOM     28  C   UNL     1     -16.318   3.291  25.618  0.00  0.00    +0.015 C 
ATOM     29  C   UNL     1     -16.629   1.802  25.666  0.00  0.00    +0.005 C 
ENDBRANCH  25  28
ENDBRANCH   6  25
ENDBRANCH  14   3
ENDBRANCH   8  14
BRANCH  10  15
ATOM     15  C   UNL     1     -12.733  11.737  19.888  0.00  0.00    +0.082 C 
BRANCH  15  19
ATOM      4  N   UNL     1     -10.841  11.747  18.251  0.00  0.00    -0.342 N 
ATOM      5  N   UNL     1     -11.656  13.739  18.806  0.00  0.00    -0.232 NA
ATOM     19  C   UNL     1     -11.757  12.442  18.991  0.00  0.00    +0.109 A 
ATOM     21  C   UNL     1     -10.098  12.656  17.542  0.00  0.00    +0.070 A 
ATOM     22  C   UNL     1     -10.626  13.892  17.904  0.00  0.00    +0.089 A 
ATOM     23  C   UNL     1      -9.044  12.508  16.641  0.00  0.00    +0.073 A 
ATOM     24  C   UNL     1     -10.081  15.060  17.346  0.00  0.00    +0.033 A 
ATOM     26  C   UNL     1      -8.513  13.680  16.094  0.00  0.00    +0.122 A 
ATOM     27  C   UNL     1      -9.022  14.935  16.439  0.00  0.00    +0.048 A 
ATOM     32  H   UNL     1     -10.729  10.741  18.230  0.00  0.00    +0.167 HD
BRANCH  26   2
ATOM      2  O   UNL     1      -7.480  13.596  15.207  0.00  0.00    -0.495 OA
ATOM     30  C   UNL     1      -6.166  13.499  15.754  0.00  0.00    +0.277 C 
ENDBRANCH  26   2
ENDBRANCH  15  19
ENDBRANCH  10  15
TORSDOF 8
ENDMDL
MODEL 7
REMARK VINA RESULT:      -5.9     22.719     25.840
REMARK  Name = 75536154
REMARK  13 active torsions:
REMARK  status: ('A' for Active; 'I' for Inactive)
REMARK    1  A    between atoms: O_2  and  C_26
REMARK    2  A    between atoms: O_2  and  C_30
REMARK    3  A    between atoms: N_3  and  C_14
REMARK    4  A    between atoms: N_6  and  C_25
REMARK    5  A    between atoms: C_7  and  C_11
REMARK    6  A    between atoms: C_8  and  C_14
REMARK    7  A    between atoms: C_10  and  C_15
REMARK    8  A    between atoms: C_11  and  C_16
REMARK    9  A    between atoms: C_11  and  C_17
REMARK   10  A    between atoms: C_12  and  C_18
REMARK   11  A    between atoms: C_15  and  C_19
REMARK   12  A    between atoms: C_25  and  C_28
REMARK   13  A    between atoms: C_28  and  C_29
REMARK                            x       y       z     vdW  Elec       q    Type
REMARK                         _______ _______ _______ _____ _____    ______ ____
ROOT
ATOM      7  C   UNL     1      -6.615  -9.573   9.753  0.00  0.00    +0.000 C 
ATOM      8  C   UNL     1      -5.644  -9.112   8.638  0.00  0.00    +0.032 C 
ATOM      9  C   UNL     1      -6.180  -9.003  11.112  0.00  0.00    +0.012 C 
ATOM     10  C   UNL     1      -4.753  -9.439  11.497  0.00  0.00    +0.022 C 
ATOM     12  C   UNL     1      -3.782  -9.263  10.347  0.00  0.00    -0.073 C 
ATOM     13  C   UNL     1      -4.199  -9.106   9.079  0.00  0.00    -0.022 C 
ATOM     18  C   UNL     1      -2.320  -9.229  10.697  0.00  0.00    +0.039 C 
ENDROOT
BRANCH   7  11
ATOM     11  C   UNL     1      -8.059  -9.159   9.456  0.00  0.00    -0.013 C 
ATOM     16  C   UNL     1      -8.943  -9.397  10.677  0.00  0.00    +0.007 C 
ATOM     17  C   UNL     1      -8.116  -7.698   9.022  0.00  0.00    +0.007 C 
ENDBRANCH   7  11
BRANCH   8  14
ATOM     14  C   UNL     1      -5.790  -9.981   7.383  0.00  0.00    +0.113 C 
BRANCH  14   3
ATOM      1  O   UNL     1      -8.293  -9.602   5.998  0.00  0.00    -0.253 OA
ATOM      3  N   UNL     1      -6.022  -9.171   6.229  0.00  0.00    -0.299 N 
ATOM      6  N   UNL     1      -7.215  -8.188   4.508  0.00  0.00    -0.299 N 
ATOM     20  C   UNL     1      -7.272  -9.037   5.610  0.00  0.00    +0.300 C 
ATOM     31  H   UNL     1      -5.256  -8.607   5.871  0.00  0.00    +0.150 HD
ATOM     33  H   UNL     1      -6.323  -7.773   4.257  0.00  0.00    +0.150 HD
BRANCH   6  25
ATOM     25  C   UNL     1      -8.368  -7.882   3.695  0.00  0.00    +0.105 C 
BRANCH  25  28
ATOM     28  C   UNL     1      -8.006  -7.673   2.229  0.00  0.00    +0.015 C 
ATOM     29  C   UNL     1      -8.723  -8.643   1.301  0.00  0.00    +0.005 C 
ENDBRANCH  25  28
ENDBRANCH   6  25
ENDBRANCH  14   3
ENDBRANCH   8  14
BRANCH  10  15
ATOM     15  C   UNL     1      -4.738 -10.881  12.014  0.00  0.00    +0.082 C 
BRANCH  15  19
ATOM      4  N   UNL     1      -5.779 -10.840  14.289  0.00  0.00    -0.342 N 
ATOM      5  N   UNL     1      -3.566 -11.046  14.237  0.00  0.00    -0.232 NA
ATOM     19  C   UNL     1      -4.656 -10.926  13.513  0.00  0.00    +0.109 A 
ATOM     21  C   UNL     1      -5.387 -10.909  15.601  0.00  0.00    +0.070 A 
ATOM     22  C   UNL     1      -4.002 -11.038  15.543  0.00  0.00    +0.089 A 
ATOM     23  C   UNL     1      -6.103 -10.871  16.798  0.00  0.00    +0.073 A 
ATOM     24  C   UNL     1      -3.273 -11.136  16.740  0.00  0.00    +0.033 A 
ATOM     26  C   UNL     1      -5.361 -10.970  17.979  0.00  0.00    +0.122 A 
ATOM     27  C   UNL     1      -3.971 -11.101  17.953  0.00  0.00    +0.048 A 
ATOM     32  H   UNL     1      -6.729 -10.742  13.956  0.00  0.00    +0.167 HD
BRANCH  26   2
ATOM      2  O   UNL     1      -6.009 -10.939  19.179  0.00  0.00    -0.495 OA
ATOM     30  C   UNL     1      -7.427 -10.788  19.144  0.00  0.00    +0.277 C 
ENDBRANCH  26   2
ENDBRANCH  15  19
ENDBRANCH  10  15
TORSDOF 8
ENDMDL
MODEL 8
REMARK VINA RESULT:      -5.9     16.671     20.245
REMARK  Name = 75536154
REMARK  13 active torsions:
REMARK  status: ('A' for Active; 'I' for Inactive)
REMARK    1  A    between atoms: O_2  and  C_26
REMARK    2  A    between atoms: O_2  and  C_30
REMARK    3  A    between atoms: N_3  and  C_14
REMARK    4  A    between atoms: N_6  and  C_25
REMARK    5  A    between atoms: C_7  and  C_11
REMARK    6  A    between atoms: C_8  and  C_14
REMARK    7  A    between atoms: C_10  and  C_15
REMARK    8  A    between atoms: C_11  and  C_16
REMARK    9  A    between atoms: C_11  and  C_17
REMARK   10  A    between atoms: C_12  and  C_18
REMARK   11  A    between atoms: C_15  and  C_19
REMARK   12  A    between atoms: C_25  and  C_28
REMARK   13  A    between atoms: C_28  and  C_29
REMARK                            x       y       z     vdW  Elec       q    Type
REMARK                         _______ _______ _______ _____ _____    ______ ____
ROOT
ATOM      7  C   UNL     1      21.082   5.721  21.817  0.00  0.00    +0.000 C 
ATOM      8  C   UNL     1      21.716   7.067  22.248  0.00  0.00    +0.032 C 
ATOM      9  C   UNL     1      20.199   5.917  20.575  0.00  0.00    +0.012 C 
ATOM     10  C   UNL     1      19.068   6.934  20.819  0.00  0.00    +0.022 C 
ATOM     12  C   UNL     1      19.577   8.192  21.493  0.00  0.00    -0.073 C 
ATOM     13  C   UNL     1      20.769   8.236  22.115  0.00  0.00    -0.022 C 
ATOM     18  C   UNL     1      18.704   9.412  21.397  0.00  0.00    +0.039 C 
ENDROOT
BRANCH   7  11
ATOM     11  C   UNL     1      22.145   4.656  21.534  0.00  0.00    -0.013 C 
ATOM     16  C   UNL     1      21.487   3.343  21.122  0.00  0.00    +0.007 C 
ATOM     17  C   UNL     1      23.110   5.139  20.456  0.00  0.00    +0.007 C 
ENDBRANCH   7  11
BRANCH   8  14
ATOM     14  C   UNL     1      22.240   6.996  23.687  0.00  0.00    +0.113 C 
BRANCH  14   3
ATOM      1  O   UNL     1      22.311   6.757  26.562  0.00  0.00    -0.253 OA
ATOM      3  N   UNL     1      21.243   7.433  24.613  0.00  0.00    -0.299 N 
ATOM      6  N   UNL     1      20.238   7.794  26.665  0.00  0.00    -0.299 N 
ATOM     20  C   UNL     1      21.350   7.280  26.001  0.00  0.00    +0.300 C 
ATOM     31  H   UNL     1      20.439   7.941  24.255  0.00  0.00    +0.150 HD
ATOM     33  H   UNL     1      19.487   8.201  26.116  0.00  0.00    +0.150 HD
BRANCH   6  25
ATOM     25  C   UNL     1      20.100   7.762  28.102  0.00  0.00    +0.105 C 
BRANCH  25  28
ATOM     28  C   UNL     1      19.852   9.145  28.692  0.00  0.00    +0.015 C 
ATOM     29  C   UNL     1      19.624  10.207  27.626  0.00  0.00    +0.005 C 
ENDBRANCH  25  28
ENDBRANCH   6  25
ENDBRANCH  14   3
ENDBRANCH   8  14
BRANCH  10  15
ATOM     15  C   UNL     1      17.925   6.305  21.621  0.00  0.00    +0.082 C 
BRANCH  15  19
ATOM      4  N   UNL     1      15.467   6.741  21.793  0.00  0.00    -0.342 N 
ATOM      5  N   UNL     1      16.328   6.829  19.746  0.00  0.00    -0.232 NA
ATOM     19  C   UNL     1      16.588   6.627  21.018  0.00  0.00    +0.109 A 
ATOM     21  C   UNL     1      14.414   7.037  20.967  0.00  0.00    +0.070 A 
ATOM     22  C   UNL     1      14.977   7.087  19.694  0.00  0.00    +0.089 A 
ATOM     23  C   UNL     1      13.060   7.259  21.214  0.00  0.00    +0.073 A 
ATOM     24  C   UNL     1      14.154   7.373  18.592  0.00  0.00    +0.033 A 
ATOM     26  C   UNL     1      12.255   7.543  20.106  0.00  0.00    +0.122 A 
ATOM     27  C   UNL     1      12.790   7.600  18.817  0.00  0.00    +0.048 A 
ATOM     32  H   UNL     1      15.421   6.628  22.798  0.00  0.00    +0.167 HD
BRANCH  26   2
ATOM      2  O   UNL     1      10.922   7.768  20.289  0.00  0.00    -0.495 OA
ATOM     30  C   UNL     1      10.426   7.663  21.622  0.00  0.00    +0.277 C 
ENDBRANCH  26   2
ENDBRANCH  15  19
ENDBRANCH  10  15
TORSDOF 8
ENDMDL
MODEL 9
REMARK VINA RESULT:      -5.9      2.220      3.225
REMARK  Name = 75536154
REMARK  13 active torsions:
REMARK  status: ('A' for Active; 'I' for Inactive)
REMARK    1  A    between atoms: O_2  and  C_26
REMARK    2  A    between atoms: O_2  and  C_30
REMARK    3  A    between atoms: N_3  and  C_14
REMARK    4  A    between atoms: N_6  and  C_25
REMARK    5  A    between atoms: C_7  and  C_11
REMARK    6  A    between atoms: C_8  and  C_14
REMARK    7  A    between atoms: C_10  and  C_15
REMARK    8  A    between atoms: C_11  and  C_16
REMARK    9  A    between atoms: C_11  and  C_17
REMARK   10  A    between atoms: C_12  and  C_18
REMARK   11  A    between atoms: C_15  and  C_19
REMARK   12  A    between atoms: C_25  and  C_28
REMARK   13  A    between atoms: C_28  and  C_29
REMARK                            x       y       z     vdW  Elec       q    Type
REMARK                         _______ _______ _______ _____ _____    ______ ____
ROOT
ATOM      7  C   UNL     1       9.136   8.195   5.259  0.00  0.00    +0.000 C 
ATOM      8  C   UNL     1       8.778   8.867   6.607  0.00  0.00    +0.032 C 
ATOM      9  C   UNL     1       8.600   6.756   5.217  0.00  0.00    +0.012 C 
ATOM     10  C   UNL     1       9.164   5.890   6.359  0.00  0.00    +0.022 C 
ATOM     12  C   UNL     1       9.090   6.602   7.695  0.00  0.00    -0.073 C 
ATOM     13  C   UNL     1       8.904   7.931   7.786  0.00  0.00    -0.022 C 
ATOM     18  C   UNL     1       9.190   5.744   8.925  0.00  0.00    +0.039 C 
ENDROOT
BRANCH   7  11
ATOM     11  C   UNL     1       8.591   8.986   4.066  0.00  0.00    -0.013 C 
ATOM     16  C   UNL     1       8.708   8.166   2.785  0.00  0.00    +0.007 C 
ATOM     17  C   UNL     1       7.144   9.397   4.316  0.00  0.00    +0.007 C 
ENDBRANCH   7  11
BRANCH   8  14
ATOM     14  C   UNL     1       9.639  10.112   6.851  0.00  0.00    +0.113 C 
BRANCH  14   3
ATOM      1  O   UNL     1      11.696  10.994   8.672  0.00  0.00    -0.253 OA
ATOM      3  N   UNL     1       9.459  10.601   8.182  0.00  0.00    -0.299 N 
ATOM      6  N   UNL     1      10.057  11.442  10.252  0.00  0.00    -0.299 N 
ATOM     20  C   UNL     1      10.513  11.011   9.008  0.00  0.00    +0.300 C 
ATOM     31  H   UNL     1       8.513  10.719   8.531  0.00  0.00    +0.150 HD
ATOM     33  H   UNL     1       9.061  11.411  10.444  0.00  0.00    +0.150 HD
BRANCH   6  25
ATOM     25  C   UNL     1      10.943  11.917  11.289  0.00  0.00    +0.105 C 
BRANCH  25  28
ATOM     28  C   UNL     1      10.206  12.215  12.589  0.00  0.00    +0.015 C 
ATOM     29  C   UNL     1       8.729  12.512  12.374  0.00  0.00    +0.005 C 
ENDBRANCH  25  28
ENDBRANCH   6  25
ENDBRANCH  14   3
ENDBRANCH   8  14
BRANCH  10  15
ATOM     15  C   UNL     1      10.598   5.442   6.055  0.00  0.00    +0.082 C 
BRANCH  15  19
ATOM      4  N   UNL     1      11.790   6.022   3.933  0.00  0.00    -0.342 N 
ATOM      5  N   UNL     1      10.173   4.507   3.755  0.00  0.00    -0.232 NA
ATOM     19  C   UNL     1      10.826   5.297   4.577  0.00  0.00    +0.109 A 
ATOM     21  C   UNL     1      11.757   5.676   2.606  0.00  0.00    +0.070 A 
ATOM     22  C   UNL     1      10.740   4.728   2.521  0.00  0.00    +0.089 A 
ATOM     23  C   UNL     1      12.506   6.096   1.508  0.00  0.00    +0.073 A 
ATOM     24  C   UNL     1      10.439   4.157   1.273  0.00  0.00    +0.033 A 
ATOM     26  C   UNL     1      12.194   5.518   0.274  0.00  0.00    +0.122 A 
ATOM     27  C   UNL     1      11.179   4.565   0.156  0.00  0.00    +0.048 A 
ATOM     32  H   UNL     1      12.416   6.693   4.357  0.00  0.00    +0.167 HD
BRANCH  26   2
ATOM      2  O   UNL     1      12.894   5.891  -0.836  0.00  0.00    -0.495 OA
ATOM     30  C   UNL     1      13.041   4.916  -1.866  0.00  0.00    +0.277 C 
ENDBRANCH  26   2
ENDBRANCH  15  19
ENDBRANCH  10  15
TORSDOF 8
ENDMDL
MODEL 10
REMARK VINA RESULT:      -5.8     29.034     32.033
REMARK  Name = 75536154
REMARK  13 active torsions:
REMARK  status: ('A' for Active; 'I' for Inactive)
REMARK    1  A    between atoms: O_2  and  C_26
REMARK    2  A    between atoms: O_2  and  C_30
REMARK    3  A    between atoms: N_3  and  C_14
REMARK    4  A    between atoms: N_6  and  C_25
REMARK    5  A    between atoms: C_7  and  C_11
REMARK    6  A    between atoms: C_8  and  C_14
REMARK    7  A    between atoms: C_10  and  C_15
REMARK    8  A    between atoms: C_11  and  C_16
REMARK    9  A    between atoms: C_11  and  C_17
REMARK   10  A    between atoms: C_12  and  C_18
REMARK   11  A    between atoms: C_15  and  C_19
REMARK   12  A    between atoms: C_25  and  C_28
REMARK   13  A    between atoms: C_28  and  C_29
REMARK                            x       y       z     vdW  Elec       q    Type
REMARK                         _______ _______ _______ _____ _____    ______ ____
ROOT
ATOM      7  C   UNL     1     -13.033   8.189  21.144  0.00  0.00    +0.000 C 
ATOM      8  C   UNL     1     -13.834   9.503  21.317  0.00  0.00    +0.032 C 
ATOM      9  C   UNL     1     -13.976   7.028  20.796  0.00  0.00    +0.012 C 
ATOM     10  C   UNL     1     -15.051   6.806  21.877  0.00  0.00    +0.022 C 
ATOM     12  C   UNL     1     -15.705   8.106  22.297  0.00  0.00    -0.073 C 
ATOM     13  C   UNL     1     -15.152   9.302  22.026  0.00  0.00    -0.022 C 
ATOM     18  C   UNL     1     -17.032   8.002  22.996  0.00  0.00    +0.039 C 
ENDROOT
BRANCH   7  11
ATOM     11  C   UNL     1     -11.952   8.319  20.066  0.00  0.00    -0.013 C 
ATOM     16  C   UNL     1     -11.322   6.960  19.777  0.00  0.00    +0.007 C 
ATOM     17  C   UNL     1     -12.537   8.926  18.795  0.00  0.00    +0.007 C 
ENDBRANCH   7  11
BRANCH   8  14
ATOM     14  C   UNL     1     -13.010  10.559  22.062  0.00  0.00    +0.113 C 
BRANCH  14   3
ATOM      1  O   UNL     1     -12.471  12.364  24.249  0.00  0.00    -0.253 OA
ATOM      3  N   UNL     1     -12.886  10.224  23.446  0.00  0.00    -0.299 N 
ATOM      6  N   UNL     1     -12.553  10.563  25.710  0.00  0.00    -0.299 N 
ATOM     20  C   UNL     1     -12.622  11.161  24.453  0.00  0.00    +0.300 C 
ATOM     31  H   UNL     1     -13.062   9.264  23.729  0.00  0.00    +0.150 HD
ATOM     33  H   UNL     1     -12.682   9.559  25.780  0.00  0.00    +0.150 HD
BRANCH   6  25
ATOM     25  C   UNL     1     -12.292  11.310  26.918  0.00  0.00    +0.105 C 
BRANCH  25  28
ATOM     28  C   UNL     1     -11.227  10.652  27.787  0.00  0.00    +0.015 C 
ATOM     29  C   UNL     1     -10.126   9.992  26.970  0.00  0.00    +0.005 C 
ENDBRANCH  25  28
ENDBRANCH   6  25
ENDBRANCH  14   3
ENDBRANCH   8  14
BRANCH  10  15
ATOM     15  C   UNL     1     -14.470   6.067  23.088  0.00  0.00    +0.082 C 
BRANCH  15  19
ATOM      4  N   UNL     1     -15.218   4.281  24.672  0.00  0.00    -0.342 N 
ATOM      5  N   UNL     1     -16.112   4.211  22.638  0.00  0.00    -0.232 NA
ATOM     19  C   UNL     1     -15.282   4.851  23.431  0.00  0.00    +0.109 A 
ATOM     21  C   UNL     1     -16.062   3.200  24.681  0.00  0.00    +0.070 A 
ATOM     22  C   UNL     1     -16.609   3.177  23.400  0.00  0.00    +0.089 A 
ATOM     23  C   UNL     1     -16.386   2.270  25.668  0.00  0.00    +0.073 A 
ATOM     24  C   UNL     1     -17.533   2.173  23.068  0.00  0.00    +0.033 A 
ATOM     26  C   UNL     1     -17.308   1.277  25.320  0.00  0.00    +0.122 A 
ATOM     27  C   UNL     1     -17.872   1.228  24.044  0.00  0.00    +0.048 A 
ATOM     32  H   UNL     1     -14.650   4.599  25.447  0.00  0.00    +0.167 HD
BRANCH  26   2
ATOM      2  O   UNL     1     -17.661   0.340  26.247  0.00  0.00    -0.495 OA
ATOM     30  C   UNL     1     -19.054   0.074  26.397  0.00  0.00    +0.277 C 
ENDBRANCH  26   2
ENDBRANCH  15  19
ENDBRANCH  10  15
TORSDOF 8
ENDMDL
