REMARK  Name = 14457639
REMARK  6 active torsions:
REMARK  status: ('A' for Active; 'I' for Inactive)
REMARK    1  A    between atoms: O_1  and  C_14
REMARK    2  A    between atoms: O_1  and  C_20
REMARK    3  A    between atoms: N_5  and  C_12
REMARK    4  A    between atoms: C_7  and  C_14
REMARK    5  A    between atoms: C_12  and  C_16
REMARK    6  A    between atoms: C_15  and  C_17
REMARK                            x       y       z     vdW  Elec       q    Type
REMARK                         _______ _______ _______ _____ _____    ______ ____
ROOT
ATOM      3  O   UNL     1       4.200   1.784   0.774  0.00  0.00    -0.276 OA
ATOM      4  N   UNL     1       2.122   0.725   0.712  0.00  0.00    -0.282 N 
ATOM      5  N   UNL     1      -1.176  -0.909   1.417  0.00  0.00    -0.328 N 
ATOM      6  N   UNL     1      -0.076  -2.819   1.052  0.00  0.00    -0.240 NA
ATOM      7  C   UNL     1       2.664  -0.443  -0.033  0.00  0.00    +0.191 C 
ATOM      8  C   UNL     1       2.175  -1.814   0.479  0.00  0.00    +0.091 C 
ATOM      9  C   UNL     1       0.098  -0.560   1.083  0.00  0.00    +0.059 A 
ATOM     10  C   UNL     1       0.656   0.799   0.967  0.00  0.00    +0.163 C 
ATOM     11  C   UNL     1       0.750  -1.747   0.861  0.00  0.00    +0.066 A 
ATOM     13  C   UNL     1      -1.232  -2.280   1.385  0.00  0.00    +0.200 A 
ATOM     15  C   UNL     1       2.982   1.804   0.971  0.00  0.00    +0.213 C 
ATOM     17  C   UNL     1       2.345   3.052   1.531  0.00  0.00    +0.109 C 
ENDROOT
BRANCH   7  14
ATOM      2  O   UNL     1       1.635   0.724  -1.875  0.00  0.00    -0.249 OA
ATOM     14  C   UNL     1       2.304  -0.219  -1.474  0.00  0.00    +0.328 C 
BRANCH  14   1
ATOM      1  O   UNL     1       2.835  -1.217  -2.237  0.00  0.00    -0.467 OA
ATOM     20  C   UNL     1       2.567  -1.128  -3.640  0.00  0.00    +0.280 C 
ENDBRANCH  14   1
ENDBRANCH   7  14
BRANCH   5  12
ATOM     12  C   UNL     1      -2.268  -0.024   1.741  0.00  0.00    +0.158 C 
BRANCH  12  16
ATOM     16  C   UNL     1      -3.047   0.360   0.511  0.00  0.00    -0.028 A 
ATOM     18  C   UNL     1      -4.126  -0.419   0.115  0.00  0.00    +0.005 A 
ATOM     19  C   UNL     1      -2.676   1.486  -0.210  0.00  0.00    +0.005 A 
ATOM     21  C   UNL     1      -4.848  -0.064  -1.025  0.00  0.00    +0.000 A 
ATOM     22  C   UNL     1      -3.398   1.842  -1.349  0.00  0.00    +0.000 A 
ATOM     23  C   UNL     1      -4.484   1.067  -1.757  0.00  0.00    +0.000 A 
ENDBRANCH  12  16
ENDBRANCH   5  12
TORSDOF 4
