REMARK  Name = 28962241
REMARK  11 active torsions:
REMARK  status: ('A' for Active; 'I' for Inactive)
REMARK    1  A    between atoms: O_2  and  C_10
REMARK    2  A    between atoms: O_3  and  C_16
REMARK    3  A    between atoms: N_5  and  C_8
REMARK    4  A    between atoms: N_5  and  C_17
REMARK    5  A    between atoms: N_5  and  C_21
REMARK    6  A    between atoms: N_6  and  C_12
REMARK    7  A    between atoms: C_9  and  C_12
REMARK    8  A    between atoms: C_11  and  C_16
REMARK    9  A    between atoms: C_13  and  C_20
REMARK   10  A    between atoms: C_17  and  C_22
REMARK   11  A    between atoms: C_22  and  C_23
REMARK                            x       y       z     vdW  Elec       q    Type
REMARK                         _______ _______ _______ _____ _____    ______ ____
ROOT
ATOM      1  O   UNL     1      -3.013  -0.548   0.693  0.00  0.00    -0.365 OA
ATOM      8  C   UNL     1      -1.353  -2.233   0.430  0.00  0.00    +0.118 C 
ATOM      9  C   UNL     1      -1.592  -0.719   0.497  0.00  0.00    +0.155 C 
ATOM     10  C   UNL     1      -2.690  -2.770  -0.055  0.00  0.00    +0.165 C 
ATOM     11  C   UNL     1      -3.649  -1.840   0.678  0.00  0.00    +0.174 C 
ENDROOT
BRANCH  10   2
ATOM      2  O   UNL     1      -2.833  -2.619  -1.462  0.00  0.00    -0.388 OA
ATOM     29  H   UNL     1      -3.651  -3.073  -1.725  0.00  0.00    +0.210 HD
ENDBRANCH  10   2
BRANCH   8   5
ATOM      5  N   UNL     1      -0.196  -2.667  -0.335  0.00  0.00    -0.297 NA
ATOM     21  C   UNL     1      -0.071  -4.127  -0.307  0.00  0.00    +0.105 C 
BRANCH   5  17
ATOM     17  C   UNL     1       1.030  -2.048   0.178  0.00  0.00    +0.090 C 
BRANCH  17  22
ATOM     22  C   UNL     1       2.156  -2.127  -0.854  0.00  0.00    +0.071 C 
BRANCH  22  23
ATOM      7  N   UNL     1       4.276  -2.339   0.325  0.00  0.00    -0.260 NA
ATOM     23  C   UNL     1       3.430  -1.514  -0.331  0.00  0.00    +0.042 A 
ATOM     24  C   UNL     1       3.671  -0.166  -0.544  0.00  0.00    +0.023 A 
ATOM     25  C   UNL     1       4.856   0.369  -0.050  0.00  0.00    +0.003 A 
ATOM     26  C   UNL     1       5.417  -1.784   0.790  0.00  0.00    +0.111 A 
ATOM     27  C   UNL     1       5.751  -0.449   0.631  0.00  0.00    +0.020 A 
ENDBRANCH  22  23
ENDBRANCH  17  22
ENDBRANCH   5  17
ENDBRANCH   8   5
BRANCH   9  12
ATOM     12  C   UNL     1      -1.205   0.090  -0.736  0.00  0.00    +0.137 C 
BRANCH  12   6
ATOM      4  O   UNL     1       0.572   2.107   0.359  0.00  0.00    -0.276 OA
ATOM      6  N   UNL     1      -1.481   1.482  -0.547  0.00  0.00    -0.313 N 
ATOM     20  C   UNL     1      -0.566   2.383  -0.012  0.00  0.00    +0.216 C 
ATOM     28  H   UNL     1      -2.398   1.819  -0.826  0.00  0.00    +0.149 HD
BRANCH  20  13
ATOM     13  C   UNL     1      -1.101   3.781   0.053  0.00  0.00    +0.075 C 
ATOM     14  C   UNL     1      -0.764   4.540  -1.236  0.00  0.00    +0.013 C 
ATOM     15  C   UNL     1      -0.442   4.559   1.193  0.00  0.00    +0.013 C 
ATOM     18  C   UNL     1      -0.006   5.789  -0.797  0.00  0.00    +0.001 C 
ATOM     19  C   UNL     1       0.640   5.388   0.516  0.00  0.00    +0.001 C 
ENDBRANCH  20  13
ENDBRANCH  12   6
ENDBRANCH   9  12
BRANCH  11  16
ATOM     16  C   UNL     1      -5.031  -1.711   0.064  0.00  0.00    +0.190 C 
BRANCH  16   3
ATOM      3  O   UNL     1      -5.806  -0.828   0.859  0.00  0.00    -0.392 OA
ATOM     30  H   UNL     1      -6.684  -0.766   0.447  0.00  0.00    +0.210 HD
ENDBRANCH  16   3
ENDBRANCH  11  16
TORSDOF 10
