MODEL 1
REMARK VINA RESULT:      -6.7      0.000      0.000
REMARK  Name = 26743426
REMARK  11 active torsions:
REMARK  status: ('A' for Active; 'I' for Inactive)
REMARK    1  A    between atoms: O_5  and  C_23
REMARK    2  A    between atoms: O_5  and  C_30
REMARK    3  A    between atoms: O_6  and  C_31
REMARK    4  A    between atoms: N_8  and  C_13
REMARK    5  A    between atoms: N_9  and  C_21
REMARK    6  A    between atoms: C_11  and  C_14
REMARK    7  A    between atoms: C_17  and  C_19
REMARK    8  A    between atoms: C_18  and  C_20
REMARK    9  A    between atoms: C_22  and  C_23
REMARK   10  A    between atoms: C_28  and  C_29
REMARK   11  A    between atoms: C_30  and  C_31
REMARK                            x       y       z     vdW  Elec       q    Type
REMARK                         _______ _______ _______ _____ _____    ______ ____
ROOT
ATOM      9  N   UNL     1      17.366   7.431  20.852  0.00  0.00    -0.236 N 
ATOM     10  N   UNL     1      17.909   8.176  21.830  0.00  0.00    -0.171 NA
ATOM     14  C   UNL     1      19.409   6.671  20.992  0.00  0.00    +0.003 A 
ATOM     17  C   UNL     1      18.223   6.515  20.317  0.00  0.00    +0.046 A 
ATOM     18  C   UNL     1      19.157   7.708  21.910  0.00  0.00    +0.064 A 
ATOM     19  C   UNL     1      17.844   5.586  19.233  0.00  0.00    +0.066 C 
ATOM     20  C   UNL     1      20.086   8.288  22.896  0.00  0.00    +0.068 C 
ENDROOT
BRANCH   9  21
ATOM     21  C   UNL     1      16.038   7.641  20.479  0.00  0.00    +0.066 A 
ATOM     24  C   UNL     1      15.053   6.730  20.861  0.00  0.00    +0.028 A 
ATOM     25  C   UNL     1      15.696   8.760  19.720  0.00  0.00    +0.028 A 
ATOM     26  C   UNL     1      13.726   6.939  20.485  0.00  0.00    +0.014 A 
ATOM     27  C   UNL     1      14.369   8.969  19.344  0.00  0.00    +0.014 A 
ATOM     28  C   UNL     1      13.384   8.058  19.726  0.00  0.00    +0.055 A 
BRANCH  28  29
ATOM      1  F   UNL     1      11.563   9.581  19.433  0.00  0.00    -0.166 F 
ATOM      2  F   UNL     1      11.087   7.561  20.079  0.00  0.00    -0.166 F 
ATOM      3  F   UNL     1      11.704   7.934  18.028  0.00  0.00    -0.166 F 
ATOM     29  C   UNL     1      11.965   8.280  19.323  0.00  0.00    +0.417 C 
ENDBRANCH  28  29
ENDBRANCH   9  21
BRANCH  14  11
ATOM     11  C   UNL     1      20.694   5.902  20.791  0.00  0.00    +0.047 C 
ATOM     12  C   UNL     1      21.910   6.810  20.512  0.00  0.00    +0.039 C 
ATOM     13  C   UNL     1      23.110   6.119  21.170  0.00  0.00    +0.097 C 
ATOM     15  C   UNL     1      21.149   5.113  21.985  0.00  0.00    -0.021 C 
ATOM     16  C   UNL     1      22.466   5.232  22.185  0.00  0.00    -0.009 C 
BRANCH  13   8
ATOM      4  O   UNL     1      25.986   5.840  21.036  0.00  0.00    -0.273 OA
ATOM      8  N   UNL     1      23.862   5.311  20.248  0.00  0.00    -0.307 N 
ATOM     22  C   UNL     1      25.250   5.239  20.258  0.00  0.00    +0.239 C 
ATOM     32  H   UNL     1      23.356   4.798  19.530  0.00  0.00    +0.149 HD
BRANCH  22  23
ATOM     23  C   UNL     1      25.778   4.315  19.181  0.00  0.00    +0.256 C 
BRANCH  23   5
ATOM      5  O   UNL     1      25.137   3.059  19.243  0.00  0.00    -0.359 OA
BRANCH   5  30
ATOM     30  C   UNL     1      25.404   2.386  20.470  0.00  0.00    +0.280 C 
BRANCH  30  31
ATOM      7  O   UNL     1      24.064   0.982  21.931  0.00  0.00    -0.248 OA
ATOM     31  C   UNL     1      24.142   1.757  20.990  0.00  0.00    +0.331 C 
BRANCH  31   6
ATOM      6  O   UNL     1      23.076   2.174  20.261  0.00  0.00    -0.479 OA
ATOM     33  H   UNL     1      22.875   3.122  20.415  0.00  0.00    +0.295 HD
ENDBRANCH  31   6
ENDBRANCH  30  31
ENDBRANCH   5  30
ENDBRANCH  23   5
ENDBRANCH  22  23
ENDBRANCH  13   8
ENDBRANCH  14  11
TORSDOF 9
ENDMDL
MODEL 2
REMARK VINA RESULT:      -6.4     29.861     32.063
REMARK  Name = 26743426
REMARK  11 active torsions:
REMARK  status: ('A' for Active; 'I' for Inactive)
REMARK    1  A    between atoms: O_5  and  C_23
REMARK    2  A    between atoms: O_5  and  C_30
REMARK    3  A    between atoms: O_6  and  C_31
REMARK    4  A    between atoms: N_8  and  C_13
REMARK    5  A    between atoms: N_9  and  C_21
REMARK    6  A    between atoms: C_11  and  C_14
REMARK    7  A    between atoms: C_17  and  C_19
REMARK    8  A    between atoms: C_18  and  C_20
REMARK    9  A    between atoms: C_22  and  C_23
REMARK   10  A    between atoms: C_28  and  C_29
REMARK   11  A    between atoms: C_30  and  C_31
REMARK                            x       y       z     vdW  Elec       q    Type
REMARK                         _______ _______ _______ _____ _____    ______ ____
ROOT
ATOM      9  N   UNL     1      -4.689 -10.640  13.887  0.00  0.00    -0.236 N 
ATOM     10  N   UNL     1      -3.439 -10.463  13.427  0.00  0.00    -0.171 NA
ATOM     14  C   UNL     1      -4.971 -10.387  11.736  0.00  0.00    +0.003 A 
ATOM     17  C   UNL     1      -5.644 -10.602  12.914  0.00  0.00    +0.046 A 
ATOM     18  C   UNL     1      -3.617 -10.309  12.113  0.00  0.00    +0.064 A 
ATOM     19  C   UNL     1      -7.086 -10.775  13.185  0.00  0.00    +0.066 C 
ATOM     20  C   UNL     1      -2.448 -10.088  11.243  0.00  0.00    +0.068 C 
ENDROOT
BRANCH   9  21
ATOM     21  C   UNL     1      -4.903 -10.837  15.251  0.00  0.00    +0.066 A 
ATOM     24  C   UNL     1      -4.535 -12.042  15.849  0.00  0.00    +0.028 A 
ATOM     25  C   UNL     1      -5.490  -9.830  16.017  0.00  0.00    +0.028 A 
ATOM     26  C   UNL     1      -4.752 -12.240  17.213  0.00  0.00    +0.014 A 
ATOM     27  C   UNL     1      -5.708 -10.028  17.381  0.00  0.00    +0.014 A 
ATOM     28  C   UNL     1      -5.339 -11.233  17.978  0.00  0.00    +0.055 A 
BRANCH  28  29
ATOM      1  F   UNL     1      -4.455 -11.835  20.119  0.00  0.00    -0.166 F 
ATOM      2  F   UNL     1      -6.506 -12.409  19.683  0.00  0.00    -0.166 F 
ATOM      3  F   UNL     1      -6.018 -10.329  20.087  0.00  0.00    -0.166 F 
ATOM     29  C   UNL     1      -5.573 -11.445  19.436  0.00  0.00    +0.417 C 
ENDBRANCH  28  29
ENDBRANCH   9  21
BRANCH  14  11
ATOM     11  C   UNL     1      -5.557 -10.261  10.348  0.00  0.00    +0.047 C 
ATOM     12  C   UNL     1      -4.950  -9.099   9.534  0.00  0.00    +0.039 C 
ATOM     13  C   UNL     1      -4.917  -9.578   8.078  0.00  0.00    +0.097 C 
ATOM     15  C   UNL     1      -5.314 -11.442   9.453  0.00  0.00    -0.021 C 
ATOM     16  C   UNL     1      -4.969 -11.065   8.217  0.00  0.00    -0.009 C 
BRANCH  13   8
ATOM      4  O   UNL     1      -5.748 -10.509   5.468  0.00  0.00    -0.273 OA
ATOM      8  N   UNL     1      -6.057  -9.136   7.320  0.00  0.00    -0.307 N 
ATOM     22  C   UNL     1      -6.380  -9.642   6.067  0.00  0.00    +0.239 C 
ATOM     32  H   UNL     1      -6.633  -8.389   7.704  0.00  0.00    +0.149 HD
BRANCH  22  23
ATOM     23  C   UNL     1      -7.628  -8.999   5.500  0.00  0.00    +0.256 C 
BRANCH  23   5
ATOM      5  O   UNL     1      -7.665  -7.623   5.811  0.00  0.00    -0.359 OA
BRANCH   5  30
ATOM     30  C   UNL     1      -8.872  -7.260   6.475  0.00  0.00    +0.280 C 
BRANCH  30  31
ATOM      7  O   UNL     1      -9.356  -5.638   8.218  0.00  0.00    -0.248 OA
ATOM     31  C   UNL     1      -8.562  -6.367   7.643  0.00  0.00    +0.331 C 
BRANCH  31   6
ATOM      6  O   UNL     1      -7.253  -6.480   7.984  0.00  0.00    -0.479 OA
ATOM     33  H   UNL     1      -6.944  -5.712   8.512  0.00  0.00    +0.295 HD
ENDBRANCH  31   6
ENDBRANCH  30  31
ENDBRANCH   5  30
ENDBRANCH  23   5
ENDBRANCH  22  23
ENDBRANCH  13   8
ENDBRANCH  14  11
TORSDOF 9
ENDMDL
MODEL 3
REMARK VINA RESULT:      -6.2      1.377      1.935
REMARK  Name = 26743426
REMARK  11 active torsions:
REMARK  status: ('A' for Active; 'I' for Inactive)
REMARK    1  A    between atoms: O_5  and  C_23
REMARK    2  A    between atoms: O_5  and  C_30
REMARK    3  A    between atoms: O_6  and  C_31
REMARK    4  A    between atoms: N_8  and  C_13
REMARK    5  A    between atoms: N_9  and  C_21
REMARK    6  A    between atoms: C_11  and  C_14
REMARK    7  A    between atoms: C_17  and  C_19
REMARK    8  A    between atoms: C_18  and  C_20
REMARK    9  A    between atoms: C_22  and  C_23
REMARK   10  A    between atoms: C_28  and  C_29
REMARK   11  A    between atoms: C_30  and  C_31
REMARK                            x       y       z     vdW  Elec       q    Type
REMARK                         _______ _______ _______ _____ _____    ______ ____
ROOT
ATOM      9  N   UNL     1      17.112   8.197  21.193  0.00  0.00    -0.236 N 
ATOM     10  N   UNL     1      17.740   9.169  21.877  0.00  0.00    -0.171 NA
ATOM     14  C   UNL     1      19.182   7.505  21.270  0.00  0.00    +0.003 A 
ATOM     17  C   UNL     1      17.931   7.177  20.807  0.00  0.00    +0.046 A 
ATOM     18  C   UNL     1      19.004   8.741  21.920  0.00  0.00    +0.064 A 
ATOM     19  C   UNL     1      17.460   6.002  20.047  0.00  0.00    +0.066 C 
ATOM     20  C   UNL     1      20.022   9.557  22.605  0.00  0.00    +0.068 C 
ENDROOT
BRANCH   9  21
ATOM     21  C   UNL     1      15.743   8.299  20.945  0.00  0.00    +0.066 A 
ATOM     24  C   UNL     1      14.826   7.841  21.890  0.00  0.00    +0.028 A 
ATOM     25  C   UNL     1      15.292   8.857  19.749  0.00  0.00    +0.028 A 
ATOM     26  C   UNL     1      13.457   7.941  21.640  0.00  0.00    +0.014 A 
ATOM     27  C   UNL     1      13.923   8.957  19.499  0.00  0.00    +0.014 A 
ATOM     28  C   UNL     1      13.006   8.499  20.444  0.00  0.00    +0.055 A 
BRANCH  28  29
ATOM      1  F   UNL     1      10.815   7.571  20.692  0.00  0.00    -0.166 F 
ATOM      2  F   UNL     1      11.254   8.623  18.842  0.00  0.00    -0.166 F 
ATOM      3  F   UNL     1      10.972   9.735  20.689  0.00  0.00    -0.166 F 
ATOM     29  C   UNL     1      11.542   8.605  20.175  0.00  0.00    +0.417 C 
ENDBRANCH  28  29
ENDBRANCH   9  21
BRANCH  14  11
ATOM     11  C   UNL     1      20.461   6.715  21.114  0.00  0.00    +0.047 C 
ATOM     12  C   UNL     1      20.960   6.097  22.436  0.00  0.00    +0.039 C 
ATOM     13  C   UNL     1      21.605   4.758  22.058  0.00  0.00    +0.097 C 
ATOM     15  C   UNL     1      20.353   5.515  20.219  0.00  0.00    -0.021 C 
ATOM     16  C   UNL     1      20.981   4.452  20.735  0.00  0.00    -0.009 C 
BRANCH  13   8
ATOM      4  O   UNL     1      23.636   3.956  23.955  0.00  0.00    -0.273 OA
ATOM      8  N   UNL     1      23.031   4.853  21.895  0.00  0.00    -0.307 N 
ATOM     22  C   UNL     1      23.936   4.441  22.867  0.00  0.00    +0.239 C 
ATOM     32  H   UNL     1      23.394   5.276  21.045  0.00  0.00    +0.149 HD
BRANCH  22  23
ATOM     23  C   UNL     1      25.370   4.654  22.433  0.00  0.00    +0.256 C 
BRANCH  23   5
ATOM      5  O   UNL     1      25.917   3.460  21.914  0.00  0.00    -0.359 OA
BRANCH   5  30
ATOM     30  C   UNL     1      25.968   3.473  20.490  0.00  0.00    +0.280 C 
BRANCH  30  31
ATOM      7  O   UNL     1      24.093   1.930  20.566  0.00  0.00    -0.248 OA
ATOM     31  C   UNL     1      24.816   2.684  19.933  0.00  0.00    +0.331 C 
BRANCH  31   6
ATOM      6  O   UNL     1      24.682   2.926  18.605  0.00  0.00    -0.479 OA
ATOM     33  H   UNL     1      23.937   3.537  18.417  0.00  0.00    +0.295 HD
ENDBRANCH  31   6
ENDBRANCH  30  31
ENDBRANCH   5  30
ENDBRANCH  23   5
ENDBRANCH  22  23
ENDBRANCH  13   8
ENDBRANCH  14  11
TORSDOF 9
ENDMDL
MODEL 4
REMARK VINA RESULT:      -6.1     29.964     32.399
REMARK  Name = 26743426
REMARK  11 active torsions:
REMARK  status: ('A' for Active; 'I' for Inactive)
REMARK    1  A    between atoms: O_5  and  C_23
REMARK    2  A    between atoms: O_5  and  C_30
REMARK    3  A    between atoms: O_6  and  C_31
REMARK    4  A    between atoms: N_8  and  C_13
REMARK    5  A    between atoms: N_9  and  C_21
REMARK    6  A    between atoms: C_11  and  C_14
REMARK    7  A    between atoms: C_17  and  C_19
REMARK    8  A    between atoms: C_18  and  C_20
REMARK    9  A    between atoms: C_22  and  C_23
REMARK   10  A    between atoms: C_28  and  C_29
REMARK   11  A    between atoms: C_30  and  C_31
REMARK                            x       y       z     vdW  Elec       q    Type
REMARK                         _______ _______ _______ _____ _____    ______ ____
ROOT
ATOM      9  N   UNL     1      -4.665 -10.668  13.905  0.00  0.00    -0.236 N 
ATOM     10  N   UNL     1      -3.416 -10.461  13.455  0.00  0.00    -0.171 NA
ATOM     14  C   UNL     1      -4.936 -10.439  11.750  0.00  0.00    +0.003 A 
ATOM     17  C   UNL     1      -5.613 -10.664  12.924  0.00  0.00    +0.046 A 
ATOM     18  C   UNL     1      -3.588 -10.321  12.137  0.00  0.00    +0.064 A 
ATOM     19  C   UNL     1      -7.051 -10.874  13.184  0.00  0.00    +0.066 C 
ATOM     20  C   UNL     1      -2.418 -10.075  11.276  0.00  0.00    +0.068 C 
ENDROOT
BRANCH   9  21
ATOM     21  C   UNL     1      -4.886 -10.861  15.269  0.00  0.00    +0.066 A 
ATOM     24  C   UNL     1      -4.574 -12.085  15.860  0.00  0.00    +0.028 A 
ATOM     25  C   UNL     1      -5.422  -9.831  16.040  0.00  0.00    +0.028 A 
ATOM     26  C   UNL     1      -4.797 -12.278  17.224  0.00  0.00    +0.014 A 
ATOM     27  C   UNL     1      -5.646 -10.024  17.404  0.00  0.00    +0.014 A 
ATOM     28  C   UNL     1      -5.333 -11.248  17.996  0.00  0.00    +0.055 A 
BRANCH  28  29
ATOM      1  F   UNL     1      -6.507 -12.415  19.723  0.00  0.00    -0.166 F 
ATOM      2  F   UNL     1      -6.020 -10.326  20.076  0.00  0.00    -0.166 F 
ATOM      3  F   UNL     1      -4.458 -11.838  20.143  0.00  0.00    -0.166 F 
ATOM     29  C   UNL     1      -5.574 -11.455  19.453  0.00  0.00    +0.417 C 
ENDBRANCH  28  29
ENDBRANCH   9  21
BRANCH  14  11
ATOM     11  C   UNL     1      -5.513 -10.340  10.356  0.00  0.00    +0.047 C 
ATOM     12  C   UNL     1      -5.024  -9.098   9.582  0.00  0.00    +0.039 C 
ATOM     13  C   UNL     1      -4.920  -9.532   8.115  0.00  0.00    +0.097 C 
ATOM     15  C   UNL     1      -5.132 -11.463   9.436  0.00  0.00    -0.021 C 
ATOM     16  C   UNL     1      -4.813 -11.018   8.215  0.00  0.00    -0.009 C 
BRANCH  13   8
ATOM      4  O   UNL     1      -5.632 -10.508   5.486  0.00  0.00    -0.273 OA
ATOM      8  N   UNL     1      -6.091  -9.194   7.350  0.00  0.00    -0.307 N 
ATOM     22  C   UNL     1      -6.351  -9.714   6.088  0.00  0.00    +0.239 C 
ATOM     32  H   UNL     1      -6.741  -8.512   7.736  0.00  0.00    +0.149 HD
BRANCH  22  23
ATOM     23  C   UNL     1      -7.650  -9.190   5.516  0.00  0.00    +0.256 C 
BRANCH  23   5
ATOM      5  O   UNL     1      -7.408  -8.393   4.376  0.00  0.00    -0.359 OA
BRANCH   5  30
ATOM     30  C   UNL     1      -7.953  -8.974   3.195  0.00  0.00    +0.280 C 
BRANCH  30  31
ATOM      7  O   UNL     1      -7.810  -8.258   0.878  0.00  0.00    -0.248 OA
ATOM     31  C   UNL     1      -7.890  -7.984   2.066  0.00  0.00    +0.331 C 
BRANCH  31   6
ATOM      6  O   UNL     1      -7.937  -6.717   2.551  0.00  0.00    -0.479 OA
ATOM     33  H   UNL     1      -8.450  -6.119   1.965  0.00  0.00    +0.295 HD
ENDBRANCH  31   6
ENDBRANCH  30  31
ENDBRANCH   5  30
ENDBRANCH  23   5
ENDBRANCH  22  23
ENDBRANCH  13   8
ENDBRANCH  14  11
TORSDOF 9
ENDMDL
MODEL 5
REMARK VINA RESULT:      -6.0     29.946     34.011
REMARK  Name = 26743426
REMARK  11 active torsions:
REMARK  status: ('A' for Active; 'I' for Inactive)
REMARK    1  A    between atoms: O_5  and  C_23
REMARK    2  A    between atoms: O_5  and  C_30
REMARK    3  A    between atoms: O_6  and  C_31
REMARK    4  A    between atoms: N_8  and  C_13
REMARK    5  A    between atoms: N_9  and  C_21
REMARK    6  A    between atoms: C_11  and  C_14
REMARK    7  A    between atoms: C_17  and  C_19
REMARK    8  A    between atoms: C_18  and  C_20
REMARK    9  A    between atoms: C_22  and  C_23
REMARK   10  A    between atoms: C_28  and  C_29
REMARK   11  A    between atoms: C_30  and  C_31
REMARK                            x       y       z     vdW  Elec       q    Type
REMARK                         _______ _______ _______ _____ _____    ______ ____
ROOT
ATOM      9  N   UNL     1      -7.096 -10.220  17.044  0.00  0.00    -0.236 N 
ATOM     10  N   UNL     1      -7.703  -9.037  16.846  0.00  0.00    -0.171 NA
ATOM     14  C   UNL     1      -9.041 -10.482  18.003  0.00  0.00    +0.003 A 
ATOM     17  C   UNL     1      -7.855 -11.120  17.733  0.00  0.00    +0.046 A 
ATOM     18  C   UNL     1      -8.891  -9.203  17.435  0.00  0.00    +0.064 A 
ATOM     19  C   UNL     1      -7.394 -12.483  18.065  0.00  0.00    +0.066 C 
ATOM     20  C   UNL     1      -9.865  -8.097  17.426  0.00  0.00    +0.068 C 
ENDROOT
BRANCH   9  21
ATOM     21  C   UNL     1      -5.806 -10.425  16.557  0.00  0.00    +0.066 A 
ATOM     24  C   UNL     1      -4.736 -10.550  17.443  0.00  0.00    +0.028 A 
ATOM     25  C   UNL     1      -5.584 -10.501  15.182  0.00  0.00    +0.028 A 
ATOM     26  C   UNL     1      -3.445 -10.752  16.954  0.00  0.00    +0.014 A 
ATOM     27  C   UNL     1      -4.293 -10.703  14.693  0.00  0.00    +0.014 A 
ATOM     28  C   UNL     1      -3.223 -10.828  15.579  0.00  0.00    +0.055 A 
BRANCH  28  29
ATOM      1  F   UNL     1      -0.867 -10.838  15.990  0.00  0.00    -0.166 F 
ATOM      2  F   UNL     1      -1.539 -10.209  14.020  0.00  0.00    -0.166 F 
ATOM      3  F   UNL     1      -1.626 -12.307  14.586  0.00  0.00    -0.166 F 
ATOM     29  C   UNL     1      -1.843 -11.043  15.057  0.00  0.00    +0.417 C 
ENDBRANCH  28  29
ENDBRANCH   9  21
BRANCH  14  11
ATOM     11  C   UNL     1     -10.236 -11.032  18.747  0.00  0.00    +0.047 C 
ATOM     12  C   UNL     1     -10.536 -10.279  20.059  0.00  0.00    +0.039 C 
ATOM     13  C   UNL     1     -12.062 -10.289  20.210  0.00  0.00    +0.097 C 
ATOM     15  C   UNL     1     -11.539 -10.926  18.010  0.00  0.00    -0.021 C 
ATOM     16  C   UNL     1     -12.532 -10.524  18.812  0.00  0.00    -0.009 C 
BRANCH  13   8
ATOM      4  O   UNL     1     -14.705 -10.583  21.349  0.00  0.00    -0.273 OA
ATOM      8  N   UNL     1     -12.532 -11.358  21.051  0.00  0.00    -0.307 N 
ATOM     22  C   UNL     1     -13.826 -11.416  21.555  0.00  0.00    +0.239 C 
ATOM     32  H   UNL     1     -11.875 -12.086  21.320  0.00  0.00    +0.149 HD
BRANCH  22  23
ATOM     23  C   UNL     1     -14.047 -12.647  22.407  0.00  0.00    +0.256 C 
BRANCH  23   5
ATOM      5  O   UNL     1     -12.923 -12.899  23.222  0.00  0.00    -0.359 OA
BRANCH   5  30
ATOM     30  C   UNL     1     -12.528 -14.267  23.175  0.00  0.00    +0.280 C 
BRANCH  30  31
ATOM      7  O   UNL     1     -10.205 -14.902  23.499  0.00  0.00    -0.248 OA
ATOM     31  C   UNL     1     -11.069 -14.363  22.824  0.00  0.00    +0.331 C 
BRANCH  31   6
ATOM      6  O   UNL     1     -10.834 -13.761  21.631  0.00  0.00    -0.479 OA
ATOM     33  H   UNL     1     -10.640 -12.804  21.736  0.00  0.00    +0.295 HD
ENDBRANCH  31   6
ENDBRANCH  30  31
ENDBRANCH   5  30
ENDBRANCH  23   5
ENDBRANCH  22  23
ENDBRANCH  13   8
ENDBRANCH  14  11
TORSDOF 9
ENDMDL
MODEL 6
REMARK VINA RESULT:      -5.9     34.791     36.049
REMARK  Name = 26743426
REMARK  11 active torsions:
REMARK  status: ('A' for Active; 'I' for Inactive)
REMARK    1  A    between atoms: O_5  and  C_23
REMARK    2  A    between atoms: O_5  and  C_30
REMARK    3  A    between atoms: O_6  and  C_31
REMARK    4  A    between atoms: N_8  and  C_13
REMARK    5  A    between atoms: N_9  and  C_21
REMARK    6  A    between atoms: C_11  and  C_14
REMARK    7  A    between atoms: C_17  and  C_19
REMARK    8  A    between atoms: C_18  and  C_20
REMARK    9  A    between atoms: C_22  and  C_23
REMARK   10  A    between atoms: C_28  and  C_29
REMARK   11  A    between atoms: C_30  and  C_31
REMARK                            x       y       z     vdW  Elec       q    Type
REMARK                         _______ _______ _______ _____ _____    ______ ____
ROOT
ATOM      9  N   UNL     1     -13.736   5.878  33.158  0.00  0.00    -0.236 N 
ATOM     10  N   UNL     1     -13.260   6.930  32.471  0.00  0.00    -0.171 NA
ATOM     14  C   UNL     1     -13.261   7.330  34.720  0.00  0.00    +0.003 A 
ATOM     17  C   UNL     1     -13.757   6.066  34.509  0.00  0.00    +0.046 A 
ATOM     18  C   UNL     1     -12.971   7.814  33.430  0.00  0.00    +0.064 A 
ATOM     19  C   UNL     1     -14.241   5.048  35.463  0.00  0.00    +0.066 C 
ATOM     20  C   UNL     1     -12.414   9.128  33.061  0.00  0.00    +0.068 C 
ENDROOT
BRANCH   9  21
ATOM     21  C   UNL     1     -14.149   4.735  32.475  0.00  0.00    +0.066 A 
ATOM     24  C   UNL     1     -15.492   4.572  32.135  0.00  0.00    +0.028 A 
ATOM     25  C   UNL     1     -13.219   3.752  32.134  0.00  0.00    +0.028 A 
ATOM     26  C   UNL     1     -15.905   3.427  31.453  0.00  0.00    +0.014 A 
ATOM     27  C   UNL     1     -13.633   2.607  31.453  0.00  0.00    +0.014 A 
ATOM     28  C   UNL     1     -14.976   2.444  31.113  0.00  0.00    +0.055 A 
BRANCH  28  29
ATOM      1  F   UNL     1     -16.631   1.355  29.772  0.00  0.00    -0.166 F 
ATOM      2  F   UNL     1     -15.544   0.138  31.209  0.00  0.00    -0.166 F 
ATOM      3  F   UNL     1     -14.559   0.829  29.398  0.00  0.00    -0.166 F 
ATOM     29  C   UNL     1     -15.418   1.219  30.386  0.00  0.00    +0.417 C 
ENDBRANCH  28  29
ENDBRANCH   9  21
BRANCH  14  11
ATOM     11  C   UNL     1     -13.070   8.038  36.041  0.00  0.00    +0.047 C 
ATOM     12  C   UNL     1     -11.758   7.651  36.755  0.00  0.00    +0.039 C 
ATOM     13  C   UNL     1     -11.283   8.918  37.477  0.00  0.00    +0.097 C 
ATOM     15  C   UNL     1     -12.955   9.532  35.943  0.00  0.00    -0.021 C 
ATOM     16  C   UNL     1     -11.982  10.007  36.730  0.00  0.00    -0.009 C 
BRANCH  13   8
ATOM      4  O   UNL     1     -10.184  10.583  39.571  0.00  0.00    -0.273 OA
ATOM      8  N   UNL     1     -11.687   8.958  38.856  0.00  0.00    -0.307 N 
ATOM     22  C   UNL     1     -11.098   9.795  39.797  0.00  0.00    +0.239 C 
ATOM     32  H   UNL     1     -12.413   8.316  39.167  0.00  0.00    +0.149 HD
BRANCH  22  23
ATOM     23  C   UNL     1     -11.718   9.631  41.168  0.00  0.00    +0.256 C 
BRANCH  23   5
ATOM      5  O   UNL     1     -11.459   8.343  41.683  0.00  0.00    -0.359 OA
BRANCH   5  30
ATOM     30  C   UNL     1     -10.075   8.152  41.966  0.00  0.00    +0.280 C 
BRANCH  30  31
ATOM      7  O   UNL     1      -8.820   6.075  42.091  0.00  0.00    -0.248 OA
ATOM     31  C   UNL     1      -9.654   6.775  41.536  0.00  0.00    +0.331 C 
BRANCH  31   6
ATOM      6  O   UNL     1     -10.338   6.401  40.425  0.00  0.00    -0.479 OA
ATOM     33  H   UNL     1     -10.401   5.425  40.344  0.00  0.00    +0.295 HD
ENDBRANCH  31   6
ENDBRANCH  30  31
ENDBRANCH   5  30
ENDBRANCH  23   5
ENDBRANCH  22  23
ENDBRANCH  13   8
ENDBRANCH  14  11
TORSDOF 9
ENDMDL
MODEL 7
REMARK VINA RESULT:      -5.9     30.782     34.694
REMARK  Name = 26743426
REMARK  11 active torsions:
REMARK  status: ('A' for Active; 'I' for Inactive)
REMARK    1  A    between atoms: O_5  and  C_23
REMARK    2  A    between atoms: O_5  and  C_30
REMARK    3  A    between atoms: O_6  and  C_31
REMARK    4  A    between atoms: N_8  and  C_13
REMARK    5  A    between atoms: N_9  and  C_21
REMARK    6  A    between atoms: C_11  and  C_14
REMARK    7  A    between atoms: C_17  and  C_19
REMARK    8  A    between atoms: C_18  and  C_20
REMARK    9  A    between atoms: C_22  and  C_23
REMARK   10  A    between atoms: C_28  and  C_29
REMARK   11  A    between atoms: C_30  and  C_31
REMARK                            x       y       z     vdW  Elec       q    Type
REMARK                         _______ _______ _______ _____ _____    ______ ____
ROOT
ATOM      9  N   UNL     1      -6.380  -8.811   8.574  0.00  0.00    -0.236 N 
ATOM     10  N   UNL     1      -7.195  -7.815   8.961  0.00  0.00    -0.171 NA
ATOM     14  C   UNL     1      -7.701  -8.543   6.856  0.00  0.00    +0.003 A 
ATOM     17  C   UNL     1      -6.641  -9.282   7.321  0.00  0.00    +0.046 A 
ATOM     18  C   UNL     1      -8.001  -7.657   7.907  0.00  0.00    +0.064 A 
ATOM     19  C   UNL     1      -5.872 -10.372   6.687  0.00  0.00    +0.066 C 
ATOM     20  C   UNL     1      -9.056  -6.629   7.950  0.00  0.00    +0.068 C 
ENDROOT
BRANCH   9  21
ATOM     21  C   UNL     1      -5.381  -9.262   9.437  0.00  0.00    +0.066 A 
ATOM     24  C   UNL     1      -4.085  -8.759   9.330  0.00  0.00    +0.028 A 
ATOM     25  C   UNL     1      -5.679 -10.220  10.406  0.00  0.00    +0.028 A 
ATOM     26  C   UNL     1      -3.086  -9.212  10.192  0.00  0.00    +0.014 A 
ATOM     27  C   UNL     1      -4.680 -10.674  11.268  0.00  0.00    +0.014 A 
ATOM     28  C   UNL     1      -3.384 -10.170  11.161  0.00  0.00    +0.055 A 
BRANCH  28  29
ATOM      1  F   UNL     1      -1.085 -10.123  11.822  0.00  0.00    -0.166 F 
ATOM      2  F   UNL     1      -2.147 -12.009  12.021  0.00  0.00    -0.166 F 
ATOM      3  F   UNL     1      -2.557 -10.376  13.396  0.00  0.00    -0.166 F 
ATOM     29  C   UNL     1      -2.316 -10.657  12.081  0.00  0.00    +0.417 C 
ENDBRANCH  28  29
ENDBRANCH   9  21
BRANCH  14  11
ATOM     11  C   UNL     1      -8.390  -8.659   5.515  0.00  0.00    +0.047 C 
ATOM     12  C   UNL     1      -7.496  -8.232   4.333  0.00  0.00    +0.039 C 
ATOM     13  C   UNL     1      -7.885  -9.144   3.162  0.00  0.00    +0.097 C 
ATOM     15  C   UNL     1      -8.787 -10.055   5.131  0.00  0.00    -0.021 C 
ATOM     16  C   UNL     1      -8.513 -10.313   3.847  0.00  0.00    -0.009 C 
BRANCH  13   8
ATOM      4  O   UNL     1      -8.166  -9.583   0.317  0.00  0.00    -0.273 OA
ATOM      8  N   UNL     1      -8.848  -8.539   2.281  0.00  0.00    -0.307 N 
ATOM     22  C   UNL     1      -8.909  -8.812   0.920  0.00  0.00    +0.239 C 
ATOM     32  H   UNL     1      -9.492  -7.852   2.666  0.00  0.00    +0.149 HD
BRANCH  22  23
ATOM     23  C   UNL     1     -10.017  -8.040   0.236  0.00  0.00    +0.256 C 
BRANCH  23   5
ATOM      5  O   UNL     1     -10.252  -6.814   0.896  0.00  0.00    -0.359 OA
BRANCH   5  30
ATOM     30  C   UNL     1     -11.636  -6.616   1.172  0.00  0.00    +0.280 C 
BRANCH  30  31
ATOM      7  O   UNL     1     -11.122  -7.012   3.514  0.00  0.00    -0.248 OA
ATOM     31  C   UNL     1     -11.851  -6.534   2.657  0.00  0.00    +0.331 C 
BRANCH  31   6
ATOM      6  O   UNL     1     -12.988  -5.844   2.928  0.00  0.00    -0.479 OA
ATOM     33  H   UNL     1     -13.429  -6.170   3.742  0.00  0.00    +0.295 HD
ENDBRANCH  31   6
ENDBRANCH  30  31
ENDBRANCH   5  30
ENDBRANCH  23   5
ENDBRANCH  22  23
ENDBRANCH  13   8
ENDBRANCH  14  11
TORSDOF 9
ENDMDL
MODEL 8
REMARK VINA RESULT:      -5.9     30.253     31.733
REMARK  Name = 26743426
REMARK  11 active torsions:
REMARK  status: ('A' for Active; 'I' for Inactive)
REMARK    1  A    between atoms: O_5  and  C_23
REMARK    2  A    between atoms: O_5  and  C_30
REMARK    3  A    between atoms: O_6  and  C_31
REMARK    4  A    between atoms: N_8  and  C_13
REMARK    5  A    between atoms: N_9  and  C_21
REMARK    6  A    between atoms: C_11  and  C_14
REMARK    7  A    between atoms: C_17  and  C_19
REMARK    8  A    between atoms: C_18  and  C_20
REMARK    9  A    between atoms: C_22  and  C_23
REMARK   10  A    between atoms: C_28  and  C_29
REMARK   11  A    between atoms: C_30  and  C_31
REMARK                            x       y       z     vdW  Elec       q    Type
REMARK                         _______ _______ _______ _____ _____    ______ ____
ROOT
ATOM      9  N   UNL     1      -4.386 -11.917  14.408  0.00  0.00    -0.236 N 
ATOM     10  N   UNL     1      -3.634 -12.998  14.140  0.00  0.00    -0.171 NA
ATOM     14  C   UNL     1      -3.975 -11.731  12.271  0.00  0.00    +0.003 A 
ATOM     17  C   UNL     1      -4.619 -11.126  13.322  0.00  0.00    +0.046 A 
ATOM     18  C   UNL     1      -3.385 -12.879  12.833  0.00  0.00    +0.064 A 
ATOM     19  C   UNL     1      -5.422  -9.887  13.379  0.00  0.00    +0.066 C 
ATOM     20  C   UNL     1      -2.570 -13.902  12.154  0.00  0.00    +0.068 C 
ENDROOT
BRANCH   9  21
ATOM     21  C   UNL     1      -4.845 -11.699  15.706  0.00  0.00    +0.066 A 
ATOM     24  C   UNL     1      -6.020 -12.311  16.143  0.00  0.00    +0.028 A 
ATOM     25  C   UNL     1      -4.132 -10.866  16.567  0.00  0.00    +0.028 A 
ATOM     26  C   UNL     1      -6.482 -12.090  17.441  0.00  0.00    +0.014 A 
ATOM     27  C   UNL     1      -4.593 -10.645  17.865  0.00  0.00    +0.014 A 
ATOM     28  C   UNL     1      -5.768 -11.256  18.302  0.00  0.00    +0.055 A 
BRANCH  28  29
ATOM      1  F   UNL     1      -5.509 -11.633  20.651  0.00  0.00    -0.166 F 
ATOM      2  F   UNL     1      -7.535 -11.472  19.878  0.00  0.00    -0.166 F 
ATOM      3  F   UNL     1      -6.286  -9.700  20.044  0.00  0.00    -0.166 F 
ATOM     29  C   UNL     1      -6.262 -11.019  19.690  0.00  0.00    +0.417 C 
ENDBRANCH  28  29
ENDBRANCH   9  21
BRANCH  14  11
ATOM     11  C   UNL     1      -3.914 -11.266  10.834  0.00  0.00    +0.047 C 
ATOM     12  C   UNL     1      -5.300 -10.931  10.243  0.00  0.00    +0.039 C 
ATOM     13  C   UNL     1      -5.073  -9.759   9.281  0.00  0.00    +0.097 C 
ATOM     15  C   UNL     1      -3.154  -9.990  10.617  0.00  0.00    -0.021 C 
ATOM     16  C   UNL     1      -3.788  -9.174   9.768  0.00  0.00    -0.009 C 
BRANCH  13   8
ATOM      4  O   UNL     1      -7.158 -10.150   7.314  0.00  0.00    -0.273 OA
ATOM      8  N   UNL     1      -4.911 -10.182   7.916  0.00  0.00    -0.307 N 
ATOM     22  C   UNL     1      -5.977 -10.345   7.038  0.00  0.00    +0.239 C 
ATOM     32  H   UNL     1      -3.975 -10.411   7.588  0.00  0.00    +0.149 HD
BRANCH  22  23
ATOM     23  C   UNL     1      -5.519 -10.796   5.668  0.00  0.00    +0.256 C 
BRANCH  23   5
ATOM      5  O   UNL     1      -5.312 -12.193   5.647  0.00  0.00    -0.359 OA
BRANCH   5  30
ATOM     30  C   UNL     1      -3.930 -12.523   5.548  0.00  0.00    +0.280 C 
BRANCH  30  31
ATOM      7  O   UNL     1      -3.926 -13.224   7.874  0.00  0.00    -0.248 OA
ATOM     31  C   UNL     1      -3.521 -13.357   6.730  0.00  0.00    +0.331 C 
BRANCH  31   6
ATOM      6  O   UNL     1      -2.622 -14.300   6.349  0.00  0.00    -0.479 OA
ATOM     33  H   UNL     1      -2.795 -14.625   5.439  0.00  0.00    +0.295 HD
ENDBRANCH  31   6
ENDBRANCH  30  31
ENDBRANCH   5  30
ENDBRANCH  23   5
ENDBRANCH  22  23
ENDBRANCH  13   8
ENDBRANCH  14  11
TORSDOF 9
ENDMDL
MODEL 9
REMARK VINA RESULT:      -5.8     29.579     32.607
REMARK  Name = 26743426
REMARK  11 active torsions:
REMARK  status: ('A' for Active; 'I' for Inactive)
REMARK    1  A    between atoms: O_5  and  C_23
REMARK    2  A    between atoms: O_5  and  C_30
REMARK    3  A    between atoms: O_6  and  C_31
REMARK    4  A    between atoms: N_8  and  C_13
REMARK    5  A    between atoms: N_9  and  C_21
REMARK    6  A    between atoms: C_11  and  C_14
REMARK    7  A    between atoms: C_17  and  C_19
REMARK    8  A    between atoms: C_18  and  C_20
REMARK    9  A    between atoms: C_22  and  C_23
REMARK   10  A    between atoms: C_28  and  C_29
REMARK   11  A    between atoms: C_30  and  C_31
REMARK                            x       y       z     vdW  Elec       q    Type
REMARK                         _______ _______ _______ _____ _____    ______ ____
ROOT
ATOM      9  N   UNL     1      -8.913 -11.215  19.212  0.00  0.00    -0.236 N 
ATOM     10  N   UNL     1      -7.870 -11.209  20.059  0.00  0.00    -0.171 NA
ATOM     14  C   UNL     1      -7.180 -11.257  17.883  0.00  0.00    +0.003 A 
ATOM     17  C   UNL     1      -8.553 -11.243  17.896  0.00  0.00    +0.046 A 
ATOM     18  C   UNL     1      -6.814 -11.233  19.242  0.00  0.00    +0.064 A 
ATOM     19  C   UNL     1      -9.530 -11.257  16.788  0.00  0.00    +0.066 C 
ATOM     20  C   UNL     1      -5.456 -11.237  19.814  0.00  0.00    +0.068 C 
ENDROOT
BRANCH   9  21
ATOM     21  C   UNL     1     -10.213 -11.193  19.714  0.00  0.00    +0.066 A 
ATOM     24  C   UNL     1     -10.801 -12.369  20.182  0.00  0.00    +0.028 A 
ATOM     25  C   UNL     1     -10.928  -9.996  19.746  0.00  0.00    +0.028 A 
ATOM     26  C   UNL     1     -12.103 -12.347  20.682  0.00  0.00    +0.014 A 
ATOM     27  C   UNL     1     -12.231  -9.974  20.246  0.00  0.00    +0.014 A 
ATOM     28  C   UNL     1     -12.818 -11.150  20.714  0.00  0.00    +0.055 A 
BRANCH  28  29
ATOM      1  F   UNL     1     -15.085 -11.892  20.528  0.00  0.00    -0.166 F 
ATOM      2  F   UNL     1     -14.747  -9.872  21.259  0.00  0.00    -0.166 F 
ATOM      3  F   UNL     1     -14.313 -11.580  22.532  0.00  0.00    -0.166 F 
ATOM     29  C   UNL     1     -14.211 -11.127  21.247  0.00  0.00    +0.417 C 
ENDBRANCH  28  29
ENDBRANCH   9  21
BRANCH  14  11
ATOM     11  C   UNL     1      -6.268 -11.288  16.678  0.00  0.00    +0.047 C 
ATOM     12  C   UNL     1      -5.233 -10.144  16.667  0.00  0.00    +0.039 C 
ATOM     13  C   UNL     1      -3.968 -10.728  16.028  0.00  0.00    +0.097 C 
ATOM     15  C   UNL     1      -5.400 -12.508  16.577  0.00  0.00    -0.021 C 
ATOM     16  C   UNL     1      -4.149 -12.198  16.220  0.00  0.00    -0.009 C 
BRANCH  13   8
ATOM      4  O   UNL     1      -1.642 -11.045  14.337  0.00  0.00    -0.273 OA
ATOM      8  N   UNL     1      -3.872 -10.444  14.622  0.00  0.00    -0.307 N 
ATOM     22  C   UNL     1      -2.706 -10.627  13.887  0.00  0.00    +0.239 C 
ATOM     32  H   UNL     1      -4.685 -10.054  14.150  0.00  0.00    +0.149 HD
BRANCH  22  23
ATOM     23  C   UNL     1      -2.889 -10.250  12.432  0.00  0.00    +0.256 C 
BRANCH  23   5
ATOM      5  O   UNL     1      -4.118 -10.739  11.940  0.00  0.00    -0.359 OA
BRANCH   5  30
ATOM     30  C   UNL     1      -4.827  -9.749  11.202  0.00  0.00    +0.280 C 
BRANCH  30  31
ATOM      7  O   UNL     1      -6.260  -9.502  13.148  0.00  0.00    -0.248 OA
ATOM     31  C   UNL     1      -6.064  -9.344  11.953  0.00  0.00    +0.331 C 
BRANCH  31   6
ATOM      6  O   UNL     1      -6.955  -8.764  11.109  0.00  0.00    -0.479 OA
ATOM     33  H   UNL     1      -7.867  -9.101  11.250  0.00  0.00    +0.295 HD
ENDBRANCH  31   6
ENDBRANCH  30  31
ENDBRANCH   5  30
ENDBRANCH  23   5
ENDBRANCH  22  23
ENDBRANCH  13   8
ENDBRANCH  14  11
TORSDOF 9
ENDMDL
MODEL 10
REMARK VINA RESULT:      -5.8     26.802     29.530
REMARK  Name = 26743426
REMARK  11 active torsions:
REMARK  status: ('A' for Active; 'I' for Inactive)
REMARK    1  A    between atoms: O_5  and  C_23
REMARK    2  A    between atoms: O_5  and  C_30
REMARK    3  A    between atoms: O_6  and  C_31
REMARK    4  A    between atoms: N_8  and  C_13
REMARK    5  A    between atoms: N_9  and  C_21
REMARK    6  A    between atoms: C_11  and  C_14
REMARK    7  A    between atoms: C_17  and  C_19
REMARK    8  A    between atoms: C_18  and  C_20
REMARK    9  A    between atoms: C_22  and  C_23
REMARK   10  A    between atoms: C_28  and  C_29
REMARK   11  A    between atoms: C_30  and  C_31
REMARK                            x       y       z     vdW  Elec       q    Type
REMARK                         _______ _______ _______ _____ _____    ______ ____
ROOT
ATOM      9  N   UNL     1      -1.365   9.199  37.758  0.00  0.00    -0.236 N 
ATOM     10  N   UNL     1      -0.571   9.936  36.963  0.00  0.00    -0.171 NA
ATOM     14  C   UNL     1      -2.775  10.437  36.639  0.00  0.00    +0.003 A 
ATOM     17  C   UNL     1      -2.695   9.461  37.603  0.00  0.00    +0.046 A 
ATOM     18  C   UNL     1      -1.437  10.690  36.283  0.00  0.00    +0.064 A 
ATOM     19  C   UNL     1      -3.752   8.771  38.370  0.00  0.00    +0.066 C 
ATOM     20  C   UNL     1      -0.934  11.652  35.285  0.00  0.00    +0.068 C 
ENDROOT
BRANCH   9  21
ATOM     21  C   UNL     1      -0.800   8.273  38.634  0.00  0.00    +0.066 A 
ATOM     24  C   UNL     1      -0.310   8.690  39.871  0.00  0.00    +0.028 A 
ATOM     25  C   UNL     1      -0.721   6.929  38.270  0.00  0.00    +0.028 A 
ATOM     26  C   UNL     1       0.258   7.763  40.745  0.00  0.00    +0.014 A 
ATOM     27  C   UNL     1      -0.153   6.001  39.144  0.00  0.00    +0.014 A 
ATOM     28  C   UNL     1       0.337   6.419  40.382  0.00  0.00    +0.055 A 
BRANCH  28  29
ATOM      1  F   UNL     1       1.597   4.407  40.683  0.00  0.00    -0.166 F 
ATOM      2  F   UNL     1       0.020   4.827  42.119  0.00  0.00    -0.166 F 
ATOM      3  F   UNL     1       1.870   5.970  42.163  0.00  0.00    -0.166 F 
ATOM     29  C   UNL     1       0.946   5.428  41.316  0.00  0.00    +0.417 C 
ENDBRANCH  28  29
ENDBRANCH   9  21
BRANCH  14  11
ATOM     11  C   UNL     1      -4.022  11.091  36.089  0.00  0.00    +0.047 C 
ATOM     12  C   UNL     1      -5.006  10.086  35.454  0.00  0.00    +0.039 C 
ATOM     13  C   UNL     1      -6.410  10.630  35.750  0.00  0.00    +0.097 C 
ATOM     15  C   UNL     1      -4.878  11.776  37.115  0.00  0.00    -0.021 C 
ATOM     16  C   UNL     1      -6.178  11.524  36.924  0.00  0.00    -0.009 C 
BRANCH  13   8
ATOM      4  O   UNL     1      -8.827  10.099  34.253  0.00  0.00    -0.273 OA
ATOM      8  N   UNL     1      -6.947  11.406  34.664  0.00  0.00    -0.307 N 
ATOM     22  C   UNL     1      -8.121  11.072  34.000  0.00  0.00    +0.239 C 
ATOM     32  H   UNL     1      -6.422  12.216  34.343  0.00  0.00    +0.149 HD
BRANCH  22  23
ATOM     23  C   UNL     1      -8.452  12.061  32.903  0.00  0.00    +0.256 C 
BRANCH  23   5
ATOM      5  O   UNL     1      -7.484  12.010  31.877  0.00  0.00    -0.359 OA
BRANCH   5  30
ATOM     30  C   UNL     1      -6.830  13.263  31.700  0.00  0.00    +0.280 C 
BRANCH  30  31
ATOM      7  O   UNL     1      -4.523  13.860  31.225  0.00  0.00    -0.248 OA
ATOM     31  C   UNL     1      -5.342  13.058  31.648  0.00  0.00    +0.331 C 
BRANCH  31   6
ATOM      6  O   UNL     1      -5.021  11.837  32.144  0.00  0.00    -0.479 OA
ATOM     33  H   UNL     1      -4.289  11.418  31.642  0.00  0.00    +0.295 HD
ENDBRANCH  31   6
ENDBRANCH  30  31
ENDBRANCH   5  30
ENDBRANCH  23   5
ENDBRANCH  22  23
ENDBRANCH  13   8
ENDBRANCH  14  11
TORSDOF 9
ENDMDL
