REMARK  Name = 38027524
REMARK  14 active torsions:
REMARK  status: ('A' for Active; 'I' for Inactive)
REMARK    1  A    between atoms: S_1  and  N_6
REMARK    2  A    between atoms: S_1  and  C_21
REMARK    3  A    between atoms: N_6  and  C_15
REMARK    4  A    between atoms: N_7  and  C_23
REMARK    5  A    between atoms: C_8  and  C_12
REMARK    6  A    between atoms: C_9  and  C_15
REMARK    7  A    between atoms: C_11  and  C_16
REMARK    8  A    between atoms: C_12  and  C_17
REMARK    9  A    between atoms: C_12  and  C_18
REMARK   10  A    between atoms: C_13  and  C_19
REMARK   11  A    between atoms: C_16  and  C_20
REMARK   12  A    between atoms: C_21  and  C_22
REMARK   13  A    between atoms: C_22  and  C_24
REMARK   14  A    between atoms: C_23  and  C_25
REMARK                            x       y       z     vdW  Elec       q    Type
REMARK                         _______ _______ _______ _____ _____    ______ ____
ROOT
ATOM      8  C   UNL     1       0.642   0.941  -1.242  0.00  0.00    +0.000 C 
ATOM      9  C   UNL     1       2.087   1.484  -1.371  0.00  0.00    +0.030 C 
ATOM     10  C   UNL     1      -0.366   2.100  -1.210  0.00  0.00    +0.012 C 
ATOM     11  C   UNL     1      -0.102   3.068  -0.042  0.00  0.00    +0.023 C 
ATOM     13  C   UNL     1       1.362   3.442   0.061  0.00  0.00    -0.073 C 
ATOM     14  C   UNL     1       2.325   2.730  -0.551  0.00  0.00    -0.023 C 
ATOM     19  C   UNL     1       1.692   4.681   0.846  0.00  0.00    +0.039 C 
ENDROOT
BRANCH   8  12
ATOM     12  C   UNL     1       0.291  -0.020  -2.383  0.00  0.00    -0.013 C 
ATOM     17  C   UNL     1      -0.114   0.761  -3.630  0.00  0.00    +0.007 C 
ATOM     18  C   UNL     1      -0.821  -0.971  -1.955  0.00  0.00    +0.007 C 
ENDBRANCH   8  12
BRANCH   9  15
ATOM     15  C   UNL     1       3.116   0.414  -0.986  0.00  0.00    +0.113 C 
BRANCH  15   6
ATOM      6  N   UNL     1       3.011   0.085   0.401  0.00  0.00    -0.194 NA
ATOM     31  H   UNL     1       3.274   0.842   1.044  0.00  0.00    +0.148 HD
BRANCH   6   1
ATOM      1  S   UNL     1       3.401  -1.506   0.956  0.00  0.00    +0.029 S 
ATOM      4  O   UNL     1       2.566  -2.465   0.261  0.00  0.00    -0.158 OA
ATOM      5  O   UNL     1       3.490  -1.512   2.404  0.00  0.00    -0.158 OA
BRANCH   1  21
ATOM     21  C   UNL     1       5.055  -1.659   0.322  0.00  0.00    +0.185 C 
BRANCH  21  22
ATOM     22  C   UNL     1       5.661  -3.007   0.676  0.00  0.00    +0.021 C 
ATOM     24  C   UNL     1       7.082  -3.132   0.152  0.00  0.00    +0.005 C 
ENDBRANCH  21  22
ENDBRANCH   1  21
ENDBRANCH   6   1
ENDBRANCH  15   6
ENDBRANCH   9  15
BRANCH  11  16
ATOM     16  C   UNL     1      -0.615   2.489   1.282  0.00  0.00    +0.103 C 
BRANCH  16  20
ATOM      3  O   UNL     1      -2.893   2.651   0.482  0.00  0.00    -0.276 OA
ATOM      7  N   UNL     1      -2.340   1.018   2.041  0.00  0.00    -0.311 N 
ATOM     20  C   UNL     1      -2.071   2.089   1.201  0.00  0.00    +0.214 C 
ATOM     32  H   UNL     1      -1.590   0.613   2.593  0.00  0.00    +0.149 HD
BRANCH   7  23
ATOM     23  C   UNL     1      -3.651   0.426   2.169  0.00  0.00    +0.139 C 
BRANCH  23  25
ATOM      2  F   UNL     1      -4.445  -3.756  -1.518  0.00  0.00    -0.205 F 
ATOM     25  C   UNL     1      -3.863  -0.689   1.186  0.00  0.00    -0.030 A 
ATOM     26  C   UNL     1      -4.397  -0.417  -0.074  0.00  0.00    +0.008 A 
ATOM     27  C   UNL     1      -3.526  -1.998   1.532  0.00  0.00    +0.008 A 
ATOM     28  C   UNL     1      -4.595  -1.452  -0.987  0.00  0.00    +0.038 A 
ATOM     29  C   UNL     1      -3.723  -3.033   0.619  0.00  0.00    +0.038 A 
ATOM     30  C   UNL     1      -4.257  -2.761  -0.640  0.00  0.00    +0.123 A 
ENDBRANCH  23  25
ENDBRANCH   7  23
ENDBRANCH  16  20
ENDBRANCH  11  16
TORSDOF 10
