MODEL 1
REMARK VINA RESULT:      -7.3      0.000      0.000
REMARK  Name = 28960006
REMARK  8 active torsions:
REMARK  status: ('A' for Active; 'I' for Inactive)
REMARK    1  A    between atoms: O_1  and  C_24
REMARK    2  A    between atoms: N_5  and  C_15
REMARK    3  A    between atoms: N_7  and  C_17
REMARK    4  A    between atoms: N_9  and  C_31
REMARK    5  A    between atoms: C_10  and  C_12
REMARK    6  A    between atoms: C_11  and  C_20
REMARK    7  A    between atoms: C_12  and  C_15
REMARK    8  A    between atoms: C_20  and  C_24
REMARK                            x       y       z     vdW  Elec       q    Type
REMARK                         _______ _______ _______ _____ _____    ______ ____
ROOT
ATOM      2  O   UNL     1      -2.003 -10.817  12.772  0.00  0.00    -0.252 OA
ATOM      6  N   UNL     1      -3.480 -11.656  14.339  0.00  0.00    -0.285 N 
ATOM      9  N   UNL     1      -4.156 -11.359  12.099  0.00  0.00    -0.269 N 
ATOM     10  C   UNL     1      -5.410 -11.349  15.866  0.00  0.00    +0.011 C 
ATOM     11  C   UNL     1      -4.409 -11.191  17.041  0.00  0.00    +0.006 C 
ATOM     13  C   UNL     1      -4.775 -12.212  14.762  0.00  0.00    +0.113 C 
ATOM     14  C   UNL     1      -3.033 -10.698  16.558  0.00  0.00    +0.023 C 
ATOM     16  C   UNL     1      -2.496 -11.561  15.418  0.00  0.00    +0.109 C 
ATOM     23  C   UNL     1      -3.127 -11.252  13.035  0.00  0.00    +0.306 C 
ATOM     39  H   UNL     1      -4.862 -12.072  12.236  0.00  0.00    +0.156 HD
ENDROOT
BRANCH   9  31
ATOM     31  C   UNL     1      -4.357 -10.558  10.948  0.00  0.00    +0.035 A 
ATOM     33  C   UNL     1      -4.653  -9.202  11.084  0.00  0.00    +0.023 A 
ATOM     34  C   UNL     1      -4.260 -11.126   9.677  0.00  0.00    +0.023 A 
ATOM     35  C   UNL     1      -4.851  -8.414   9.950  0.00  0.00    +0.002 A 
ATOM     36  C   UNL     1      -4.457 -10.338   8.544  0.00  0.00    +0.002 A 
ATOM     37  C   UNL     1      -4.753  -8.982   8.680  0.00  0.00    +0.000 A 
ENDBRANCH   9  31
BRANCH  10  12
ATOM     12  C   UNL     1      -5.908 -10.019  15.288  0.00  0.00    +0.020 C 
BRANCH  12  15
ATOM     15  C   UNL     1      -7.378 -10.111  14.902  0.00  0.00    +0.085 C 
BRANCH  15   5
ATOM      5  N   UNL     1      -8.210 -10.103  16.105  0.00  0.00    -0.302 NA
ATOM     17  C   UNL     1     -10.738 -10.022  17.575  0.00  0.00    +0.095 C 
ATOM     18  C   UNL     1      -9.094 -11.276  16.126  0.00  0.00    +0.086 C 
ATOM     19  C   UNL     1      -8.982  -8.855  16.188  0.00  0.00    +0.086 C 
ATOM     21  C   UNL     1      -9.933 -11.311  17.405  0.00  0.00    +0.040 C 
ATOM     22  C   UNL     1      -9.817  -8.807  17.468  0.00  0.00    +0.040 C 
BRANCH  17   7
ATOM      4  O   UNL     1      -9.723 -10.591  20.357  0.00  0.00    -0.247 OA
ATOM      7  N   UNL     1     -11.451 -10.017  18.828  0.00  0.00    -0.289 N 
ATOM      8  N   UNL     1     -11.952 -10.177  21.031  0.00  0.00    -0.306 N 
ATOM     25  C   UNL     1     -12.814  -9.733  18.984  0.00  0.00    +0.070 A 
ATOM     26  C   UNL     1     -10.883 -10.301  20.099  0.00  0.00    +0.328 A 
ATOM     27  C   UNL     1     -13.114  -9.833  20.342  0.00  0.00    +0.067 A 
ATOM     28  C   UNL     1     -13.777  -9.402  18.054  0.00  0.00    +0.028 A 
ATOM     29  C   UNL     1     -14.380  -9.611  20.836  0.00  0.00    +0.028 A 
ATOM     30  C   UNL     1     -15.072  -9.173  18.532  0.00  0.00    +0.002 A 
ATOM     32  C   UNL     1     -15.370  -9.275  19.907  0.00  0.00    +0.002 A 
ATOM     38  H   UNL     1     -11.891 -10.314  22.032  0.00  0.00    +0.170 HD
ENDBRANCH  17   7
ENDBRANCH  15   5
ENDBRANCH  12  15
ENDBRANCH  10  12
BRANCH  11  20
ATOM     20  C   UNL     1      -4.938 -10.300  18.165  0.00  0.00    +0.124 C 
BRANCH  20  24
ATOM      3  O   UNL     1      -6.195 -12.098  19.228  0.00  0.00    -0.251 OA
ATOM     24  C   UNL     1      -6.104 -10.932  18.872  0.00  0.00    +0.305 C 
BRANCH  24   1
ATOM      1  O   UNL     1      -7.076 -10.004  19.071  0.00  0.00    -0.481 OA
ATOM     40  H   UNL     1      -7.397  -9.625  18.224  0.00  0.00    +0.295 HD
ENDBRANCH  24   1
ENDBRANCH  20  24
ENDBRANCH  11  20
TORSDOF 8
ENDMDL
MODEL 2
REMARK VINA RESULT:      -6.8     26.392     30.097
REMARK  Name = 28960006
REMARK  8 active torsions:
REMARK  status: ('A' for Active; 'I' for Inactive)
REMARK    1  A    between atoms: O_1  and  C_24
REMARK    2  A    between atoms: N_5  and  C_15
REMARK    3  A    between atoms: N_7  and  C_17
REMARK    4  A    between atoms: N_9  and  C_31
REMARK    5  A    between atoms: C_10  and  C_12
REMARK    6  A    between atoms: C_11  and  C_20
REMARK    7  A    between atoms: C_12  and  C_15
REMARK    8  A    between atoms: C_20  and  C_24
REMARK                            x       y       z     vdW  Elec       q    Type
REMARK                         _______ _______ _______ _____ _____    ______ ____
ROOT
ATOM      2  O   UNL     1       9.983   3.998   0.829  0.00  0.00    -0.252 OA
ATOM      6  N   UNL     1      12.255   3.602   0.990  0.00  0.00    -0.285 N 
ATOM      9  N   UNL     1      11.026   4.297   2.880  0.00  0.00    -0.269 N 
ATOM     10  C   UNL     1      14.585   4.438   1.128  0.00  0.00    +0.011 C 
ATOM     11  C   UNL     1      14.743   4.142  -0.387  0.00  0.00    +0.006 C 
ATOM     13  C   UNL     1      13.523   3.501   1.728  0.00  0.00    +0.113 C 
ATOM     14  C   UNL     1      13.388   4.161  -1.118  0.00  0.00    +0.023 C 
ATOM     16  C   UNL     1      12.365   3.260  -0.428  0.00  0.00    +0.109 C 
ATOM     23  C   UNL     1      11.000   3.963   1.526  0.00  0.00    +0.306 C 
ATOM     39  H   UNL     1      11.725   3.867   3.472  0.00  0.00    +0.156 HD
ENDROOT
BRANCH   9  31
ATOM     31  C   UNL     1      10.177   5.209   3.556  0.00  0.00    +0.035 A 
ATOM     33  C   UNL     1       9.880   6.444   2.980  0.00  0.00    +0.023 A 
ATOM     34  C   UNL     1       9.638   4.871   4.797  0.00  0.00    +0.023 A 
ATOM     35  C   UNL     1       9.044   7.341   3.646  0.00  0.00    +0.002 A 
ATOM     36  C   UNL     1       8.802   5.767   5.462  0.00  0.00    +0.002 A 
ATOM     37  C   UNL     1       8.505   7.002   4.887  0.00  0.00    +0.000 A 
ENDBRANCH   9  31
BRANCH  10  12
ATOM     12  C   UNL     1      14.251   5.901   1.446  0.00  0.00    +0.020 C 
BRANCH  12  15
ATOM     15  C   UNL     1      15.447   6.609   2.066  0.00  0.00    +0.085 C 
BRANCH  15   5
ATOM      5  N   UNL     1      14.995   7.526   3.113  0.00  0.00    -0.302 NA
ATOM     17  C   UNL     1      13.496   8.272   5.512  0.00  0.00    +0.095 C 
ATOM     18  C   UNL     1      15.423   7.048   4.434  0.00  0.00    +0.086 C 
ATOM     19  C   UNL     1      13.536   7.692   3.055  0.00  0.00    +0.086 C 
ATOM     21  C   UNL     1      15.005   8.024   5.536  0.00  0.00    +0.040 C 
ATOM     22  C   UNL     1      13.052   8.688   4.109  0.00  0.00    +0.040 C 
BRANCH  17   7
ATOM      4  O   UNL     1      15.059  10.638   6.539  0.00  0.00    -0.247 OA
ATOM      7  N   UNL     1      13.117   9.266   6.486  0.00  0.00    -0.289 N 
ATOM      8  N   UNL     1      13.149  11.058   7.870  0.00  0.00    -0.306 N 
ATOM     25  C   UNL     1      11.893   9.311   7.164  0.00  0.00    +0.070 A 
ATOM     26  C   UNL     1      13.928  10.352   6.910  0.00  0.00    +0.328 A 
ATOM     27  C   UNL     1      11.920  10.416   8.013  0.00  0.00    +0.067 A 
ATOM     28  C   UNL     1      10.793   8.482   7.092  0.00  0.00    +0.028 A 
ATOM     29  C   UNL     1      10.860  10.747   8.828  0.00  0.00    +0.028 A 
ATOM     30  C   UNL     1       9.703   8.798   7.912  0.00  0.00    +0.002 A 
ATOM     32  C   UNL     1       9.736   9.917   8.769  0.00  0.00    +0.002 A 
ATOM     38  H   UNL     1      13.431  11.891   8.373  0.00  0.00    +0.170 HD
ENDBRANCH  17   7
ENDBRANCH  15   5
ENDBRANCH  12  15
ENDBRANCH  10  12
BRANCH  11  20
ATOM     20  C   UNL     1      15.743   5.066  -1.080  0.00  0.00    +0.124 C 
BRANCH  20  24
ATOM      3  O   UNL     1      17.671   4.531  -2.471  0.00  0.00    -0.251 OA
ATOM     24  C   UNL     1      16.996   4.334  -1.472  0.00  0.00    +0.305 C 
BRANCH  24   1
ATOM      1  O   UNL     1      17.289   3.395  -0.535  0.00  0.00    -0.481 OA
ATOM     40  H   UNL     1      16.955   2.508  -0.791  0.00  0.00    +0.295 HD
ENDBRANCH  24   1
ENDBRANCH  20  24
ENDBRANCH  11  20
TORSDOF 8
ENDMDL
MODEL 3
REMARK VINA RESULT:      -6.7     24.513     28.974
REMARK  Name = 28960006
REMARK  8 active torsions:
REMARK  status: ('A' for Active; 'I' for Inactive)
REMARK    1  A    between atoms: O_1  and  C_24
REMARK    2  A    between atoms: N_5  and  C_15
REMARK    3  A    between atoms: N_7  and  C_17
REMARK    4  A    between atoms: N_9  and  C_31
REMARK    5  A    between atoms: C_10  and  C_12
REMARK    6  A    between atoms: C_11  and  C_20
REMARK    7  A    between atoms: C_12  and  C_15
REMARK    8  A    between atoms: C_20  and  C_24
REMARK                            x       y       z     vdW  Elec       q    Type
REMARK                         _______ _______ _______ _____ _____    ______ ____
ROOT
ATOM      2  O   UNL     1       8.467  10.222   5.601  0.00  0.00    -0.252 OA
ATOM      6  N   UNL     1       9.893   8.616   6.454  0.00  0.00    -0.285 N 
ATOM      9  N   UNL     1       9.999   9.220   4.177  0.00  0.00    -0.269 N 
ATOM     10  C   UNL     1      10.540   6.240   6.742  0.00  0.00    +0.011 C 
ATOM     11  C   UNL     1       9.896   6.273   8.153  0.00  0.00    +0.006 C 
ATOM     13  C   UNL     1      11.003   7.655   6.354  0.00  0.00    +0.113 C 
ATOM     14  C   UNL     1       8.803   7.352   8.258  0.00  0.00    +0.023 C 
ATOM     16  C   UNL     1       9.313   8.715   7.794  0.00  0.00    +0.109 C 
ATOM     23  C   UNL     1       9.389   9.425   5.414  0.00  0.00    +0.306 C 
ATOM     39  H   UNL     1      10.964   8.911   4.157  0.00  0.00    +0.156 HD
ENDROOT
BRANCH   9  31
ATOM     31  C   UNL     1       9.417   9.379   2.895  0.00  0.00    +0.035 A 
ATOM     33  C   UNL     1      10.111  10.056   1.892  0.00  0.00    +0.023 A 
ATOM     34  C   UNL     1       8.149   8.859   2.635  0.00  0.00    +0.023 A 
ATOM     35  C   UNL     1       9.537  10.212   0.630  0.00  0.00    +0.002 A 
ATOM     36  C   UNL     1       7.576   9.014   1.373  0.00  0.00    +0.002 A 
ATOM     37  C   UNL     1       8.270   9.691   0.371  0.00  0.00    +0.000 A 
ENDBRANCH   9  31
BRANCH  10  12
ATOM     12  C   UNL     1       9.632   5.655   5.655  0.00  0.00    +0.020 C 
BRANCH  12  15
ATOM     15  C   UNL     1      10.302   4.478   4.961  0.00  0.00    +0.085 C 
BRANCH  15   5
ATOM      5  N   UNL     1      10.501   4.783   3.544  0.00  0.00    -0.302 NA
ATOM     17  C   UNL     1      12.094   5.316   1.149  0.00  0.00    +0.095 C 
ATOM     18  C   UNL     1      11.234   3.695   2.882  0.00  0.00    +0.086 C 
ATOM     19  C   UNL     1      11.199   6.066   3.388  0.00  0.00    +0.086 C 
ATOM     21  C   UNL     1      11.403   3.973   1.388  0.00  0.00    +0.040 C 
ATOM     22  C   UNL     1      11.369   6.426   1.911  0.00  0.00    +0.040 C 
BRANCH  17   7
ATOM      4  O   UNL     1      14.508   5.879  -0.569  0.00  0.00    -0.247 OA
ATOM      7  N   UNL     1      12.165   5.622  -0.258  0.00  0.00    -0.289 N 
ATOM      8  N   UNL     1      12.943   6.125  -2.325  0.00  0.00    -0.306 N 
ATOM     25  C   UNL     1      11.067   5.716  -1.123  0.00  0.00    +0.070 A 
ATOM     26  C   UNL     1      13.358   5.874  -0.986  0.00  0.00    +0.328 A 
ATOM     27  C   UNL     1      11.554   6.026  -2.392  0.00  0.00    +0.067 A 
ATOM     28  C   UNL     1       9.718   5.554  -0.887  0.00  0.00    +0.028 A 
ATOM     29  C   UNL     1      10.726   6.190  -3.480  0.00  0.00    +0.028 A 
ATOM     30  C   UNL     1       8.856   5.717  -1.977  0.00  0.00    +0.002 A 
ATOM     32  C   UNL     1       9.354   6.030  -3.259  0.00  0.00    +0.002 A 
ATOM     38  H   UNL     1      13.547   6.342  -3.108  0.00  0.00    +0.170 HD
ENDBRANCH  17   7
ENDBRANCH  15   5
ENDBRANCH  12  15
ENDBRANCH  10  12
BRANCH  11  20
ATOM     20  C   UNL     1       9.357   4.914   8.600  0.00  0.00    +0.124 C 
BRANCH  20  24
ATOM      3  O   UNL     1      10.434   4.634  10.769  0.00  0.00    -0.251 OA
ATOM     24  C   UNL     1       9.423   4.755  10.094  0.00  0.00    +0.305 C 
BRANCH  24   1
ATOM      1  O   UNL     1       8.166   4.766  10.610  0.00  0.00    -0.481 OA
ATOM     40  H   UNL     1       7.746   3.880  10.566  0.00  0.00    +0.295 HD
ENDBRANCH  24   1
ENDBRANCH  20  24
ENDBRANCH  11  20
TORSDOF 8
ENDMDL
MODEL 4
REMARK VINA RESULT:      -6.7     28.849     32.458
REMARK  Name = 28960006
REMARK  8 active torsions:
REMARK  status: ('A' for Active; 'I' for Inactive)
REMARK    1  A    between atoms: O_1  and  C_24
REMARK    2  A    between atoms: N_5  and  C_15
REMARK    3  A    between atoms: N_7  and  C_17
REMARK    4  A    between atoms: N_9  and  C_31
REMARK    5  A    between atoms: C_10  and  C_12
REMARK    6  A    between atoms: C_11  and  C_20
REMARK    7  A    between atoms: C_12  and  C_15
REMARK    8  A    between atoms: C_20  and  C_24
REMARK                            x       y       z     vdW  Elec       q    Type
REMARK                         _______ _______ _______ _____ _____    ______ ____
ROOT
ATOM      2  O   UNL     1      12.316   6.979  21.640  0.00  0.00    -0.252 OA
ATOM      6  N   UNL     1      11.837   9.208  21.262  0.00  0.00    -0.285 N 
ATOM      9  N   UNL     1      13.634   8.166  20.145  0.00  0.00    -0.269 N 
ATOM     10  C   UNL     1      12.330  11.612  21.624  0.00  0.00    +0.011 C 
ATOM     11  C   UNL     1      11.191  11.649  22.677  0.00  0.00    +0.006 C 
ATOM     13  C   UNL     1      12.043  10.504  20.596  0.00  0.00    +0.113 C 
ATOM     14  C   UNL     1      10.933  10.261  23.291  0.00  0.00    +0.023 C 
ATOM     16  C   UNL     1      10.723   9.200  22.212  0.00  0.00    +0.109 C 
ATOM     23  C   UNL     1      12.579   8.028  21.047  0.00  0.00    +0.306 C 
ATOM     39  H   UNL     1      13.553   8.856  19.408  0.00  0.00    +0.156 HD
ENDROOT
BRANCH   9  31
ATOM     31  C   UNL     1      14.856   7.449  20.136  0.00  0.00    +0.035 A 
ATOM     33  C   UNL     1      15.577   7.284  21.319  0.00  0.00    +0.023 A 
ATOM     34  C   UNL     1      15.340   6.910  18.944  0.00  0.00    +0.023 A 
ATOM     35  C   UNL     1      16.780   6.579  21.309  0.00  0.00    +0.002 A 
ATOM     36  C   UNL     1      16.542   6.203  18.935  0.00  0.00    +0.002 A 
ATOM     37  C   UNL     1      17.263   6.038  20.117  0.00  0.00    +0.000 A 
ENDBRANCH   9  31
BRANCH  10  12
ATOM     12  C   UNL     1      13.730  11.437  22.224  0.00  0.00    +0.020 C 
BRANCH  12  15
ATOM     15  C   UNL     1      14.626  12.615  21.865  0.00  0.00    +0.085 C 
BRANCH  15   5
ATOM      5  N   UNL     1      15.989  12.145  21.616  0.00  0.00    -0.302 NA
ATOM     17  C   UNL     1      18.199  10.234  21.765  0.00  0.00    +0.095 C 
ATOM     18  C   UNL     1      15.970  10.923  20.800  0.00  0.00    +0.086 C 
ATOM     19  C   UNL     1      16.697  11.926  22.885  0.00  0.00    +0.086 C 
ATOM     21  C   UNL     1      17.390  10.449  20.485  0.00  0.00    +0.040 C 
ATOM     22  C   UNL     1      18.141  11.485  22.642  0.00  0.00    +0.040 C 
BRANCH  17   7
ATOM      4  O   UNL     1      20.299  11.812  20.282  0.00  0.00    -0.247 OA
ATOM      7  N   UNL     1      19.565   9.882  21.462  0.00  0.00    -0.289 N 
ATOM      8  N   UNL     1      21.694   9.947  20.696  0.00  0.00    -0.306 N 
ATOM     25  C   UNL     1      20.190   8.683  21.822  0.00  0.00    +0.070 A 
ATOM     26  C   UNL     1      20.486  10.698  20.753  0.00  0.00    +0.328 A 
ATOM     27  C   UNL     1      21.500   8.730  21.347  0.00  0.00    +0.067 A 
ATOM     28  C   UNL     1      19.712   7.589  22.514  0.00  0.00    +0.028 A 
ATOM     29  C   UNL     1      22.391   7.697  21.536  0.00  0.00    +0.028 A 
ATOM     30  C   UNL     1      20.599   6.526  22.717  0.00  0.00    +0.002 A 
ATOM     32  C   UNL     1      21.924   6.579  22.234  0.00  0.00    +0.002 A 
ATOM     38  H   UNL     1      22.559  10.238  20.257  0.00  0.00    +0.170 HD
ENDBRANCH  17   7
ENDBRANCH  15   5
ENDBRANCH  12  15
ENDBRANCH  10  12
BRANCH  11  20
ATOM     20  C   UNL     1      11.421  12.690  23.773  0.00  0.00    +0.124 C 
BRANCH  20  24
ATOM      3  O   UNL     1      12.691  11.503  25.482  0.00  0.00    -0.251 OA
ATOM     24  C   UNL     1      11.660  12.045  25.110  0.00  0.00    +0.305 C 
BRANCH  24   1
ATOM      1  O   UNL     1      10.543  12.149  25.875  0.00  0.00    -0.481 OA
ATOM     40  H   UNL     1      10.713  12.648  26.703  0.00  0.00    +0.295 HD
ENDBRANCH  24   1
ENDBRANCH  20  24
ENDBRANCH  11  20
TORSDOF 8
ENDMDL
MODEL 5
REMARK VINA RESULT:      -6.7     24.846     28.960
REMARK  Name = 28960006
REMARK  8 active torsions:
REMARK  status: ('A' for Active; 'I' for Inactive)
REMARK    1  A    between atoms: O_1  and  C_24
REMARK    2  A    between atoms: N_5  and  C_15
REMARK    3  A    between atoms: N_7  and  C_17
REMARK    4  A    between atoms: N_9  and  C_31
REMARK    5  A    between atoms: C_10  and  C_12
REMARK    6  A    between atoms: C_11  and  C_20
REMARK    7  A    between atoms: C_12  and  C_15
REMARK    8  A    between atoms: C_20  and  C_24
REMARK                            x       y       z     vdW  Elec       q    Type
REMARK                         _______ _______ _______ _____ _____    ______ ____
ROOT
ATOM      2  O   UNL     1       7.644   9.072   4.504  0.00  0.00    -0.252 OA
ATOM      6  N   UNL     1       9.275   8.574   6.065  0.00  0.00    -0.285 N 
ATOM      9  N   UNL     1       9.871   9.382   3.931  0.00  0.00    -0.269 N 
ATOM     10  C   UNL     1      11.039   7.064   6.935  0.00  0.00    +0.011 C 
ATOM     11  C   UNL     1      10.020   6.532   7.977  0.00  0.00    +0.006 C 
ATOM     13  C   UNL     1      10.666   8.503   6.538  0.00  0.00    +0.113 C 
ATOM     14  C   UNL     1       8.568   6.705   7.497  0.00  0.00    +0.023 C 
ATOM     16  C   UNL     1       8.289   8.142   7.057  0.00  0.00    +0.109 C 
ATOM     23  C   UNL     1       8.841   9.027   4.802  0.00  0.00    +0.306 C 
ATOM     39  H   UNL     1      10.739   9.727   4.323  0.00  0.00    +0.156 HD
ENDROOT
BRANCH   9  31
ATOM     31  C   UNL     1       9.865   9.305   2.516  0.00  0.00    +0.035 A 
ATOM     33  C   UNL     1       9.314   8.193   1.881  0.00  0.00    +0.023 A 
ATOM     34  C   UNL     1      10.412  10.341   1.759  0.00  0.00    +0.023 A 
ATOM     35  C   UNL     1       9.308   8.117   0.488  0.00  0.00    +0.002 A 
ATOM     36  C   UNL     1      10.405  10.266   0.366  0.00  0.00    +0.002 A 
ATOM     37  C   UNL     1       9.854   9.154  -0.269  0.00  0.00    +0.000 A 
ENDBRANCH   9  31
BRANCH  10  12
ATOM     12  C   UNL     1      11.175   6.182   5.688  0.00  0.00    +0.020 C 
BRANCH  12  15
ATOM     15  C   UNL     1      12.152   6.792   4.693  0.00  0.00    +0.085 C 
BRANCH  15   5
ATOM      5  N   UNL     1      12.188   5.985   3.473  0.00  0.00    -0.302 NA
ATOM     17  C   UNL     1      11.365   5.242   0.766  0.00  0.00    +0.095 C 
ATOM     18  C   UNL     1      12.584   6.811   2.324  0.00  0.00    +0.086 C 
ATOM     19  C   UNL     1      10.887   5.343   3.243  0.00  0.00    +0.086 C 
ATOM     21  C   UNL     1      12.679   5.971   1.048  0.00  0.00    +0.040 C 
ATOM     22  C   UNL     1      10.923   4.453   1.999  0.00  0.00    +0.040 C 
BRANCH  17   7
ATOM      4  O   UNL     1      13.343   3.026   0.246  0.00  0.00    -0.247 OA
ATOM      7  N   UNL     1      11.488   4.375  -0.380  0.00  0.00    -0.289 N 
ATOM      8  N   UNL     1      12.199   2.768  -1.808  0.00  0.00    -0.306 N 
ATOM     25  C   UNL     1      10.668   4.411  -1.515  0.00  0.00    +0.070 A 
ATOM     26  C   UNL     1      12.460   3.351  -0.536  0.00  0.00    +0.328 A 
ATOM     27  C   UNL     1      11.112   3.420  -2.388  0.00  0.00    +0.067 A 
ATOM     28  C   UNL     1       9.597   5.221  -1.826  0.00  0.00    +0.028 A 
ATOM     29  C   UNL     1      10.514   3.189  -3.608  0.00  0.00    +0.028 A 
ATOM     30  C   UNL     1       8.974   5.007  -3.061  0.00  0.00    +0.002 A 
ATOM     32  C   UNL     1       9.426   4.002  -3.941  0.00  0.00    +0.002 A 
ATOM     38  H   UNL     1      12.712   2.005  -2.233  0.00  0.00    +0.170 HD
ENDBRANCH  17   7
ENDBRANCH  15   5
ENDBRANCH  12  15
ENDBRANCH  10  12
BRANCH  11  20
ATOM     20  C   UNL     1      10.284   5.085   8.391  0.00  0.00    +0.124 C 
BRANCH  20  24
ATOM      3  O   UNL     1       8.607   4.342   9.996  0.00  0.00    -0.251 OA
ATOM     24  C   UNL     1       9.720   4.785   9.751  0.00  0.00    +0.305 C 
BRANCH  24   1
ATOM      1  O   UNL     1      10.643   5.079  10.704  0.00  0.00    -0.481 OA
ATOM     40  H   UNL     1      10.613   6.026  10.960  0.00  0.00    +0.295 HD
ENDBRANCH  24   1
ENDBRANCH  20  24
ENDBRANCH  11  20
TORSDOF 8
ENDMDL
MODEL 6
REMARK VINA RESULT:      -6.7     28.251     31.706
REMARK  Name = 28960006
REMARK  8 active torsions:
REMARK  status: ('A' for Active; 'I' for Inactive)
REMARK    1  A    between atoms: O_1  and  C_24
REMARK    2  A    between atoms: N_5  and  C_15
REMARK    3  A    between atoms: N_7  and  C_17
REMARK    4  A    between atoms: N_9  and  C_31
REMARK    5  A    between atoms: C_10  and  C_12
REMARK    6  A    between atoms: C_11  and  C_20
REMARK    7  A    between atoms: C_12  and  C_15
REMARK    8  A    between atoms: C_20  and  C_24
REMARK                            x       y       z     vdW  Elec       q    Type
REMARK                         _______ _______ _______ _____ _____    ______ ____
ROOT
ATOM      2  O   UNL     1      12.566   6.948  21.960  0.00  0.00    -0.252 OA
ATOM      6  N   UNL     1      11.795   9.074  21.481  0.00  0.00    -0.285 N 
ATOM      9  N   UNL     1      13.584   8.148  20.255  0.00  0.00    -0.269 N 
ATOM     10  C   UNL     1      12.036  11.538  21.621  0.00  0.00    +0.011 C 
ATOM     11  C   UNL     1      11.008  11.536  22.784  0.00  0.00    +0.006 C 
ATOM     13  C   UNL     1      11.782  10.326  20.708  0.00  0.00    +0.113 C 
ATOM     14  C   UNL     1      10.976  10.182  23.516  0.00  0.00    +0.023 C 
ATOM     16  C   UNL     1      10.788   9.021  22.541  0.00  0.00    +0.109 C 
ATOM     23  C   UNL     1      12.646   7.969  21.271  0.00  0.00    +0.306 C 
ATOM     39  H   UNL     1      13.352   8.763  19.485  0.00  0.00    +0.156 HD
ENDROOT
BRANCH   9  31
ATOM     31  C   UNL     1      14.876   7.571  20.166  0.00  0.00    +0.035 A 
ATOM     33  C   UNL     1      15.208   6.770  19.074  0.00  0.00    +0.023 A 
ATOM     34  C   UNL     1      15.815   7.803  21.172  0.00  0.00    +0.023 A 
ATOM     35  C   UNL     1      16.479   6.202  18.987  0.00  0.00    +0.002 A 
ATOM     36  C   UNL     1      17.085   7.236  21.084  0.00  0.00    +0.002 A 
ATOM     37  C   UNL     1      17.418   6.435  19.992  0.00  0.00    +0.000 A 
ENDBRANCH   9  31
BRANCH  10  12
ATOM     12  C   UNL     1      13.498  11.567  22.080  0.00  0.00    +0.020 C 
BRANCH  12  15
ATOM     15  C   UNL     1      14.187  12.844  21.620  0.00  0.00    +0.085 C 
BRANCH  15   5
ATOM      5  N   UNL     1      14.726  12.660  20.272  0.00  0.00    -0.302 NA
ATOM     17  C   UNL     1      14.793  11.515  17.581  0.00  0.00    +0.095 C 
ATOM     18  C   UNL     1      13.741  13.076  19.264  0.00  0.00    +0.086 C 
ATOM     19  C   UNL     1      15.138  11.264  20.069  0.00  0.00    +0.086 C 
ATOM     21  C   UNL     1      14.309  12.941  17.850  0.00  0.00    +0.040 C 
ATOM     22  C   UNL     1      15.753  11.066  18.683  0.00  0.00    +0.040 C 
BRANCH  17   7
ATOM      4  O   UNL     1      13.993   9.852  15.196  0.00  0.00    -0.247 OA
ATOM      7  N   UNL     1      15.417  11.414  16.284  0.00  0.00    -0.289 N 
ATOM      8  N   UNL     1      15.879  10.819  14.149  0.00  0.00    -0.306 N 
ATOM     25  C   UNL     1      16.565  12.107  15.882  0.00  0.00    +0.070 A 
ATOM     26  C   UNL     1      14.963  10.596  15.215  0.00  0.00    +0.328 A 
ATOM     27  C   UNL     1      16.843  11.736  14.567  0.00  0.00    +0.067 A 
ATOM     28  C   UNL     1      17.357  13.010  16.560  0.00  0.00    +0.028 A 
ATOM     29  C   UNL     1      17.918  12.242  13.869  0.00  0.00    +0.028 A 
ATOM     30  C   UNL     1      18.455  13.537  15.872  0.00  0.00    +0.002 A 
ATOM     32  C   UNL     1      18.732  13.158  14.541  0.00  0.00    +0.002 A 
ATOM     38  H   UNL     1      15.848  10.389  13.233  0.00  0.00    +0.170 HD
ENDBRANCH  17   7
ENDBRANCH  15   5
ENDBRANCH  12  15
ENDBRANCH  10  12
BRANCH  11  20
ATOM     20  C   UNL     1      11.220  12.681  23.775  0.00  0.00    +0.124 C 
BRANCH  20  24
ATOM      3  O   UNL     1      12.706  11.779  25.483  0.00  0.00    -0.251 OA
ATOM     24  C   UNL     1      11.602  12.172  25.137  0.00  0.00    +0.305 C 
BRANCH  24   1
ATOM      1  O   UNL     1      10.522  12.211  25.959  0.00  0.00    -0.481 OA
ATOM     40  H   UNL     1      10.661  12.820  26.716  0.00  0.00    +0.295 HD
ENDBRANCH  24   1
ENDBRANCH  20  24
ENDBRANCH  11  20
TORSDOF 8
ENDMDL
MODEL 7
REMARK VINA RESULT:      -6.6     25.044     29.452
REMARK  Name = 28960006
REMARK  8 active torsions:
REMARK  status: ('A' for Active; 'I' for Inactive)
REMARK    1  A    between atoms: O_1  and  C_24
REMARK    2  A    between atoms: N_5  and  C_15
REMARK    3  A    between atoms: N_7  and  C_17
REMARK    4  A    between atoms: N_9  and  C_31
REMARK    5  A    between atoms: C_10  and  C_12
REMARK    6  A    between atoms: C_11  and  C_20
REMARK    7  A    between atoms: C_12  and  C_15
REMARK    8  A    between atoms: C_20  and  C_24
REMARK                            x       y       z     vdW  Elec       q    Type
REMARK                         _______ _______ _______ _____ _____    ______ ____
ROOT
ATOM      2  O   UNL     1       9.274  10.780   5.134  0.00  0.00    -0.252 OA
ATOM      6  N   UNL     1      10.345   8.990   6.130  0.00  0.00    -0.285 N 
ATOM      9  N   UNL     1      10.556   9.370   3.812  0.00  0.00    -0.269 N 
ATOM     10  C   UNL     1      10.491   6.563   6.619  0.00  0.00    +0.011 C 
ATOM     11  C   UNL     1       9.877   6.845   8.016  0.00  0.00    +0.006 C 
ATOM     13  C   UNL     1      11.232   7.816   6.121  0.00  0.00    +0.113 C 
ATOM     14  C   UNL     1       9.031   8.131   8.021  0.00  0.00    +0.023 C 
ATOM     16  C   UNL     1       9.808   9.317   7.452  0.00  0.00    +0.109 C 
ATOM     23  C   UNL     1      10.011   9.797   5.022  0.00  0.00    +0.306 C 
ATOM     39  H   UNL     1      11.436   8.869   3.828  0.00  0.00    +0.156 HD
ENDROOT
BRANCH   9  31
ATOM     31  C   UNL     1      10.010   9.539   2.516  0.00  0.00    +0.035 A 
ATOM     33  C   UNL     1       8.723   9.081   2.236  0.00  0.00    +0.023 A 
ATOM     34  C   UNL     1      10.759  10.164   1.518  0.00  0.00    +0.023 A 
ATOM     35  C   UNL     1       8.185   9.247   0.960  0.00  0.00    +0.002 A 
ATOM     36  C   UNL     1      10.221  10.332   0.243  0.00  0.00    +0.002 A 
ATOM     37  C   UNL     1       8.934   9.873  -0.036  0.00  0.00    +0.000 A 
ENDBRANCH   9  31
BRANCH  10  12
ATOM     12  C   UNL     1       9.473   6.091   5.574  0.00  0.00    +0.020 C 
BRANCH  12  15
ATOM     15  C   UNL     1       9.840   4.713   5.041  0.00  0.00    +0.085 C 
BRANCH  15   5
ATOM      5  N   UNL     1      10.693   4.848   3.860  0.00  0.00    -0.302 NA
ATOM     17  C   UNL     1      11.292   4.721   0.999  0.00  0.00    +0.095 C 
ATOM     18  C   UNL     1      10.142   5.853   2.941  0.00  0.00    +0.086 C 
ATOM     19  C   UNL     1      10.854   3.549   3.192  0.00  0.00    +0.086 C 
ATOM     21  C   UNL     1      11.051   6.045   1.725  0.00  0.00    +0.040 C 
ATOM     22  C   UNL     1      11.786   3.661   1.985  0.00  0.00    +0.040 C 
BRANCH  17   7
ATOM      4  O   UNL     1      10.826   5.798  -1.778  0.00  0.00    -0.247 OA
ATOM      7  N   UNL     1      12.226   4.886  -0.087  0.00  0.00    -0.289 N 
ATOM      8  N   UNL     1      13.131   5.383  -2.102  0.00  0.00    -0.306 N 
ATOM     25  C   UNL     1      13.587   4.559  -0.042  0.00  0.00    +0.070 A 
ATOM     26  C   UNL     1      11.911   5.407  -1.370  0.00  0.00    +0.328 A 
ATOM     27  C   UNL     1      14.137   4.867  -1.285  0.00  0.00    +0.067 A 
ATOM     28  C   UNL     1      14.353   4.030   0.975  0.00  0.00    +0.028 A 
ATOM     29  C   UNL     1      15.468   4.664  -1.575  0.00  0.00    +0.028 A 
ATOM     30  C   UNL     1      15.709   3.813   0.705  0.00  0.00    +0.002 A 
ATOM     32  C   UNL     1      16.261   4.127  -0.555  0.00  0.00    +0.002 A 
ATOM     38  H   UNL     1      13.261   5.687  -3.059  0.00  0.00    +0.170 HD
ENDBRANCH  17   7
ENDBRANCH  15   5
ENDBRANCH  12  15
ENDBRANCH  10  12
BRANCH  11  20
ATOM     20  C   UNL     1       9.074   5.668   8.568  0.00  0.00    +0.124 C 
BRANCH  20  24
ATOM      3  O   UNL     1      10.156   4.692  10.522  0.00  0.00    -0.251 OA
ATOM     24  C   UNL     1       9.948   4.701   9.317  0.00  0.00    +0.305 C 
BRANCH  24   1
ATOM      1  O   UNL     1      10.493   3.810   8.449  0.00  0.00    -0.481 OA
ATOM     40  H   UNL     1      11.381   3.511   8.742  0.00  0.00    +0.295 HD
ENDBRANCH  24   1
ENDBRANCH  20  24
ENDBRANCH  11  20
TORSDOF 8
ENDMDL
MODEL 8
REMARK VINA RESULT:      -6.6      1.632      2.228
REMARK  Name = 28960006
REMARK  8 active torsions:
REMARK  status: ('A' for Active; 'I' for Inactive)
REMARK    1  A    between atoms: O_1  and  C_24
REMARK    2  A    between atoms: N_5  and  C_15
REMARK    3  A    between atoms: N_7  and  C_17
REMARK    4  A    between atoms: N_9  and  C_31
REMARK    5  A    between atoms: C_10  and  C_12
REMARK    6  A    between atoms: C_11  and  C_20
REMARK    7  A    between atoms: C_12  and  C_15
REMARK    8  A    between atoms: C_20  and  C_24
REMARK                            x       y       z     vdW  Elec       q    Type
REMARK                         _______ _______ _______ _____ _____    ______ ____
ROOT
ATOM      2  O   UNL     1      -2.346 -10.294  14.144  0.00  0.00    -0.252 OA
ATOM      6  N   UNL     1      -4.008 -11.333  15.370  0.00  0.00    -0.285 N 
ATOM      9  N   UNL     1      -4.291 -10.948  13.060  0.00  0.00    -0.269 N 
ATOM     10  C   UNL     1      -6.201 -11.261  16.526  0.00  0.00    +0.011 C 
ATOM     11  C   UNL     1      -5.445 -11.104  17.872  0.00  0.00    +0.006 C 
ATOM     13  C   UNL     1      -5.308 -12.006  15.519  0.00  0.00    +0.113 C 
ATOM     14  C   UNL     1      -4.049 -10.484  17.676  0.00  0.00    +0.023 C 
ATOM     16  C   UNL     1      -3.246 -11.234  16.615  0.00  0.00    +0.109 C 
ATOM     23  C   UNL     1      -3.460 -10.824  14.174  0.00  0.00    +0.306 C 
ATOM     39  H   UNL     1      -4.949 -11.717  13.030  0.00  0.00    +0.156 HD
ENDROOT
BRANCH   9  31
ATOM     31  C   UNL     1      -4.346 -10.094  11.930  0.00  0.00    +0.035 A 
ATOM     33  C   UNL     1      -5.477  -9.310  11.704  0.00  0.00    +0.023 A 
ATOM     34  C   UNL     1      -3.270 -10.038  11.045  0.00  0.00    +0.023 A 
ATOM     35  C   UNL     1      -5.531  -8.469  10.592  0.00  0.00    +0.002 A 
ATOM     36  C   UNL     1      -3.324  -9.198   9.933  0.00  0.00    +0.002 A 
ATOM     37  C   UNL     1      -4.454  -8.413   9.706  0.00  0.00    +0.000 A 
ENDBRANCH   9  31
BRANCH  10  12
ATOM     12  C   UNL     1      -6.694  -9.938  15.930  0.00  0.00    +0.020 C 
BRANCH  12  15
ATOM     15  C   UNL     1      -7.659 -10.186  14.779  0.00  0.00    +0.085 C 
BRANCH  15   5
ATOM      5  N   UNL     1      -9.028  -9.893  15.206  0.00  0.00    -0.302 NA
ATOM     17  C   UNL     1     -11.238  -9.780  17.120  0.00  0.00    +0.095 C 
ATOM     18  C   UNL     1      -9.027  -8.893  16.282  0.00  0.00    +0.086 C 
ATOM     19  C   UNL     1      -9.711 -11.124  15.625  0.00  0.00    +0.086 C 
ATOM     21  C   UNL     1     -10.454  -8.535  16.703  0.00  0.00    +0.040 C 
ATOM     22  C   UNL     1     -11.160 -10.843  16.024  0.00  0.00    +0.040 C 
BRANCH  17   7
ATOM      4  O   UNL     1     -13.388  -8.687  15.309  0.00  0.00    -0.247 OA
ATOM      7  N   UNL     1     -12.609  -9.453  17.421  0.00  0.00    -0.289 N 
ATOM      8  N   UNL     1     -14.761  -8.771  17.233  0.00  0.00    -0.306 N 
ATOM     25  C   UNL     1     -13.219  -9.592  18.675  0.00  0.00    +0.070 A 
ATOM     26  C   UNL     1     -13.555  -8.939  16.495  0.00  0.00    +0.328 A 
ATOM     27  C   UNL     1     -14.541  -9.171  18.551  0.00  0.00    +0.067 A 
ATOM     28  C   UNL     1     -12.715 -10.047  19.875  0.00  0.00    +0.028 A 
ATOM     29  C   UNL     1     -15.422  -9.181  19.610  0.00  0.00    +0.028 A 
ATOM     30  C   UNL     1     -13.590 -10.066  20.967  0.00  0.00    +0.002 A 
ATOM     32  C   UNL     1     -14.928  -9.639  20.836  0.00  0.00    +0.002 A 
ATOM     38  H   UNL     1     -15.639  -8.420  16.872  0.00  0.00    +0.170 HD
ENDBRANCH  17   7
ENDBRANCH  15   5
ENDBRANCH  12  15
ENDBRANCH  10  12
BRANCH  11  20
ATOM     20  C   UNL     1      -6.239 -10.325  18.920  0.00  0.00    +0.124 C 
BRANCH  20  24
ATOM      3  O   UNL     1      -7.409 -12.339  19.639  0.00  0.00    -0.251 OA
ATOM     24  C   UNL     1      -7.389 -11.131  19.456  0.00  0.00    +0.305 C 
BRANCH  24   1
ATOM      1  O   UNL     1      -8.438 -10.309  19.722  0.00  0.00    -0.481 OA
ATOM     40  H   UNL     1      -8.776 -10.433  20.635  0.00  0.00    +0.295 HD
ENDBRANCH  24   1
ENDBRANCH  20  24
ENDBRANCH  11  20
TORSDOF 8
ENDMDL
MODEL 9
REMARK VINA RESULT:      -6.4     19.886     23.418
REMARK  Name = 28960006
REMARK  8 active torsions:
REMARK  status: ('A' for Active; 'I' for Inactive)
REMARK    1  A    between atoms: O_1  and  C_24
REMARK    2  A    between atoms: N_5  and  C_15
REMARK    3  A    between atoms: N_7  and  C_17
REMARK    4  A    between atoms: N_9  and  C_31
REMARK    5  A    between atoms: C_10  and  C_12
REMARK    6  A    between atoms: C_11  and  C_20
REMARK    7  A    between atoms: C_12  and  C_15
REMARK    8  A    between atoms: C_20  and  C_24
REMARK                            x       y       z     vdW  Elec       q    Type
REMARK                         _______ _______ _______ _____ _____    ______ ____
ROOT
ATOM      2  O   UNL     1      10.378  -3.956  32.834  0.00  0.00    -0.252 OA
ATOM      6  N   UNL     1       9.469  -5.736  33.995  0.00  0.00    -0.285 N 
ATOM      9  N   UNL     1      11.701  -5.820  33.237  0.00  0.00    -0.269 N 
ATOM     10  C   UNL     1       8.489  -8.014  34.029  0.00  0.00    +0.011 C 
ATOM     11  C   UNL     1       7.081  -7.368  34.115  0.00  0.00    +0.006 C 
ATOM     13  C   UNL     1       9.531  -7.058  34.636  0.00  0.00    +0.113 C 
ATOM     14  C   UNL     1       7.066  -5.947  33.521  0.00  0.00    +0.023 C 
ATOM     16  C   UNL     1       8.168  -5.076  34.121  0.00  0.00    +0.109 C 
ATOM     23  C   UNL     1      10.521  -5.080  33.322  0.00  0.00    +0.306 C 
ATOM     39  H   UNL     1      11.905  -6.490  33.968  0.00  0.00    +0.156 HD
ENDROOT
BRANCH   9  31
ATOM     31  C   UNL     1      12.679  -5.763  32.213  0.00  0.00    +0.035 A 
ATOM     33  C   UNL     1      12.560  -6.580  31.089  0.00  0.00    +0.023 A 
ATOM     34  C   UNL     1      13.761  -4.890  32.330  0.00  0.00    +0.023 A 
ATOM     35  C   UNL     1      13.523  -6.524  30.082  0.00  0.00    +0.002 A 
ATOM     36  C   UNL     1      14.723  -4.833  31.322  0.00  0.00    +0.002 A 
ATOM     37  C   UNL     1      14.605  -5.650  30.198  0.00  0.00    +0.000 A 
ENDBRANCH   9  31
BRANCH  10  12
ATOM     12  C   UNL     1       8.901  -8.427  32.612  0.00  0.00    +0.020 C 
BRANCH  12  15
ATOM     15  C   UNL     1       9.613  -9.772  32.622  0.00  0.00    +0.085 C 
BRANCH  15   5
ATOM      5  N   UNL     1       8.789 -10.776  31.947  0.00  0.00    -0.302 NA
ATOM     17  C   UNL     1       6.310 -12.225  31.386  0.00  0.00    +0.095 C 
ATOM     18  C   UNL     1       7.707 -10.130  31.193  0.00  0.00    +0.086 C 
ATOM     19  C   UNL     1       8.257 -11.742  32.919  0.00  0.00    +0.086 C 
ATOM     21  C   UNL     1       6.868 -11.163  30.438  0.00  0.00    +0.040 C 
ATOM     22  C   UNL     1       7.438 -12.830  32.223  0.00  0.00    +0.040 C 
BRANCH  17   7
ATOM      4  O   UNL     1       3.694 -13.574  32.039  0.00  0.00    -0.247 OA
ATOM      7  N   UNL     1       5.603 -13.250  30.660  0.00  0.00    -0.289 N 
ATOM      8  N   UNL     1       4.057 -14.784  30.040  0.00  0.00    -0.306 N 
ATOM     25  C   UNL     1       6.029 -13.832  29.459  0.00  0.00    +0.070 A 
ATOM     26  C   UNL     1       4.366 -13.829  31.049  0.00  0.00    +0.328 A 
ATOM     27  C   UNL     1       5.073 -14.775  29.084  0.00  0.00    +0.067 A 
ATOM     28  C   UNL     1       7.154 -13.603  28.696  0.00  0.00    +0.028 A 
ATOM     29  C   UNL     1       5.191 -15.530  27.939  0.00  0.00    +0.028 A 
ATOM     30  C   UNL     1       7.297 -14.359  27.528  0.00  0.00    +0.002 A 
ATOM     32  C   UNL     1       6.327 -15.312  27.153  0.00  0.00    +0.002 A 
ATOM     38  H   UNL     1       3.239 -15.379  30.009  0.00  0.00    +0.170 HD
ENDBRANCH  17   7
ENDBRANCH  15   5
ENDBRANCH  12  15
ENDBRANCH  10  12
BRANCH  11  20
ATOM     20  C   UNL     1       5.985  -8.227  33.485  0.00  0.00    +0.124 C 
BRANCH  20  24
ATOM      3  O   UNL     1       4.965 -10.264  34.351  0.00  0.00    -0.251 OA
ATOM     24  C   UNL     1       5.311  -9.103  34.504  0.00  0.00    +0.305 C 
BRANCH  24   1
ATOM      1  O   UNL     1       5.134  -8.407  35.658  0.00  0.00    -0.481 OA
ATOM     40  H   UNL     1       5.703  -8.750  36.381  0.00  0.00    +0.295 HD
ENDBRANCH  24   1
ENDBRANCH  20  24
ENDBRANCH  11  20
TORSDOF 8
ENDMDL
MODEL 10
REMARK VINA RESULT:      -6.4     25.359     29.559
REMARK  Name = 28960006
REMARK  8 active torsions:
REMARK  status: ('A' for Active; 'I' for Inactive)
REMARK    1  A    between atoms: O_1  and  C_24
REMARK    2  A    between atoms: N_5  and  C_15
REMARK    3  A    between atoms: N_7  and  C_17
REMARK    4  A    between atoms: N_9  and  C_31
REMARK    5  A    between atoms: C_10  and  C_12
REMARK    6  A    between atoms: C_11  and  C_20
REMARK    7  A    between atoms: C_12  and  C_15
REMARK    8  A    between atoms: C_20  and  C_24
REMARK                            x       y       z     vdW  Elec       q    Type
REMARK                         _______ _______ _______ _____ _____    ______ ____
ROOT
ATOM      2  O   UNL     1       8.817  10.665   4.347  0.00  0.00    -0.252 OA
ATOM      6  N   UNL     1      10.048   9.088   5.504  0.00  0.00    -0.285 N 
ATOM      9  N   UNL     1      10.391   9.411   3.193  0.00  0.00    -0.269 N 
ATOM     10  C   UNL     1      10.497   6.727   6.116  0.00  0.00    +0.011 C 
ATOM     11  C   UNL     1       9.738   6.966   7.448  0.00  0.00    +0.006 C 
ATOM     13  C   UNL     1      11.091   8.056   5.616  0.00  0.00    +0.113 C 
ATOM     14  C   UNL     1       8.720   8.114   7.329  0.00  0.00    +0.023 C 
ATOM     16  C   UNL     1       9.364   9.379   6.764  0.00  0.00    +0.109 C 
ATOM     23  C   UNL     1       9.694   9.797   4.337  0.00  0.00    +0.306 C 
ATOM     39  H   UNL     1      11.329   9.044   3.298  0.00  0.00    +0.156 HD
ENDROOT
BRANCH   9  31
ATOM     31  C   UNL     1       9.933   9.452   1.852  0.00  0.00    +0.035 A 
ATOM     33  C   UNL     1       8.708   8.877   1.516  0.00  0.00    +0.023 A 
ATOM     34  C   UNL     1      10.708  10.068   0.869  0.00  0.00    +0.023 A 
ATOM     35  C   UNL     1       8.257   8.918   0.197  0.00  0.00    +0.002 A 
ATOM     36  C   UNL     1      10.257  10.109  -0.450  0.00  0.00    +0.002 A 
ATOM     37  C   UNL     1       9.031   9.534  -0.786  0.00  0.00    +0.000 A 
ENDBRANCH   9  31
BRANCH  10  12
ATOM     12  C   UNL     1       9.645   6.074   5.021  0.00  0.00    +0.020 C 
BRANCH  12  15
ATOM     15  C   UNL     1      10.213   4.718   4.626  0.00  0.00    +0.085 C 
BRANCH  15   5
ATOM      5  N   UNL     1      11.002   4.847   3.400  0.00  0.00    -0.302 NA
ATOM     17  C   UNL     1      11.539   4.489   0.547  0.00  0.00    +0.095 C 
ATOM     18  C   UNL     1      10.276   5.644   2.403  0.00  0.00    +0.086 C 
ATOM     19  C   UNL     1      11.349   3.521   2.871  0.00  0.00    +0.086 C 
ATOM     21  C   UNL     1      11.110   5.834   1.135  0.00  0.00    +0.040 C 
ATOM     22  C   UNL     1      12.219   3.637   1.619  0.00  0.00    +0.040 C 
BRANCH  17   7
ATOM      4  O   UNL     1      14.050   6.139   0.301  0.00  0.00    -0.247 OA
ATOM      7  N   UNL     1      12.406   4.672  -0.591  0.00  0.00    -0.289 N 
ATOM      8  N   UNL     1      14.100   5.354  -1.929  0.00  0.00    -0.306 N 
ATOM     25  C   UNL     1      12.226   4.085  -1.849  0.00  0.00    +0.070 A 
ATOM     26  C   UNL     1      13.576   5.476  -0.611  0.00  0.00    +0.328 A 
ATOM     27  C   UNL     1      13.271   4.509  -2.667  0.00  0.00    +0.067 A 
ATOM     28  C   UNL     1      11.246   3.233  -2.314  0.00  0.00    +0.028 A 
ATOM     29  C   UNL     1      13.391   4.109  -3.980  0.00  0.00    +0.028 A 
ATOM     30  C   UNL     1      11.345   2.813  -3.645  0.00  0.00    +0.002 A 
ATOM     32  C   UNL     1      12.406   3.246  -4.469  0.00  0.00    +0.002 A 
ATOM     38  H   UNL     1      14.935   5.803  -2.285  0.00  0.00    +0.170 HD
ENDBRANCH  17   7
ENDBRANCH  15   5
ENDBRANCH  12  15
ENDBRANCH  10  12
BRANCH  11  20
ATOM     20  C   UNL     1       9.069   5.704   7.992  0.00  0.00    +0.124 C 
BRANCH  20  24
ATOM      3  O   UNL     1      10.498   5.121   9.879  0.00  0.00    -0.251 OA
ATOM     24  C   UNL     1      10.031   4.860   8.779  0.00  0.00    +0.305 C 
BRANCH  24   1
ATOM      1  O   UNL     1      10.323   3.730   8.084  0.00  0.00    -0.481 OA
ATOM     40  H   UNL     1       9.855   3.702   7.222  0.00  0.00    +0.295 HD
ENDBRANCH  24   1
ENDBRANCH  20  24
ENDBRANCH  11  20
TORSDOF 8
ENDMDL
