MODEL 1
REMARK VINA RESULT:      -6.5      0.000      0.000
REMARK  Name = 38027996
REMARK  10 active torsions:
REMARK  status: ('A' for Active; 'I' for Inactive)
REMARK    1  A    between atoms: N_4  and  C_14
REMARK    2  A    between atoms: N_5  and  C_24
REMARK    3  A    between atoms: C_6  and  C_10
REMARK    4  A    between atoms: C_7  and  C_14
REMARK    5  A    between atoms: C_9  and  C_13
REMARK    6  A    between atoms: C_10  and  C_15
REMARK    7  A    between atoms: C_10  and  C_16
REMARK    8  A    between atoms: C_11  and  C_17
REMARK    9  A    between atoms: C_13  and  C_18
REMARK   10  A    between atoms: C_23  and  C_25
REMARK                            x       y       z     vdW  Elec       q    Type
REMARK                         _______ _______ _______ _____ _____    ______ ____
ROOT
ATOM      6  C   UNL     1      12.958   9.106  20.503  0.00  0.00    +0.000 C 
ATOM      7  C   UNL     1      12.912   8.022  19.397  0.00  0.00    +0.032 C 
ATOM      8  C   UNL     1      12.649  10.489  19.910  0.00  0.00    +0.012 C 
ATOM      9  C   UNL     1      13.642  10.883  18.800  0.00  0.00    +0.023 C 
ATOM     11  C   UNL     1      13.856   9.755  17.811  0.00  0.00    -0.073 C 
ATOM     12  C   UNL     1      13.511   8.485  18.090  0.00  0.00    -0.022 C 
ATOM     17  C   UNL     1      14.433  10.127  16.474  0.00  0.00    +0.039 C 
ENDROOT
BRANCH   6  10
ATOM     10  C   UNL     1      11.978   8.800  21.641  0.00  0.00    -0.013 C 
ATOM     15  C   UNL     1      11.663  10.069  22.427  0.00  0.00    +0.007 C 
ATOM     16  C   UNL     1      10.702   8.173  21.091  0.00  0.00    +0.007 C 
ENDBRANCH   6  10
BRANCH   9  13
ATOM     13  C   UNL     1      14.975  11.352  19.393  0.00  0.00    +0.103 C 
BRANCH  13  18
ATOM      1  O   UNL     1      14.342  13.618  19.678  0.00  0.00    -0.276 OA
ATOM      3  N   UNL     1      15.049  12.492  21.581  0.00  0.00    -0.299 N 
ATOM      5  N   UNL     1      14.869  12.161  24.422  0.00  0.00    -0.302 NA
ATOM     18  C   UNL     1      14.759  12.593  20.222  0.00  0.00    +0.216 C 
ATOM     19  C   UNL     1      14.861  13.650  22.455  0.00  0.00    +0.123 C 
ATOM     20  C   UNL     1      15.670  11.335  22.233  0.00  0.00    +0.123 C 
ATOM     21  C   UNL     1      14.156  13.258  23.752  0.00  0.00    +0.103 C 
ATOM     22  C   UNL     1      14.953  10.988  23.539  0.00  0.00    +0.103 C 
ATOM     24  C   UNL     1      14.210  11.811  25.679  0.00  0.00    +0.105 C 
ENDBRANCH  13  18
ENDBRANCH   9  13
BRANCH   7  14
ATOM     14  C   UNL     1      13.612   6.737  19.854  0.00  0.00    +0.112 C 
BRANCH  14   4
ATOM      2  O   UNL     1      16.106   5.976  18.651  0.00  0.00    -0.270 OA
ATOM      4  N   UNL     1      14.922   7.022  20.350  0.00  0.00    -0.311 N 
ATOM     23  C   UNL     1      16.086   6.614  19.701  0.00  0.00    +0.244 C 
ATOM     31  H   UNL     1      14.988   7.625  21.165  0.00  0.00    +0.149 HD
BRANCH  23  25
ATOM     25  C   UNL     1      17.369   6.966  20.360  0.00  0.00    +0.037 A 
ATOM     26  C   UNL     1      17.463   8.126  21.130  0.00  0.00    +0.013 A 
ATOM     27  C   UNL     1      18.481   6.136  20.211  0.00  0.00    +0.013 A 
ATOM     28  C   UNL     1      18.667   8.455  21.751  0.00  0.00    +0.001 A 
ATOM     29  C   UNL     1      19.685   6.466  20.832  0.00  0.00    +0.001 A 
ATOM     30  C   UNL     1      19.779   7.625  21.601  0.00  0.00    +0.000 A 
ENDBRANCH  23  25
ENDBRANCH  14   4
ENDBRANCH   7  14
TORSDOF 6
ENDMDL
MODEL 2
REMARK VINA RESULT:      -6.3     27.278     30.449
REMARK  Name = 38027996
REMARK  10 active torsions:
REMARK  status: ('A' for Active; 'I' for Inactive)
REMARK    1  A    between atoms: N_4  and  C_14
REMARK    2  A    between atoms: N_5  and  C_24
REMARK    3  A    between atoms: C_6  and  C_10
REMARK    4  A    between atoms: C_7  and  C_14
REMARK    5  A    between atoms: C_9  and  C_13
REMARK    6  A    between atoms: C_10  and  C_15
REMARK    7  A    between atoms: C_10  and  C_16
REMARK    8  A    between atoms: C_11  and  C_17
REMARK    9  A    between atoms: C_13  and  C_18
REMARK   10  A    between atoms: C_23  and  C_25
REMARK                            x       y       z     vdW  Elec       q    Type
REMARK                         _______ _______ _______ _____ _____    ______ ____
ROOT
ATOM      6  C   UNL     1      -3.152 -12.147  12.564  0.00  0.00    +0.000 C 
ATOM      7  C   UNL     1      -2.062 -11.057  12.410  0.00  0.00    +0.032 C 
ATOM      8  C   UNL     1      -3.744 -12.511  11.194  0.00  0.00    +0.012 C 
ATOM      9  C   UNL     1      -4.369 -11.293  10.487  0.00  0.00    +0.023 C 
ATOM     11  C   UNL     1      -3.453 -10.087  10.530  0.00  0.00    -0.073 C 
ATOM     12  C   UNL     1      -2.420 -10.005  11.387  0.00  0.00    -0.022 C 
ATOM     17  C   UNL     1      -3.725  -8.995   9.534  0.00  0.00    +0.039 C 
ENDROOT
BRANCH   6  10
ATOM     10  C   UNL     1      -2.604 -13.407  13.243  0.00  0.00    -0.013 C 
ATOM     15  C   UNL     1      -3.538 -13.858  14.362  0.00  0.00    +0.007 C 
ATOM     16  C   UNL     1      -2.408 -14.520  12.220  0.00  0.00    +0.007 C 
ENDBRANCH   6  10
BRANCH   9  13
ATOM     13  C   UNL     1      -5.744 -10.959  11.076  0.00  0.00    +0.103 C 
BRANCH  13  18
ATOM      1  O   UNL     1      -7.010 -12.750  10.177  0.00  0.00    -0.276 OA
ATOM      3  N   UNL     1      -7.575 -10.616   9.456  0.00  0.00    -0.299 N 
ATOM      5  N   UNL     1      -9.605  -8.816   8.534  0.00  0.00    -0.302 NA
ATOM     18  C   UNL     1      -6.830 -11.530  10.199  0.00  0.00    +0.216 C 
ATOM     19  C   UNL     1      -8.650 -11.090   8.584  0.00  0.00    +0.123 C 
ATOM     20  C   UNL     1      -7.301  -9.180   9.356  0.00  0.00    +0.123 C 
ATOM     21  C   UNL     1      -9.909 -10.239   8.742  0.00  0.00    +0.103 C 
ATOM     22  C   UNL     1      -8.587  -8.363   9.494  0.00  0.00    +0.103 C 
ATOM     24  C   UNL     1     -10.819  -8.009   8.654  0.00  0.00    +0.105 C 
ENDBRANCH  13  18
ENDBRANCH   9  13
BRANCH   7  14
ATOM     14  C   UNL     1      -1.760 -10.383  13.753  0.00  0.00    +0.112 C 
BRANCH  14   4
ATOM      2  O   UNL     1      -1.983 -10.937  16.561  0.00  0.00    -0.270 OA
ATOM      4  N   UNL     1      -2.943 -10.290  14.550  0.00  0.00    -0.311 N 
ATOM     23  C   UNL     1      -2.964 -10.578  15.914  0.00  0.00    +0.244 C 
ATOM     31  H   UNL     1      -3.773  -9.910  14.106  0.00  0.00    +0.149 HD
BRANCH  23  25
ATOM     25  C   UNL     1      -4.278 -10.459  16.595  0.00  0.00    +0.037 A 
ATOM     26  C   UNL     1      -5.350  -9.851  15.941  0.00  0.00    +0.013 A 
ATOM     27  C   UNL     1      -4.442 -10.957  17.888  0.00  0.00    +0.013 A 
ATOM     28  C   UNL     1      -6.585  -9.741  16.580  0.00  0.00    +0.001 A 
ATOM     29  C   UNL     1      -5.677 -10.847  18.527  0.00  0.00    +0.001 A 
ATOM     30  C   UNL     1      -6.748 -10.238  17.873  0.00  0.00    +0.000 A 
ENDBRANCH  23  25
ENDBRANCH  14   4
ENDBRANCH   7  14
TORSDOF 6
ENDMDL
MODEL 3
REMARK VINA RESULT:      -6.3     25.872     28.617
REMARK  Name = 38027996
REMARK  10 active torsions:
REMARK  status: ('A' for Active; 'I' for Inactive)
REMARK    1  A    between atoms: N_4  and  C_14
REMARK    2  A    between atoms: N_5  and  C_24
REMARK    3  A    between atoms: C_6  and  C_10
REMARK    4  A    between atoms: C_7  and  C_14
REMARK    5  A    between atoms: C_9  and  C_13
REMARK    6  A    between atoms: C_10  and  C_15
REMARK    7  A    between atoms: C_10  and  C_16
REMARK    8  A    between atoms: C_11  and  C_17
REMARK    9  A    between atoms: C_13  and  C_18
REMARK   10  A    between atoms: C_23  and  C_25
REMARK                            x       y       z     vdW  Elec       q    Type
REMARK                         _______ _______ _______ _____ _____    ______ ____
ROOT
ATOM      6  C   UNL     1     -12.830   8.229  20.290  0.00  0.00    +0.000 C 
ATOM      7  C   UNL     1     -12.043   9.355  21.006  0.00  0.00    +0.032 C 
ATOM      8  C   UNL     1     -11.976   7.602  19.177  0.00  0.00    +0.012 C 
ATOM      9  C   UNL     1     -11.541   8.639  18.123  0.00  0.00    +0.023 C 
ATOM     11  C   UNL     1     -10.998   9.899  18.765  0.00  0.00    -0.073 C 
ATOM     12  C   UNL     1     -11.221  10.196  20.057  0.00  0.00    -0.022 C 
ATOM     17  C   UNL     1     -10.153  10.790  17.898  0.00  0.00    +0.039 C 
ENDROOT
BRANCH   6  10
ATOM     10  C   UNL     1     -13.283   7.141  21.269  0.00  0.00    -0.013 C 
ATOM     15  C   UNL     1     -14.644   6.588  20.858  0.00  0.00    +0.007 C 
ATOM     16  C   UNL     1     -12.246   6.026  21.344  0.00  0.00    +0.007 C 
ENDBRANCH   6  10
BRANCH   9  13
ATOM     13  C   UNL     1     -12.690   8.964  17.162  0.00  0.00    +0.103 C 
BRANCH  13  18
ATOM      1  O   UNL     1     -11.110   8.603  15.432  0.00  0.00    -0.276 OA
ATOM      3  N   UNL     1     -13.339   8.245  14.891  0.00  0.00    -0.299 N 
ATOM      5  N   UNL     1     -15.266   6.806  13.332  0.00  0.00    -0.302 NA
ATOM     18  C   UNL     1     -12.300   8.590  15.753  0.00  0.00    +0.216 C 
ATOM     19  C   UNL     1     -13.045   7.865  13.510  0.00  0.00    +0.123 C 
ATOM     20  C   UNL     1     -14.768   8.348  15.200  0.00  0.00    +0.123 C 
ATOM     21  C   UNL     1     -13.827   6.619  13.097  0.00  0.00    +0.103 C 
ATOM     22  C   UNL     1     -15.521   7.094  14.751  0.00  0.00    +0.103 C 
ATOM     24  C   UNL     1     -16.013   5.623  12.906  0.00  0.00    +0.105 C 
ENDBRANCH  13  18
ENDBRANCH   9  13
BRANCH   7  14
ATOM     14  C   UNL     1     -12.983  10.261  21.809  0.00  0.00    +0.112 C 
BRANCH  14   4
ATOM      2  O   UNL     1     -12.577  12.362  23.724  0.00  0.00    -0.270 OA
ATOM      4  N   UNL     1     -12.759  10.106  23.213  0.00  0.00    -0.311 N 
ATOM     23  C   UNL     1     -12.570  11.185  24.076  0.00  0.00    +0.244 C 
ATOM     31  H   UNL     1     -12.831   9.167  23.593  0.00  0.00    +0.149 HD
BRANCH  23  25
ATOM     25  C   UNL     1     -12.322  10.856  25.502  0.00  0.00    +0.037 A 
ATOM     26  C   UNL     1     -13.389  10.790  26.399  0.00  0.00    +0.013 A 
ATOM     27  C   UNL     1     -11.022  10.608  25.945  0.00  0.00    +0.013 A 
ATOM     28  C   UNL     1     -13.156  10.478  27.738  0.00  0.00    +0.001 A 
ATOM     29  C   UNL     1     -10.790  10.296  27.284  0.00  0.00    +0.001 A 
ATOM     30  C   UNL     1     -11.856  10.232  28.180  0.00  0.00    +0.000 A 
ENDBRANCH  23  25
ENDBRANCH  14   4
ENDBRANCH   7  14
TORSDOF 6
ENDMDL
MODEL 4
REMARK VINA RESULT:      -6.3     26.806     30.238
REMARK  Name = 38027996
REMARK  10 active torsions:
REMARK  status: ('A' for Active; 'I' for Inactive)
REMARK    1  A    between atoms: N_4  and  C_14
REMARK    2  A    between atoms: N_5  and  C_24
REMARK    3  A    between atoms: C_6  and  C_10
REMARK    4  A    between atoms: C_7  and  C_14
REMARK    5  A    between atoms: C_9  and  C_13
REMARK    6  A    between atoms: C_10  and  C_15
REMARK    7  A    between atoms: C_10  and  C_16
REMARK    8  A    between atoms: C_11  and  C_17
REMARK    9  A    between atoms: C_13  and  C_18
REMARK   10  A    between atoms: C_23  and  C_25
REMARK                            x       y       z     vdW  Elec       q    Type
REMARK                         _______ _______ _______ _____ _____    ______ ____
ROOT
ATOM      6  C   UNL     1      -5.115 -12.268  16.189  0.00  0.00    +0.000 C 
ATOM      7  C   UNL     1      -4.286 -11.693  17.364  0.00  0.00    +0.032 C 
ATOM      8  C   UNL     1      -4.188 -12.739  15.058  0.00  0.00    +0.012 C 
ATOM      9  C   UNL     1      -3.301 -11.601  14.518  0.00  0.00    +0.023 C 
ATOM     11  C   UNL     1      -2.656 -10.811  15.639  0.00  0.00    -0.073 C 
ATOM     12  C   UNL     1      -3.101 -10.875  16.906  0.00  0.00    -0.022 C 
ATOM     17  C   UNL     1      -1.456  -9.981  15.277  0.00  0.00    +0.039 C 
ENDROOT
BRANCH   6  10
ATOM     10  C   UNL     1      -6.013 -13.425  16.639  0.00  0.00    -0.013 C 
ATOM     15  C   UNL     1      -7.382 -13.327  15.971  0.00  0.00    +0.007 C 
ATOM     16  C   UNL     1      -5.353 -14.763  16.327  0.00  0.00    +0.007 C 
ENDBRANCH   6  10
BRANCH   9  13
ATOM     13  C   UNL     1      -4.094 -10.679  13.584  0.00  0.00    +0.103 C 
BRANCH  13  18
ATOM      1  O   UNL     1      -2.331 -11.172  12.079  0.00  0.00    -0.276 OA
ATOM      3  N   UNL     1      -4.060  -9.860  11.255  0.00  0.00    -0.299 N 
ATOM      5  N   UNL     1      -5.653  -9.060   9.012  0.00  0.00    -0.302 NA
ATOM     18  C   UNL     1      -3.409 -10.597  12.243  0.00  0.00    +0.216 C 
ATOM     19  C   UNL     1      -3.464  -9.736   9.926  0.00  0.00    +0.123 C 
ATOM     20  C   UNL     1      -5.270  -9.057  11.455  0.00  0.00    +0.123 C 
ATOM     21  C   UNL     1      -4.503  -9.957   8.828  0.00  0.00    +0.103 C 
ATOM     22  C   UNL     1      -6.276  -9.286  10.325  0.00  0.00    +0.103 C 
ATOM     24  C   UNL     1      -6.630  -9.252   7.941  0.00  0.00    +0.105 C 
ENDBRANCH  13  18
ENDBRANCH   9  13
BRANCH   7  14
ATOM     14  C   UNL     1      -5.161 -10.848  18.296  0.00  0.00    +0.112 C 
BRANCH  14   4
ATOM      2  O   UNL     1      -7.955 -10.707  18.941  0.00  0.00    -0.270 OA
ATOM      4  N   UNL     1      -6.174 -10.162  17.557  0.00  0.00    -0.311 N 
ATOM     23  C   UNL     1      -7.514 -10.144  17.943  0.00  0.00    +0.244 C 
ATOM     31  H   UNL     1      -5.872  -9.596  16.771  0.00  0.00    +0.149 HD
BRANCH  23  25
ATOM     25  C   UNL     1      -8.448  -9.409  17.053  0.00  0.00    +0.037 A 
ATOM     26  C   UNL     1      -9.276  -8.416  17.577  0.00  0.00    +0.013 A 
ATOM     27  C   UNL     1      -8.496  -9.709  15.691  0.00  0.00    +0.013 A 
ATOM     28  C   UNL     1     -10.151  -7.723  16.741  0.00  0.00    +0.001 A 
ATOM     29  C   UNL     1      -9.371  -9.017  14.855  0.00  0.00    +0.001 A 
ATOM     30  C   UNL     1     -10.199  -8.025  15.380  0.00  0.00    +0.000 A 
ENDBRANCH  23  25
ENDBRANCH  14   4
ENDBRANCH   7  14
TORSDOF 6
ENDMDL
MODEL 5
REMARK VINA RESULT:      -6.3     28.512     32.308
REMARK  Name = 38027996
REMARK  10 active torsions:
REMARK  status: ('A' for Active; 'I' for Inactive)
REMARK    1  A    between atoms: N_4  and  C_14
REMARK    2  A    between atoms: N_5  and  C_24
REMARK    3  A    between atoms: C_6  and  C_10
REMARK    4  A    between atoms: C_7  and  C_14
REMARK    5  A    between atoms: C_9  and  C_13
REMARK    6  A    between atoms: C_10  and  C_15
REMARK    7  A    between atoms: C_10  and  C_16
REMARK    8  A    between atoms: C_11  and  C_17
REMARK    9  A    between atoms: C_13  and  C_18
REMARK   10  A    between atoms: C_23  and  C_25
REMARK                            x       y       z     vdW  Elec       q    Type
REMARK                         _______ _______ _______ _____ _____    ______ ____
ROOT
ATOM      6  C   UNL     1     -15.993   5.750  31.871  0.00  0.00    +0.000 C 
ATOM      7  C   UNL     1     -15.730   6.935  32.832  0.00  0.00    +0.032 C 
ATOM      8  C   UNL     1     -16.365   4.488  32.665  0.00  0.00    +0.012 C 
ATOM      9  C   UNL     1     -15.259   4.077  33.656  0.00  0.00    +0.023 C 
ATOM     11  C   UNL     1     -14.756   5.258  34.460  0.00  0.00    -0.073 C 
ATOM     12  C   UNL     1     -14.987   6.528  34.083  0.00  0.00    -0.022 C 
ATOM     17  C   UNL     1     -14.019   4.946  35.732  0.00  0.00    +0.039 C 
ENDROOT
BRANCH   6  10
ATOM     10  C   UNL     1     -17.100   6.071  30.861  0.00  0.00    -0.013 C 
ATOM     15  C   UNL     1     -16.588   5.888  29.435  0.00  0.00    +0.007 C 
ATOM     16  C   UNL     1     -18.321   5.195  31.114  0.00  0.00    +0.007 C 
ENDBRANCH   6  10
BRANCH   9  13
ATOM     13  C   UNL     1     -14.105   3.372  32.935  0.00  0.00    +0.103 C 
BRANCH  13  18
ATOM      1  O   UNL     1     -14.666   1.153  33.552  0.00  0.00    -0.276 OA
ATOM      3  N   UNL     1     -14.620   1.617  31.277  0.00  0.00    -0.299 N 
ATOM      5  N   UNL     1     -15.654   1.072  28.661  0.00  0.00    -0.302 NA
ATOM     18  C   UNL     1     -14.488   1.947  32.625  0.00  0.00    +0.216 C 
ATOM     19  C   UNL     1     -14.994   0.256  30.893  0.00  0.00    +0.123 C 
ATOM     20  C   UNL     1     -14.288   2.495  30.152  0.00  0.00    +0.123 C 
ATOM     21  C   UNL     1     -16.074   0.260  29.812  0.00  0.00    +0.103 C 
ATOM     22  C   UNL     1     -15.379   2.455  29.080  0.00  0.00    +0.103 C 
ATOM     24  C   UNL     1     -16.676   1.047  27.615  0.00  0.00    +0.105 C 
ENDBRANCH  13  18
ENDBRANCH   9  13
BRANCH   7  14
ATOM     14  C   UNL     1     -14.964   8.060  32.126  0.00  0.00    +0.112 C 
BRANCH  14   4
ATOM      2  O   UNL     1     -12.513   9.148  31.102  0.00  0.00    -0.270 OA
ATOM      4  N   UNL     1     -13.819   8.449  32.888  0.00  0.00    -0.311 N 
ATOM     23  C   UNL     1     -12.663   8.972  32.308  0.00  0.00    +0.244 C 
ATOM     31  H   UNL     1     -13.902   8.419  33.899  0.00  0.00    +0.149 HD
BRANCH  23  25
ATOM     25  C   UNL     1     -11.551   9.302  33.234  0.00  0.00    +0.037 A 
ATOM     26  C   UNL     1     -11.734   9.195  34.613  0.00  0.00    +0.013 A 
ATOM     27  C   UNL     1     -10.320   9.718  32.725  0.00  0.00    +0.013 A 
ATOM     28  C   UNL     1     -10.688   9.503  35.482  0.00  0.00    +0.001 A 
ATOM     29  C   UNL     1      -9.274  10.026  33.594  0.00  0.00    +0.001 A 
ATOM     30  C   UNL     1      -9.459   9.919  34.973  0.00  0.00    +0.000 A 
ENDBRANCH  23  25
ENDBRANCH  14   4
ENDBRANCH   7  14
TORSDOF 6
ENDMDL
MODEL 6
REMARK VINA RESULT:      -6.2     27.721     30.945
REMARK  Name = 38027996
REMARK  10 active torsions:
REMARK  status: ('A' for Active; 'I' for Inactive)
REMARK    1  A    between atoms: N_4  and  C_14
REMARK    2  A    between atoms: N_5  and  C_24
REMARK    3  A    between atoms: C_6  and  C_10
REMARK    4  A    between atoms: C_7  and  C_14
REMARK    5  A    between atoms: C_9  and  C_13
REMARK    6  A    between atoms: C_10  and  C_15
REMARK    7  A    between atoms: C_10  and  C_16
REMARK    8  A    between atoms: C_11  and  C_17
REMARK    9  A    between atoms: C_13  and  C_18
REMARK   10  A    between atoms: C_23  and  C_25
REMARK                            x       y       z     vdW  Elec       q    Type
REMARK                         _______ _______ _______ _____ _____    ______ ____
ROOT
ATOM      6  C   UNL     1      -7.428 -11.696  17.171  0.00  0.00    +0.000 C 
ATOM      7  C   UNL     1      -7.496 -12.047  18.678  0.00  0.00    +0.032 C 
ATOM      8  C   UNL     1      -6.220 -12.381  16.515  0.00  0.00    +0.012 C 
ATOM      9  C   UNL     1      -4.888 -11.969  17.173  0.00  0.00    +0.023 C 
ATOM     11  C   UNL     1      -4.965 -12.033  18.685  0.00  0.00    -0.073 C 
ATOM     12  C   UNL     1      -6.138 -12.081  19.339  0.00  0.00    -0.022 C 
ATOM     17  C   UNL     1      -3.658 -12.087  19.426  0.00  0.00    +0.039 C 
ENDROOT
BRANCH   6  10
ATOM     10  C   UNL     1      -8.712 -12.094  16.435  0.00  0.00    -0.013 C 
ATOM     15  C   UNL     1      -8.871 -11.272  15.160  0.00  0.00    +0.007 C 
ATOM     16  C   UNL     1      -8.703 -13.586  16.119  0.00  0.00    +0.007 C 
ENDBRANCH   6  10
BRANCH   9  13
ATOM     13  C   UNL     1      -4.448 -10.577  16.704  0.00  0.00    +0.103 C 
BRANCH  13  18
ATOM      1  O   UNL     1      -2.091 -10.753  16.532  0.00  0.00    -0.276 OA
ATOM      3  N   UNL     1      -3.274 -10.695  14.535  0.00  0.00    -0.299 N 
ATOM      5  N   UNL     1      -3.461 -11.501  11.792  0.00  0.00    -0.302 NA
ATOM     18  C   UNL     1      -3.162 -10.682  15.925  0.00  0.00    +0.216 C 
ATOM     19  C   UNL     1      -2.074 -10.800  13.707  0.00  0.00    +0.123 C 
ATOM     20  C   UNL     1      -4.514 -10.479  13.783  0.00  0.00    +0.123 C 
ATOM     21  C   UNL     1      -2.262 -11.815  12.582  0.00  0.00    +0.103 C 
ATOM     22  C   UNL     1      -4.655 -11.498  12.651  0.00  0.00    +0.103 C 
ATOM     24  C   UNL     1      -3.619 -12.456  10.696  0.00  0.00    +0.105 C 
ENDBRANCH  13  18
ENDBRANCH   9  13
BRANCH   7  14
ATOM     14  C   UNL     1      -8.408 -11.073  19.432  0.00  0.00    +0.112 C 
BRANCH  14   4
ATOM      2  O   UNL     1     -11.161 -10.283  19.234  0.00  0.00    -0.270 OA
ATOM      4  N   UNL     1      -8.954 -10.098  18.542  0.00  0.00    -0.311 N 
ATOM     23  C   UNL     1     -10.310  -9.772  18.510  0.00  0.00    +0.244 C 
ATOM     31  H   UNL     1      -8.299  -9.566  17.978  0.00  0.00    +0.149 HD
BRANCH  23  25
ATOM     25  C   UNL     1     -10.723  -8.757  17.509  0.00  0.00    +0.037 A 
ATOM     26  C   UNL     1      -9.765  -7.945  16.902  0.00  0.00    +0.013 A 
ATOM     27  C   UNL     1     -12.070  -8.617  17.173  0.00  0.00    +0.013 A 
ATOM     28  C   UNL     1     -10.153  -6.993  15.960  0.00  0.00    +0.001 A 
ATOM     29  C   UNL     1     -12.458  -7.665  16.230  0.00  0.00    +0.001 A 
ATOM     30  C   UNL     1     -11.499  -6.852  15.624  0.00  0.00    +0.000 A 
ENDBRANCH  23  25
ENDBRANCH  14   4
ENDBRANCH   7  14
TORSDOF 6
ENDMDL
MODEL 7
REMARK VINA RESULT:      -6.1     12.849     17.123
REMARK  Name = 38027996
REMARK  10 active torsions:
REMARK  status: ('A' for Active; 'I' for Inactive)
REMARK    1  A    between atoms: N_4  and  C_14
REMARK    2  A    between atoms: N_5  and  C_24
REMARK    3  A    between atoms: C_6  and  C_10
REMARK    4  A    between atoms: C_7  and  C_14
REMARK    5  A    between atoms: C_9  and  C_13
REMARK    6  A    between atoms: C_10  and  C_15
REMARK    7  A    between atoms: C_10  and  C_16
REMARK    8  A    between atoms: C_11  and  C_17
REMARK    9  A    between atoms: C_13  and  C_18
REMARK   10  A    between atoms: C_23  and  C_25
REMARK                            x       y       z     vdW  Elec       q    Type
REMARK                         _______ _______ _______ _____ _____    ______ ____
ROOT
ATOM      6  C   UNL     1       8.992   8.500   5.189  0.00  0.00    +0.000 C 
ATOM      7  C   UNL     1       8.734   9.107   6.590  0.00  0.00    +0.032 C 
ATOM      8  C   UNL     1       8.468   7.057   5.126  0.00  0.00    +0.012 C 
ATOM      9  C   UNL     1       9.130   6.149   6.180  0.00  0.00    +0.023 C 
ATOM     11  C   UNL     1       9.155   6.801   7.548  0.00  0.00    -0.073 C 
ATOM     12  C   UNL     1       8.963   8.122   7.712  0.00  0.00    -0.022 C 
ATOM     17  C   UNL     1       9.361   5.892   8.727  0.00  0.00    +0.039 C 
ENDROOT
BRANCH   6  10
ATOM     10  C   UNL     1       8.344   9.334   4.079  0.00  0.00    -0.013 C 
ATOM     15  C   UNL     1       8.284   8.537   2.780  0.00  0.00    +0.007 C 
ATOM     16  C   UNL     1       6.952   9.791   4.499  0.00  0.00    +0.007 C 
ENDBRANCH   6  10
BRANCH   9  13
ATOM     13  C   UNL     1      10.541   5.735   5.744  0.00  0.00    +0.103 C 
BRANCH  13  18
ATOM      1  O   UNL     1       9.928   3.551   5.056  0.00  0.00    -0.276 OA
ATOM      3  N   UNL     1      10.997   4.874   3.476  0.00  0.00    -0.299 N 
ATOM      5  N   UNL     1      11.353   5.564   0.717  0.00  0.00    -0.302 NA
ATOM     18  C   UNL     1      10.458   4.618   4.735  0.00  0.00    +0.216 C 
ATOM     19  C   UNL     1      10.952   3.844   2.439  0.00  0.00    +0.123 C 
ATOM     20  C   UNL     1      11.749   6.076   3.104  0.00  0.00    +0.123 C 
ATOM     21  C   UNL     1      10.507   4.424   1.098  0.00  0.00    +0.103 C 
ATOM     22  C   UNL     1      11.293   6.614   1.746  0.00  0.00    +0.103 C 
ATOM     24  C   UNL     1      10.944   6.096  -0.582  0.00  0.00    +0.105 C 
ENDBRANCH  13  18
ENDBRANCH   9  13
BRANCH   7  14
ATOM     14  C   UNL     1       9.597  10.353   6.820  0.00  0.00    +0.112 C 
BRANCH  14   4
ATOM      2  O   UNL     1      11.631  10.884   8.775  0.00  0.00    -0.270 OA
ATOM      4  N   UNL     1       9.400  10.870   8.138  0.00  0.00    -0.311 N 
ATOM     23  C   UNL     1      10.449  11.100   9.028  0.00  0.00    +0.244 C 
ATOM     31  H   UNL     1       8.460  11.160   8.386  0.00  0.00    +0.149 HD
BRANCH  23  25
ATOM     25  C   UNL     1      10.076  11.615  10.370  0.00  0.00    +0.037 A 
ATOM     26  C   UNL     1       8.733  11.809  10.695  0.00  0.00    +0.013 A 
ATOM     27  C   UNL     1      11.068  11.903  11.307  0.00  0.00    +0.013 A 
ATOM     28  C   UNL     1       8.382  12.290  11.956  0.00  0.00    +0.001 A 
ATOM     29  C   UNL     1      10.718  12.384  12.568  0.00  0.00    +0.001 A 
ATOM     30  C   UNL     1       9.375  12.578  12.892  0.00  0.00    +0.000 A 
ENDBRANCH  23  25
ENDBRANCH  14   4
ENDBRANCH   7  14
TORSDOF 6
ENDMDL
MODEL 8
REMARK VINA RESULT:      -6.0     12.738     15.644
REMARK  Name = 38027996
REMARK  10 active torsions:
REMARK  status: ('A' for Active; 'I' for Inactive)
REMARK    1  A    between atoms: N_4  and  C_14
REMARK    2  A    between atoms: N_5  and  C_24
REMARK    3  A    between atoms: C_6  and  C_10
REMARK    4  A    between atoms: C_7  and  C_14
REMARK    5  A    between atoms: C_9  and  C_13
REMARK    6  A    between atoms: C_10  and  C_15
REMARK    7  A    between atoms: C_10  and  C_16
REMARK    8  A    between atoms: C_11  and  C_17
REMARK    9  A    between atoms: C_13  and  C_18
REMARK   10  A    between atoms: C_23  and  C_25
REMARK                            x       y       z     vdW  Elec       q    Type
REMARK                         _______ _______ _______ _____ _____    ______ ____
ROOT
ATOM      6  C   UNL     1      17.953  -3.200  23.696  0.00  0.00    +0.000 C 
ATOM      7  C   UNL     1      18.784  -4.332  23.041  0.00  0.00    +0.032 C 
ATOM      8  C   UNL     1      18.879  -2.108  24.252  0.00  0.00    +0.012 C 
ATOM      9  C   UNL     1      19.864  -2.658  25.301  0.00  0.00    +0.023 C 
ATOM     11  C   UNL     1      20.530  -3.936  24.831  0.00  0.00    -0.073 C 
ATOM     12  C   UNL     1      20.041  -4.663  23.812  0.00  0.00    -0.022 C 
ATOM     17  C   UNL     1      21.799  -4.335  25.532  0.00  0.00    +0.039 C 
ENDROOT
BRANCH   6  10
ATOM     10  C   UNL     1      16.958  -2.581  22.708  0.00  0.00    -0.013 C 
ATOM     15  C   UNL     1      15.525  -2.856  23.155  0.00  0.00    +0.007 C 
ATOM     16  C   UNL     1      17.205  -1.083  22.572  0.00  0.00    +0.007 C 
ENDBRANCH   6  10
BRANCH   9  13
ATOM     13  C   UNL     1      19.173  -2.866  26.653  0.00  0.00    +0.103 C 
BRANCH  13  18
ATOM      1  O   UNL     1      20.705  -1.201  27.360  0.00  0.00    -0.276 OA
ATOM      3  N   UNL     1      19.291  -2.065  28.986  0.00  0.00    -0.299 N 
ATOM      5  N   UNL     1      17.827  -1.644  31.413  0.00  0.00    -0.302 NA
ATOM     18  C   UNL     1      19.797  -1.967  27.691  0.00  0.00    +0.216 C 
ATOM     19  C   UNL     1      19.839  -1.225  30.050  0.00  0.00    +0.123 C 
ATOM     20  C   UNL     1      18.309  -3.055  29.440  0.00  0.00    +0.123 C 
ATOM     21  C   UNL     1      18.729  -0.605  30.896  0.00  0.00    +0.103 C 
ATOM     22  C   UNL     1      17.228  -2.402  30.304  0.00  0.00    +0.103 C 
ATOM     24  C   UNL     1      16.785  -1.050  32.250  0.00  0.00    +0.105 C 
ENDBRANCH  13  18
ENDBRANCH   9  13
BRANCH   7  14
ATOM     14  C   UNL     1      17.945  -5.601  22.862  0.00  0.00    +0.112 C 
BRANCH  14   4
ATOM      2  O   UNL     1      18.585  -7.791  24.605  0.00  0.00    -0.270 OA
ATOM      4  N   UNL     1      17.280  -5.946  24.080  0.00  0.00    -0.311 N 
ATOM     23  C   UNL     1      17.657  -7.031  24.870  0.00  0.00    +0.244 C 
ATOM     31  H   UNL     1      16.562  -5.310  24.412  0.00  0.00    +0.149 HD
BRANCH  23  25
ATOM     25  C   UNL     1      16.849  -7.272  26.091  0.00  0.00    +0.037 A 
ATOM     26  C   UNL     1      16.362  -8.551  26.366  0.00  0.00    +0.013 A 
ATOM     27  C   UNL     1      16.577  -6.220  26.967  0.00  0.00    +0.013 A 
ATOM     28  C   UNL     1      15.604  -8.777  27.515  0.00  0.00    +0.001 A 
ATOM     29  C   UNL     1      15.819  -6.447  28.116  0.00  0.00    +0.001 A 
ATOM     30  C   UNL     1      15.333  -7.725  28.389  0.00  0.00    +0.000 A 
ENDBRANCH  23  25
ENDBRANCH  14   4
ENDBRANCH   7  14
TORSDOF 6
ENDMDL
MODEL 9
REMARK VINA RESULT:      -6.0     14.193     17.514
REMARK  Name = 38027996
REMARK  10 active torsions:
REMARK  status: ('A' for Active; 'I' for Inactive)
REMARK    1  A    between atoms: N_4  and  C_14
REMARK    2  A    between atoms: N_5  and  C_24
REMARK    3  A    between atoms: C_6  and  C_10
REMARK    4  A    between atoms: C_7  and  C_14
REMARK    5  A    between atoms: C_9  and  C_13
REMARK    6  A    between atoms: C_10  and  C_15
REMARK    7  A    between atoms: C_10  and  C_16
REMARK    8  A    between atoms: C_11  and  C_17
REMARK    9  A    between atoms: C_13  and  C_18
REMARK   10  A    between atoms: C_23  and  C_25
REMARK                            x       y       z     vdW  Elec       q    Type
REMARK                         _______ _______ _______ _____ _____    ______ ____
ROOT
ATOM      6  C   UNL     1       8.927   8.511   4.901  0.00  0.00    +0.000 C 
ATOM      7  C   UNL     1       8.611   9.195   6.254  0.00  0.00    +0.032 C 
ATOM      8  C   UNL     1       8.423   7.059   4.903  0.00  0.00    +0.012 C 
ATOM      9  C   UNL     1       9.057   6.224   6.033  0.00  0.00    +0.023 C 
ATOM     11  C   UNL     1       9.024   6.955   7.359  0.00  0.00    -0.073 C 
ATOM     12  C   UNL     1       8.810   8.280   7.439  0.00  0.00    -0.022 C 
ATOM     17  C   UNL     1       9.197   6.119   8.596  0.00  0.00    +0.039 C 
ENDROOT
BRANCH   6  10
ATOM     10  C   UNL     1       8.311   9.270   3.721  0.00  0.00    -0.013 C 
ATOM     15  C   UNL     1       8.426   8.449   2.441  0.00  0.00    +0.007 C 
ATOM     16  C   UNL     1       6.855   9.617   4.013  0.00  0.00    +0.007 C 
ENDBRANCH   6  10
BRANCH   9  13
ATOM     13  C   UNL     1      10.487   5.805   5.673  0.00  0.00    +0.103 C 
BRANCH  13  18
ATOM      1  O   UNL     1       9.912   3.581   5.089  0.00  0.00    -0.276 OA
ATOM      3  N   UNL     1      11.052   4.811   3.484  0.00  0.00    -0.299 N 
ATOM      5  N   UNL     1      11.537   5.336   0.709  0.00  0.00    -0.302 NA
ATOM     18  C   UNL     1      10.454   4.629   4.730  0.00  0.00    +0.216 C 
ATOM     19  C   UNL     1      11.058   3.720   2.511  0.00  0.00    +0.123 C 
ATOM     20  C   UNL     1      11.819   5.992   3.077  0.00  0.00    +0.123 C 
ATOM     21  C   UNL     1      10.676   4.217   1.117  0.00  0.00    +0.103 C 
ATOM     22  C   UNL     1      11.427   6.445   1.669  0.00  0.00    +0.103 C 
ATOM     24  C   UNL     1      11.189   5.787  -0.638  0.00  0.00    +0.105 C 
ENDBRANCH  13  18
ENDBRANCH   9  13
BRANCH   7  14
ATOM     14  C   UNL     1       9.450  10.464   6.440  0.00  0.00    +0.112 C 
BRANCH  14   4
ATOM      2  O   UNL     1      11.500  10.414   8.450  0.00  0.00    -0.270 OA
ATOM      4  N   UNL     1      10.838  10.188   6.238  0.00  0.00    -0.311 N 
ATOM     23  C   UNL     1      11.771  10.184   7.275  0.00  0.00    +0.244 C 
ATOM     31  H   UNL     1      11.123   9.898   5.307  0.00  0.00    +0.149 HD
BRANCH  23  25
ATOM     25  C   UNL     1      13.179   9.906   6.896  0.00  0.00    +0.037 A 
ATOM     26  C   UNL     1      14.109  10.945   6.852  0.00  0.00    +0.013 A 
ATOM     27  C   UNL     1      13.574   8.603   6.586  0.00  0.00    +0.013 A 
ATOM     28  C   UNL     1      15.433  10.683   6.499  0.00  0.00    +0.001 A 
ATOM     29  C   UNL     1      14.897   8.341   6.233  0.00  0.00    +0.001 A 
ATOM     30  C   UNL     1      15.826   9.381   6.188  0.00  0.00    +0.000 A 
ENDBRANCH  23  25
ENDBRANCH  14   4
ENDBRANCH   7  14
TORSDOF 6
ENDMDL
MODEL 10
REMARK VINA RESULT:      -5.9     27.399     31.035
REMARK  Name = 38027996
REMARK  10 active torsions:
REMARK  status: ('A' for Active; 'I' for Inactive)
REMARK    1  A    between atoms: N_4  and  C_14
REMARK    2  A    between atoms: N_5  and  C_24
REMARK    3  A    between atoms: C_6  and  C_10
REMARK    4  A    between atoms: C_7  and  C_14
REMARK    5  A    between atoms: C_9  and  C_13
REMARK    6  A    between atoms: C_10  and  C_15
REMARK    7  A    between atoms: C_10  and  C_16
REMARK    8  A    between atoms: C_11  and  C_17
REMARK    9  A    between atoms: C_13  and  C_18
REMARK   10  A    between atoms: C_23  and  C_25
REMARK                            x       y       z     vdW  Elec       q    Type
REMARK                         _______ _______ _______ _____ _____    ______ ____
ROOT
ATOM      6  C   UNL     1      -3.114 -12.191  12.505  0.00  0.00    +0.000 C 
ATOM      7  C   UNL     1      -2.057 -11.067  12.369  0.00  0.00    +0.032 C 
ATOM      8  C   UNL     1      -3.685 -12.560  11.127  0.00  0.00    +0.012 C 
ATOM      9  C   UNL     1      -4.342 -11.355  10.428  0.00  0.00    +0.023 C 
ATOM     11  C   UNL     1      -3.465 -10.121  10.489  0.00  0.00    -0.073 C 
ATOM     12  C   UNL     1      -2.441 -10.016  11.354  0.00  0.00    -0.022 C 
ATOM     17  C   UNL     1      -3.764  -9.028   9.501  0.00  0.00    +0.039 C 
ENDROOT
BRANCH   6  10
ATOM     10  C   UNL     1      -2.532 -13.441  13.175  0.00  0.00    -0.013 C 
ATOM     15  C   UNL     1      -3.421 -13.888  14.331  0.00  0.00    +0.007 C 
ATOM     16  C   UNL     1      -2.364 -14.562  12.156  0.00  0.00    +0.007 C 
ENDBRANCH   6  10
BRANCH   9  13
ATOM     13  C   UNL     1      -5.732 -11.069  11.010  0.00  0.00    +0.103 C 
BRANCH  13  18
ATOM      1  O   UNL     1      -7.030 -10.245   9.206  0.00  0.00    -0.276 OA
ATOM      3  N   UNL     1      -7.400 -12.452   9.826  0.00  0.00    -0.299 N 
ATOM      5  N   UNL     1      -8.136 -15.109   9.046  0.00  0.00    -0.302 NA
ATOM     18  C   UNL     1      -6.777 -11.210   9.932  0.00  0.00    +0.216 C 
ATOM     19  C   UNL     1      -8.422 -12.671   8.803  0.00  0.00    +0.123 C 
ATOM     20  C   UNL     1      -7.220 -13.573  10.753  0.00  0.00    +0.123 C 
ATOM     21  C   UNL     1      -8.211 -14.001   8.082  0.00  0.00    +0.103 C 
ATOM     22  C   UNL     1      -7.036 -14.890   9.997  0.00  0.00    +0.103 C 
ATOM     24  C   UNL     1      -7.967 -16.384   8.350  0.00  0.00    +0.105 C 
ENDBRANCH  13  18
ENDBRANCH   9  13
BRANCH   7  14
ATOM     14  C   UNL     1      -1.786 -10.397  13.721  0.00  0.00    +0.112 C 
BRANCH  14   4
ATOM      2  O   UNL     1      -2.062 -10.895  16.535  0.00  0.00    -0.270 OA
ATOM      4  N   UNL     1      -2.987 -10.304  14.491  0.00  0.00    -0.311 N 
ATOM     23  C   UNL     1      -3.033 -10.565  15.860  0.00  0.00    +0.244 C 
ATOM     31  H   UNL     1      -3.813  -9.947  14.021  0.00  0.00    +0.149 HD
BRANCH  23  25
ATOM     25  C   UNL     1      -4.363 -10.450  16.510  0.00  0.00    +0.037 A 
ATOM     26  C   UNL     1      -5.428  -9.865  15.823  0.00  0.00    +0.013 A 
ATOM     27  C   UNL     1      -4.550 -10.930  17.807  0.00  0.00    +0.013 A 
ATOM     28  C   UNL     1      -6.678  -9.760  16.433  0.00  0.00    +0.001 A 
ATOM     29  C   UNL     1      -5.800 -10.825  18.416  0.00  0.00    +0.001 A 
ATOM     30  C   UNL     1      -6.863 -10.240  17.730  0.00  0.00    +0.000 A 
ENDBRANCH  23  25
ENDBRANCH  14   4
ENDBRANCH   7  14
TORSDOF 6
ENDMDL
