MODEL 1
REMARK VINA RESULT:      -7.6      0.000      0.000
REMARK  Name = 45361382
REMARK  14 active torsions:
REMARK  status: ('A' for Active; 'I' for Inactive)
REMARK    1  A    between atoms: O_1  and  C_11
REMARK    2  A    between atoms: O_4  and  C_31
REMARK    3  A    between atoms: O_4  and  C_37
REMARK    4  A    between atoms: O_5  and  C_36
REMARK    5  A    between atoms: O_5  and  C_38
REMARK    6  A    between atoms: N_6  and  C_15
REMARK    7  A    between atoms: N_7  and  C_25
REMARK    8  A    between atoms: C_8  and  C_18
REMARK    9  A    between atoms: C_10  and  C_20
REMARK   10  A    between atoms: C_14  and  C_19
REMARK   11  A    between atoms: C_19  and  C_21
REMARK   12  A    between atoms: C_19  and  C_22
REMARK   13  A    between atoms: C_23  and  C_24
REMARK   14  A    between atoms: C_25  and  C_28
REMARK                            x       y       z     vdW  Elec       q    Type
REMARK                         _______ _______ _______ _____ _____    ______ ____
ROOT
ATOM      8  C   UNL     1     -18.160   4.610  22.545  0.00  0.00    -0.027 C 
ATOM      9  C   UNL     1     -16.866   4.262  23.354  0.00  0.00    +0.028 C 
ATOM     10  C   UNL     1     -15.595   4.881  22.668  0.00  0.00    +0.012 C 
ATOM     11  C   UNL     1     -16.786   2.738  23.660  0.00  0.00    +0.122 C 
ATOM     12  C   UNL     1     -19.401   4.084  23.305  0.00  0.00    +0.007 C 
ATOM     13  C   UNL     1     -18.290   6.146  22.438  0.00  0.00    +0.009 C 
ATOM     14  C   UNL     1     -18.072   2.197  24.327  0.00  0.00    +0.029 C 
ATOM     15  C   UNL     1     -15.769   6.416  22.497  0.00  0.00    +0.076 C 
ATOM     16  C   UNL     1     -19.343   2.585  23.572  0.00  0.00    +0.007 C 
ATOM     17  C   UNL     1     -17.073   6.806  21.804  0.00  0.00    +0.023 C 
ATOM     18  C   UNL     1     -18.153   3.998  21.121  0.00  0.00    +0.011 C 
ATOM     20  C   UNL     1     -14.288   4.601  23.428  0.00  0.00    +0.010 C 
ENDROOT
BRANCH  15   6
ATOM      3  O   UNL     1     -14.394   8.856  23.130  0.00  0.00    -0.270 OA
ATOM      6  N   UNL     1     -14.667   7.002  21.764  0.00  0.00    -0.308 N 
ATOM     23  C   UNL     1     -14.068   8.189  22.152  0.00  0.00    +0.244 C 
ATOM     39  H   UNL     1     -14.421   6.566  20.882  0.00  0.00    +0.149 HD
BRANCH  23  24
ATOM     24  C   UNL     1     -12.967   8.671  21.278  0.00  0.00    +0.037 A 
ATOM     26  C   UNL     1     -12.168   7.754  20.594  0.00  0.00    +0.016 A 
ATOM     27  C   UNL     1     -12.729  10.038  21.146  0.00  0.00    +0.016 A 
ATOM     29  C   UNL     1     -11.133   8.206  19.777  0.00  0.00    +0.046 A 
ATOM     30  C   UNL     1     -11.693  10.490  20.329  0.00  0.00    +0.046 A 
ATOM     31  C   UNL     1     -10.895   9.574  19.644  0.00  0.00    +0.120 A 
BRANCH  31   4
ATOM      4  O   UNL     1      -9.884  10.015  18.846  0.00  0.00    -0.495 OA
ATOM     37  C   UNL     1      -9.968   9.699  17.457  0.00  0.00    +0.277 C 
ENDBRANCH  31   4
ENDBRANCH  23  24
ENDBRANCH  15   6
BRANCH  11   1
ATOM      1  O   UNL     1     -15.716   2.492  24.575  0.00  0.00    -0.391 OA
ATOM     40  H   UNL     1     -15.459   1.559  24.494  0.00  0.00    +0.210 HD
ENDBRANCH  11   1
BRANCH  14  19
ATOM     19  C   UNL     1     -18.024   0.675  24.501  0.00  0.00    +0.077 C 
ATOM     21  C   UNL     1     -19.031   0.008  23.570  0.00  0.00    +0.017 C 
BRANCH  19  22
ATOM      2  O   UNL     1     -19.111  -0.544  26.291  0.00  0.00    -0.276 OA
ATOM      7  N   UNL     1     -17.514   1.046  26.841  0.00  0.00    -0.311 N 
ATOM     22  C   UNL     1     -18.291   0.310  25.958  0.00  0.00    +0.216 C 
ATOM     41  H   UNL     1     -16.821   1.696  26.485  0.00  0.00    +0.149 HD
BRANCH   7  25
ATOM     25  C   UNL     1     -17.589   0.880  28.275  0.00  0.00    +0.139 C 
BRANCH  25  28
ATOM     28  C   UNL     1     -16.390   1.457  28.970  0.00  0.00    -0.030 A 
ATOM     32  C   UNL     1     -15.631   0.661  29.829  0.00  0.00    +0.009 A 
ATOM     33  C   UNL     1     -16.035   2.788  28.756  0.00  0.00    +0.009 A 
ATOM     34  C   UNL     1     -14.517   1.198  30.475  0.00  0.00    +0.046 A 
ATOM     35  C   UNL     1     -14.920   3.325  29.403  0.00  0.00    +0.046 A 
ATOM     36  C   UNL     1     -14.162   2.530  30.262  0.00  0.00    +0.120 A 
BRANCH  36   5
ATOM      5  O   UNL     1     -13.075   3.054  30.891  0.00  0.00    -0.495 OA
ATOM     38  C   UNL     1     -13.303   3.725  32.129  0.00  0.00    +0.277 C 
ENDBRANCH  36   5
ENDBRANCH  25  28
ENDBRANCH   7  25
ENDBRANCH  19  22
ENDBRANCH  14  19
TORSDOF 9
ENDMDL
MODEL 2
REMARK VINA RESULT:      -7.2     18.768     22.193
REMARK  Name = 45361382
REMARK  14 active torsions:
REMARK  status: ('A' for Active; 'I' for Inactive)
REMARK    1  A    between atoms: O_1  and  C_11
REMARK    2  A    between atoms: O_4  and  C_31
REMARK    3  A    between atoms: O_4  and  C_37
REMARK    4  A    between atoms: O_5  and  C_36
REMARK    5  A    between atoms: O_5  and  C_38
REMARK    6  A    between atoms: N_6  and  C_15
REMARK    7  A    between atoms: N_7  and  C_25
REMARK    8  A    between atoms: C_8  and  C_18
REMARK    9  A    between atoms: C_10  and  C_20
REMARK   10  A    between atoms: C_14  and  C_19
REMARK   11  A    between atoms: C_19  and  C_21
REMARK   12  A    between atoms: C_19  and  C_22
REMARK   13  A    between atoms: C_23  and  C_24
REMARK   14  A    between atoms: C_25  and  C_28
REMARK                            x       y       z     vdW  Elec       q    Type
REMARK                         _______ _______ _______ _____ _____    ______ ____
ROOT
ATOM      8  C   UNL     1      -4.573 -11.097  16.980  0.00  0.00    -0.027 C 
ATOM      9  C   UNL     1      -5.407 -10.466  15.815  0.00  0.00    +0.028 C 
ATOM     10  C   UNL     1      -6.947 -10.572  16.110  0.00  0.00    +0.012 C 
ATOM     11  C   UNL     1      -4.951 -11.018  14.434  0.00  0.00    +0.122 C 
ATOM     12  C   UNL     1      -3.065 -10.876  16.713  0.00  0.00    +0.007 C 
ATOM     13  C   UNL     1      -4.928 -10.377  18.301  0.00  0.00    +0.009 C 
ATOM     14  C   UNL     1      -3.426 -10.888  14.216  0.00  0.00    +0.029 C 
ATOM     15  C   UNL     1      -7.281  -9.911  17.476  0.00  0.00    +0.076 C 
ATOM     16  C   UNL     1      -2.607 -11.449  15.379  0.00  0.00    +0.007 C 
ATOM     17  C   UNL     1      -6.415 -10.422  18.627  0.00  0.00    +0.023 C 
ATOM     18  C   UNL     1      -4.832 -12.616  17.142  0.00  0.00    +0.011 C 
ATOM     20  C   UNL     1      -7.827  -9.945  15.016  0.00  0.00    +0.010 C 
ENDROOT
BRANCH  15   6
ATOM      3  O   UNL     1      -9.333  -7.903  17.450  0.00  0.00    -0.270 OA
ATOM      6  N   UNL     1      -8.672 -10.091  17.834  0.00  0.00    -0.308 N 
ATOM     23  C   UNL     1      -9.588  -9.055  17.789  0.00  0.00    +0.244 C 
ATOM     39  H   UNL     1      -8.928 -10.988  18.233  0.00  0.00    +0.149 HD
BRANCH  23  24
ATOM     24  C   UNL     1     -10.971  -9.398  18.213  0.00  0.00    +0.037 A 
ATOM     26  C   UNL     1     -12.041  -9.174  17.345  0.00  0.00    +0.016 A 
ATOM     27  C   UNL     1     -11.200  -9.940  19.477  0.00  0.00    +0.016 A 
ATOM     29  C   UNL     1     -13.339  -9.493  17.743  0.00  0.00    +0.046 A 
ATOM     30  C   UNL     1     -12.497 -10.258  19.875  0.00  0.00    +0.046 A 
ATOM     31  C   UNL     1     -13.567 -10.035  19.008  0.00  0.00    +0.120 A 
BRANCH  31   4
ATOM      4  O   UNL     1     -14.834 -10.346  19.396  0.00  0.00    -0.495 OA
ATOM     37  C   UNL     1     -15.096 -10.368  20.799  0.00  0.00    +0.277 C 
ENDBRANCH  31   4
ENDBRANCH  23  24
ENDBRANCH  15   6
BRANCH  11   1
ATOM      1  O   UNL     1      -5.578 -10.269  13.391  0.00  0.00    -0.391 OA
ATOM     40  H   UNL     1      -5.422 -10.731  12.551  0.00  0.00    +0.210 HD
ENDBRANCH  11   1
BRANCH  14  19
ATOM     19  C   UNL     1      -2.980 -11.553  12.908  0.00  0.00    +0.077 C 
ATOM     21  C   UNL     1      -1.830 -12.519  13.176  0.00  0.00    +0.017 C 
BRANCH  19  22
ATOM      2  O   UNL     1      -1.461  -9.987  11.856  0.00  0.00    -0.276 OA
ATOM      7  N   UNL     1      -3.622 -10.159  11.034  0.00  0.00    -0.311 N 
ATOM     22  C   UNL     1      -2.583 -10.487  11.892  0.00  0.00    +0.216 C 
ATOM     41  H   UNL     1      -4.505 -10.655  11.093  0.00  0.00    +0.149 HD
BRANCH   7  25
ATOM     25  C   UNL     1      -3.489  -9.172   9.986  0.00  0.00    +0.139 C 
BRANCH  25  28
ATOM     28  C   UNL     1      -4.747  -9.041   9.175  0.00  0.00    -0.030 A 
ATOM     32  C   UNL     1      -4.908  -9.790   8.010  0.00  0.00    +0.009 A 
ATOM     33  C   UNL     1      -5.754  -8.170   9.589  0.00  0.00    +0.009 A 
ATOM     34  C   UNL     1      -6.076  -9.667   7.257  0.00  0.00    +0.046 A 
ATOM     35  C   UNL     1      -6.922  -8.046   8.837  0.00  0.00    +0.046 A 
ATOM     36  C   UNL     1      -7.083  -8.795   7.671  0.00  0.00    +0.120 A 
BRANCH  36   5
ATOM      5  O   UNL     1      -8.224  -8.676   6.938  0.00  0.00    -0.495 OA
ATOM     38  C   UNL     1      -8.220  -7.714   5.884  0.00  0.00    +0.277 C 
ENDBRANCH  36   5
ENDBRANCH  25  28
ENDBRANCH   7  25
ENDBRANCH  19  22
ENDBRANCH  14  19
TORSDOF 9
ENDMDL
MODEL 3
REMARK VINA RESULT:      -6.9     20.749     22.130
REMARK  Name = 45361382
REMARK  14 active torsions:
REMARK  status: ('A' for Active; 'I' for Inactive)
REMARK    1  A    between atoms: O_1  and  C_11
REMARK    2  A    between atoms: O_4  and  C_31
REMARK    3  A    between atoms: O_4  and  C_37
REMARK    4  A    between atoms: O_5  and  C_36
REMARK    5  A    between atoms: O_5  and  C_38
REMARK    6  A    between atoms: N_6  and  C_15
REMARK    7  A    between atoms: N_7  and  C_25
REMARK    8  A    between atoms: C_8  and  C_18
REMARK    9  A    between atoms: C_10  and  C_20
REMARK   10  A    between atoms: C_14  and  C_19
REMARK   11  A    between atoms: C_19  and  C_21
REMARK   12  A    between atoms: C_19  and  C_22
REMARK   13  A    between atoms: C_23  and  C_24
REMARK   14  A    between atoms: C_25  and  C_28
REMARK                            x       y       z     vdW  Elec       q    Type
REMARK                         _______ _______ _______ _____ _____    ______ ____
ROOT
ATOM      8  C   UNL     1      -6.457 -10.097  11.839  0.00  0.00    -0.027 C 
ATOM      9  C   UNL     1      -5.224  -9.519  11.065  0.00  0.00    +0.028 C 
ATOM     10  C   UNL     1      -5.523  -9.428   9.526  0.00  0.00    +0.012 C 
ATOM     11  C   UNL     1      -3.917 -10.268  11.450  0.00  0.00    +0.122 C 
ATOM     12  C   UNL     1      -6.172 -10.066  13.359  0.00  0.00    +0.007 C 
ATOM     13  C   UNL     1      -7.686  -9.198  11.572  0.00  0.00    +0.009 C 
ATOM     14  C   UNL     1      -3.691 -10.324  12.979  0.00  0.00    +0.029 C 
ATOM     15  C   UNL     1      -6.804  -8.585   9.274  0.00  0.00    +0.076 C 
ATOM     16  C   UNL     1      -4.913 -10.832  13.744  0.00  0.00    +0.007 C 
ATOM     17  C   UNL     1      -8.009  -9.050  10.091  0.00  0.00    +0.023 C 
ATOM     18  C   UNL     1      -6.789 -11.552  11.424  0.00  0.00    +0.011 C 
ATOM     20  C   UNL     1      -4.362  -8.841   8.707  0.00  0.00    +0.010 C 
ENDROOT
BRANCH  15   6
ATOM      3  O   UNL     1      -8.161  -6.478   7.872  0.00  0.00    -0.270 OA
ATOM      6  N   UNL     1      -7.176  -8.577   7.875  0.00  0.00    -0.308 N 
ATOM     23  C   UNL     1      -7.831  -7.508   7.289  0.00  0.00    +0.244 C 
ATOM     39  H   UNL     1      -7.037  -9.440   7.360  0.00  0.00    +0.149 HD
BRANCH  23  24
ATOM     24  C   UNL     1      -8.165  -7.666   5.849  0.00  0.00    +0.037 A 
ATOM     26  C   UNL     1      -9.360  -7.148   5.350  0.00  0.00    +0.016 A 
ATOM     27  C   UNL     1      -7.285  -8.334   4.999  0.00  0.00    +0.016 A 
ATOM     29  C   UNL     1      -9.674  -7.299   4.000  0.00  0.00    +0.046 A 
ATOM     30  C   UNL     1      -7.599  -8.485   3.649  0.00  0.00    +0.046 A 
ATOM     31  C   UNL     1      -8.794  -7.967   3.149  0.00  0.00    +0.120 A 
BRANCH  31   4
ATOM      4  O   UNL     1      -9.101  -8.114   1.831  0.00  0.00    -0.495 OA
ATOM     37  C   UNL     1      -8.747  -9.352   1.216  0.00  0.00    +0.277 C 
ENDBRANCH  31   4
ENDBRANCH  23  24
ENDBRANCH  15   6
BRANCH  11   1
ATOM      1  O   UNL     1      -2.793  -9.580  10.897  0.00  0.00    -0.391 OA
ATOM     40  H   UNL     1      -2.699  -8.732  11.361  0.00  0.00    +0.210 HD
ENDBRANCH  11   1
BRANCH  14  19
ATOM     19  C   UNL     1      -2.469 -11.176  13.343  0.00  0.00    +0.077 C 
ATOM     21  C   UNL     1      -2.780 -12.655  13.137  0.00  0.00    +0.017 C 
BRANCH  19  22
ATOM      2  O   UNL     1      -1.068 -10.205  15.063  0.00  0.00    -0.276 OA
ATOM      7  N   UNL     1      -2.884 -11.496  15.708  0.00  0.00    -0.311 N 
ATOM     22  C   UNL     1      -2.047 -10.893  14.781  0.00  0.00    +0.216 C 
ATOM     41  H   UNL     1      -3.704 -12.005  15.395  0.00  0.00    +0.149 HD
BRANCH   7  25
ATOM     25  C   UNL     1      -2.688 -11.373  17.135  0.00  0.00    +0.139 C 
BRANCH  25  28
ATOM     28  C   UNL     1      -3.991 -11.301  17.877  0.00  0.00    -0.030 A 
ATOM     32  C   UNL     1      -5.096 -10.684  17.290  0.00  0.00    +0.009 A 
ATOM     33  C   UNL     1      -4.097 -11.854  19.153  0.00  0.00    +0.009 A 
ATOM     34  C   UNL     1      -6.307 -10.618  17.981  0.00  0.00    +0.046 A 
ATOM     35  C   UNL     1      -5.308 -11.788  19.844  0.00  0.00    +0.046 A 
ATOM     36  C   UNL     1      -6.412 -11.170  19.258  0.00  0.00    +0.120 A 
BRANCH  36   5
ATOM      5  O   UNL     1      -7.593 -11.107  19.931  0.00  0.00    -0.495 OA
ATOM     38  C   UNL     1      -8.767 -10.861  19.158  0.00  0.00    +0.277 C 
ENDBRANCH  36   5
ENDBRANCH  25  28
ENDBRANCH   7  25
ENDBRANCH  19  22
ENDBRANCH  14  19
TORSDOF 9
ENDMDL
MODEL 4
REMARK VINA RESULT:      -6.8     28.099     34.541
REMARK  Name = 45361382
REMARK  14 active torsions:
REMARK  status: ('A' for Active; 'I' for Inactive)
REMARK    1  A    between atoms: O_1  and  C_11
REMARK    2  A    between atoms: O_4  and  C_31
REMARK    3  A    between atoms: O_4  and  C_37
REMARK    4  A    between atoms: O_5  and  C_36
REMARK    5  A    between atoms: O_5  and  C_38
REMARK    6  A    between atoms: N_6  and  C_15
REMARK    7  A    between atoms: N_7  and  C_25
REMARK    8  A    between atoms: C_8  and  C_18
REMARK    9  A    between atoms: C_10  and  C_20
REMARK   10  A    between atoms: C_14  and  C_19
REMARK   11  A    between atoms: C_19  and  C_21
REMARK   12  A    between atoms: C_19  and  C_22
REMARK   13  A    between atoms: C_23  and  C_24
REMARK   14  A    between atoms: C_25  and  C_28
REMARK                            x       y       z     vdW  Elec       q    Type
REMARK                         _______ _______ _______ _____ _____    ______ ____
ROOT
ATOM      8  C   UNL     1       9.451   6.069   6.161  0.00  0.00    -0.027 C 
ATOM      9  C   UNL     1      10.453   7.193   5.733  0.00  0.00    +0.028 C 
ATOM     10  C   UNL     1       9.948   8.603   6.209  0.00  0.00    +0.012 C 
ATOM     11  C   UNL     1      10.808   7.085   4.222  0.00  0.00    +0.122 C 
ATOM     12  C   UNL     1      10.032   4.687   5.778  0.00  0.00    +0.007 C 
ATOM     13  C   UNL     1       9.285   6.101   7.698  0.00  0.00    +0.009 C 
ATOM     14  C   UNL     1      11.289   5.671   3.824  0.00  0.00    +0.029 C 
ATOM     15  C   UNL     1       9.712   8.600   7.745  0.00  0.00    +0.076 C 
ATOM     16  C   UNL     1      10.344   4.565   4.292  0.00  0.00    +0.007 C 
ATOM     17  C   UNL     1       8.823   7.453   8.222  0.00  0.00    +0.023 C 
ATOM     18  C   UNL     1       8.061   6.227   5.495  0.00  0.00    +0.011 C 
ATOM     20  C   UNL     1      10.901   9.753   5.845  0.00  0.00    +0.010 C 
ENDROOT
BRANCH  15   6
ATOM      3  O   UNL     1      11.030  10.635   9.286  0.00  0.00    -0.270 OA
ATOM      6  N   UNL     1       9.137   9.847   8.203  0.00  0.00    -0.308 N 
ATOM     23  C   UNL     1       9.858  10.768   8.944  0.00  0.00    +0.244 C 
ATOM     39  H   UNL     1       8.141   9.972   8.055  0.00  0.00    +0.149 HD
BRANCH  23  24
ATOM     24  C   UNL     1       9.115  11.986   9.358  0.00  0.00    +0.037 A 
ATOM     26  C   UNL     1       8.684  12.126  10.678  0.00  0.00    +0.016 A 
ATOM     27  C   UNL     1       8.845  12.989   8.427  0.00  0.00    +0.016 A 
ATOM     29  C   UNL     1       7.985  13.267  11.066  0.00  0.00    +0.046 A 
ATOM     30  C   UNL     1       8.145  14.131   8.815  0.00  0.00    +0.046 A 
ATOM     31  C   UNL     1       7.715  14.270  10.135  0.00  0.00    +0.120 A 
BRANCH  31   4
ATOM      4  O   UNL     1       7.032  15.385  10.514  0.00  0.00    -0.495 OA
ATOM     37  C   UNL     1       5.612  15.278  10.602  0.00  0.00    +0.277 C 
ENDBRANCH  31   4
ENDBRANCH  23  24
ENDBRANCH  15   6
BRANCH  11   1
ATOM      1  O   UNL     1      11.878   7.982   3.919  0.00  0.00    -0.391 OA
ATOM     40  H   UNL     1      12.378   7.613   3.171  0.00  0.00    +0.210 HD
ENDBRANCH  11   1
BRANCH  14  19
ATOM     19  C   UNL     1      11.509   5.549   2.311  0.00  0.00    +0.077 C 
ATOM     21  C   UNL     1      10.644   4.429   1.743  0.00  0.00    +0.017 C 
BRANCH  19  22
ATOM      2  O   UNL     1      13.842   6.184   2.163  0.00  0.00    -0.276 OA
ATOM      7  N   UNL     1      13.241   4.022   1.577  0.00  0.00    -0.311 N 
ATOM     22  C   UNL     1      12.987   5.312   2.018  0.00  0.00    +0.216 C 
ATOM     41  H   UNL     1      12.487   3.344   1.534  0.00  0.00    +0.149 HD
BRANCH   7  25
ATOM     25  C   UNL     1      14.566   3.559   1.234  0.00  0.00    +0.139 C 
BRANCH  25  28
ATOM     28  C   UNL     1      14.967   3.978  -0.151  0.00  0.00    -0.030 A 
ATOM     32  C   UNL     1      14.017   4.017  -1.171  0.00  0.00    +0.009 A 
ATOM     33  C   UNL     1      16.290   4.331  -0.416  0.00  0.00    +0.009 A 
ATOM     34  C   UNL     1      14.391   4.407  -2.458  0.00  0.00    +0.046 A 
ATOM     35  C   UNL     1      16.664   4.721  -1.702  0.00  0.00    +0.046 A 
ATOM     36  C   UNL     1      15.715   4.759  -2.723  0.00  0.00    +0.120 A 
BRANCH  36   5
ATOM      5  O   UNL     1      16.079   5.141  -3.977  0.00  0.00    -0.495 OA
ATOM     38  C   UNL     1      17.463   5.045  -4.308  0.00  0.00    +0.277 C 
ENDBRANCH  36   5
ENDBRANCH  25  28
ENDBRANCH   7  25
ENDBRANCH  19  22
ENDBRANCH  14  19
TORSDOF 9
ENDMDL
MODEL 5
REMARK VINA RESULT:      -6.7     20.249     21.829
REMARK  Name = 45361382
REMARK  14 active torsions:
REMARK  status: ('A' for Active; 'I' for Inactive)
REMARK    1  A    between atoms: O_1  and  C_11
REMARK    2  A    between atoms: O_4  and  C_31
REMARK    3  A    between atoms: O_4  and  C_37
REMARK    4  A    between atoms: O_5  and  C_36
REMARK    5  A    between atoms: O_5  and  C_38
REMARK    6  A    between atoms: N_6  and  C_15
REMARK    7  A    between atoms: N_7  and  C_25
REMARK    8  A    between atoms: C_8  and  C_18
REMARK    9  A    between atoms: C_10  and  C_20
REMARK   10  A    between atoms: C_14  and  C_19
REMARK   11  A    between atoms: C_19  and  C_21
REMARK   12  A    between atoms: C_19  and  C_22
REMARK   13  A    between atoms: C_23  and  C_24
REMARK   14  A    between atoms: C_25  and  C_28
REMARK                            x       y       z     vdW  Elec       q    Type
REMARK                         _______ _______ _______ _____ _____    ______ ____
ROOT
ATOM      8  C   UNL     1      -3.336 -11.636  11.810  0.00  0.00    -0.027 C 
ATOM      9  C   UNL     1      -4.663 -11.030  12.377  0.00  0.00    +0.028 C 
ATOM     10  C   UNL     1      -5.385 -10.153  11.292  0.00  0.00    +0.012 C 
ATOM     11  C   UNL     1      -4.424 -10.335  13.748  0.00  0.00    +0.122 C 
ATOM     12  C   UNL     1      -2.710 -12.582  12.862  0.00  0.00    +0.007 C 
ATOM     13  C   UNL     1      -3.662 -12.478  10.555  0.00  0.00    +0.009 C 
ATOM     14  C   UNL     1      -3.704 -11.253  14.763  0.00  0.00    +0.029 C 
ATOM     15  C   UNL     1      -5.640 -10.988  10.006  0.00  0.00    +0.076 C 
ATOM     16  C   UNL     1      -2.439 -11.894  14.194  0.00  0.00    +0.007 C 
ATOM     17  C   UNL     1      -4.388 -11.686   9.476  0.00  0.00    +0.023 C 
ATOM     18  C   UNL     1      -2.297 -10.548  11.439  0.00  0.00    +0.011 C 
ATOM     20  C   UNL     1      -6.714  -9.548  11.774  0.00  0.00    +0.010 C 
ENDROOT
BRANCH  15   6
ATOM      3  O   UNL     1      -7.670 -11.781   8.136  0.00  0.00    -0.270 OA
ATOM      6  N   UNL     1      -6.199 -10.181   8.943  0.00  0.00    -0.308 N 
ATOM     23  C   UNL     1      -7.179 -10.657   8.089  0.00  0.00    +0.244 C 
ATOM     39  H   UNL     1      -5.761  -9.282   8.773  0.00  0.00    +0.149 HD
BRANCH  23  24
ATOM     24  C   UNL     1      -7.630  -9.712   7.034  0.00  0.00    +0.037 A 
ATOM     26  C   UNL     1      -6.783  -9.400   5.970  0.00  0.00    +0.016 A 
ATOM     27  C   UNL     1      -8.897  -9.135   7.109  0.00  0.00    +0.016 A 
ATOM     29  C   UNL     1      -7.204  -8.512   4.981  0.00  0.00    +0.046 A 
ATOM     30  C   UNL     1      -9.318  -8.246   6.120  0.00  0.00    +0.046 A 
ATOM     31  C   UNL     1      -8.471  -7.935   5.056  0.00  0.00    +0.120 A 
BRANCH  31   4
ATOM      4  O   UNL     1      -8.883  -7.067   4.091  0.00  0.00    -0.495 OA
ATOM     37  C   UNL     1      -8.582  -7.409   2.739  0.00  0.00    +0.277 C 
ENDBRANCH  31   4
ENDBRANCH  23  24
ENDBRANCH  15   6
BRANCH  11   1
ATOM      1  O   UNL     1      -5.681  -9.987  14.332  0.00  0.00    -0.391 OA
ATOM     40  H   UNL     1      -5.515  -9.650  15.228  0.00  0.00    +0.210 HD
ENDBRANCH  11   1
BRANCH  14  19
ATOM     19  C   UNL     1      -3.363 -10.509  16.060  0.00  0.00    +0.077 C 
ATOM     21  C   UNL     1      -1.875 -10.644  16.366  0.00  0.00    +0.017 C 
BRANCH  19  22
ATOM      2  O   UNL     1      -3.780 -11.825  18.050  0.00  0.00    -0.276 OA
ATOM      7  N   UNL     1      -5.512 -10.553  17.178  0.00  0.00    -0.311 N 
ATOM     22  C   UNL     1      -4.215 -11.044  17.206  0.00  0.00    +0.216 C 
ATOM     41  H   UNL     1      -5.780  -9.869  16.477  0.00  0.00    +0.149 HD
BRANCH   7  25
ATOM     25  C   UNL     1      -6.508 -10.916  18.160  0.00  0.00    +0.139 C 
BRANCH  25  28
ATOM     28  C   UNL     1      -7.806 -10.195  17.937  0.00  0.00    -0.030 A 
ATOM     32  C   UNL     1      -7.862  -9.114  17.058  0.00  0.00    +0.009 A 
ATOM     33  C   UNL     1      -8.956 -10.608  18.610  0.00  0.00    +0.009 A 
ATOM     34  C   UNL     1      -9.069  -8.444  16.852  0.00  0.00    +0.046 A 
ATOM     35  C   UNL     1     -10.163  -9.938  18.404  0.00  0.00    +0.046 A 
ATOM     36  C   UNL     1     -10.219  -8.856  17.525  0.00  0.00    +0.120 A 
BRANCH  36   5
ATOM      5  O   UNL     1     -11.396  -8.204  17.323  0.00  0.00    -0.495 OA
ATOM     38  C   UNL     1     -11.345  -6.991  16.573  0.00  0.00    +0.277 C 
ENDBRANCH  36   5
ENDBRANCH  25  28
ENDBRANCH   7  25
ENDBRANCH  19  22
ENDBRANCH  14  19
TORSDOF 9
ENDMDL
MODEL 6
REMARK VINA RESULT:      -6.5     24.113     27.291
REMARK  Name = 45361382
REMARK  14 active torsions:
REMARK  status: ('A' for Active; 'I' for Inactive)
REMARK    1  A    between atoms: O_1  and  C_11
REMARK    2  A    between atoms: O_4  and  C_31
REMARK    3  A    between atoms: O_4  and  C_37
REMARK    4  A    between atoms: O_5  and  C_36
REMARK    5  A    between atoms: O_5  and  C_38
REMARK    6  A    between atoms: N_6  and  C_15
REMARK    7  A    between atoms: N_7  and  C_25
REMARK    8  A    between atoms: C_8  and  C_18
REMARK    9  A    between atoms: C_10  and  C_20
REMARK   10  A    between atoms: C_14  and  C_19
REMARK   11  A    between atoms: C_19  and  C_21
REMARK   12  A    between atoms: C_19  and  C_22
REMARK   13  A    between atoms: C_23  and  C_24
REMARK   14  A    between atoms: C_25  and  C_28
REMARK                            x       y       z     vdW  Elec       q    Type
REMARK                         _______ _______ _______ _____ _____    ______ ____
ROOT
ATOM      8  C   UNL     1      -5.824 -11.487   6.037  0.00  0.00    -0.027 C 
ATOM      9  C   UNL     1      -6.020 -10.033   6.585  0.00  0.00    +0.028 C 
ATOM     10  C   UNL     1      -5.923 -10.010   8.152  0.00  0.00    +0.012 C 
ATOM     11  C   UNL     1      -7.293  -9.372   5.983  0.00  0.00    +0.122 C 
ATOM     12  C   UNL     1      -5.812 -11.457   4.490  0.00  0.00    +0.007 C 
ATOM     13  C   UNL     1      -4.452 -12.022   6.508  0.00  0.00    +0.009 C 
ATOM     14  C   UNL     1      -7.325  -9.438   4.438  0.00  0.00    +0.029 C 
ATOM     15  C   UNL     1      -4.571 -10.620   8.618  0.00  0.00    +0.076 C 
ATOM     16  C   UNL     1      -7.074 -10.846   3.897  0.00  0.00    +0.007 C 
ATOM     17  C   UNL     1      -4.289 -11.998   8.021  0.00  0.00    +0.023 C 
ATOM     18  C   UNL     1      -6.938 -12.455   6.507  0.00  0.00    +0.011 C 
ATOM     20  C   UNL     1      -6.079  -8.605   8.757  0.00  0.00    +0.010 C 
ENDROOT
BRANCH  15   6
ATOM      3  O   UNL     1      -2.593  -9.421  10.320  0.00  0.00    -0.270 OA
ATOM      6  N   UNL     1      -4.496 -10.720  10.060  0.00  0.00    -0.308 N 
ATOM     23  C   UNL     1      -3.498 -10.103  10.794  0.00  0.00    +0.244 C 
ATOM     39  H   UNL     1      -5.143 -11.361  10.508  0.00  0.00    +0.149 HD
BRANCH  23  24
ATOM     24  C   UNL     1      -3.547 -10.325  12.263  0.00  0.00    +0.037 A 
ATOM     26  C   UNL     1      -2.362 -10.463  12.986  0.00  0.00    +0.016 A 
ATOM     27  C   UNL     1      -4.776 -10.398  12.917  0.00  0.00    +0.016 A 
ATOM     29  C   UNL     1      -2.407 -10.673  14.364  0.00  0.00    +0.046 A 
ATOM     30  C   UNL     1      -4.821 -10.608  14.295  0.00  0.00    +0.046 A 
ATOM     31  C   UNL     1      -3.636 -10.746  15.018  0.00  0.00    +0.120 A 
BRANCH  31   4
ATOM      4  O   UNL     1      -3.680 -10.952  16.363  0.00  0.00    -0.495 OA
ATOM     37  C   UNL     1      -4.763 -10.357  17.076  0.00  0.00    +0.277 C 
ENDBRANCH  31   4
ENDBRANCH  23  24
ENDBRANCH  15   6
BRANCH  11   1
ATOM      1  O   UNL     1      -7.321  -7.987   6.333  0.00  0.00    -0.391 OA
ATOM     40  H   UNL     1      -7.647  -7.488   5.565  0.00  0.00    +0.210 HD
ENDBRANCH  11   1
BRANCH  14  19
ATOM     19  C   UNL     1      -8.644  -8.899   3.873  0.00  0.00    +0.077 C 
ATOM     21  C   UNL     1      -9.733  -9.962   3.978  0.00  0.00    +0.017 C 
BRANCH  19  22
ATOM      2  O   UNL     1      -7.472  -7.795   2.065  0.00  0.00    -0.276 OA
ATOM      7  N   UNL     1      -9.478  -8.860   1.598  0.00  0.00    -0.311 N 
ATOM     22  C   UNL     1      -8.446  -8.450   2.429  0.00  0.00    +0.216 C 
ATOM     41  H   UNL     1     -10.222  -9.444   1.965  0.00  0.00    +0.149 HD
BRANCH   7  25
ATOM     25  C   UNL     1      -9.514  -8.553   0.186  0.00  0.00    +0.139 C 
BRANCH  25  28
ATOM     28  C   UNL     1      -8.618  -9.459  -0.608  0.00  0.00    -0.030 A 
ATOM     32  C   UNL     1      -7.820  -8.934  -1.625  0.00  0.00    +0.009 A 
ATOM     33  C   UNL     1      -8.582 -10.824  -0.328  0.00  0.00    +0.009 A 
ATOM     34  C   UNL     1      -6.988  -9.777  -2.363  0.00  0.00    +0.046 A 
ATOM     35  C   UNL     1      -7.750 -11.667  -1.066  0.00  0.00    +0.046 A 
ATOM     36  C   UNL     1      -6.953 -11.143  -2.083  0.00  0.00    +0.120 A 
BRANCH  36   5
ATOM      5  O   UNL     1      -6.140 -11.964  -2.802  0.00  0.00    -0.495 OA
ATOM     38  C   UNL     1      -6.206 -13.359  -2.511  0.00  0.00    +0.277 C 
ENDBRANCH  36   5
ENDBRANCH  25  28
ENDBRANCH   7  25
ENDBRANCH  19  22
ENDBRANCH  14  19
TORSDOF 9
ENDMDL
MODEL 7
REMARK VINA RESULT:      -6.5     27.927     33.629
REMARK  Name = 45361382
REMARK  14 active torsions:
REMARK  status: ('A' for Active; 'I' for Inactive)
REMARK    1  A    between atoms: O_1  and  C_11
REMARK    2  A    between atoms: O_4  and  C_31
REMARK    3  A    between atoms: O_4  and  C_37
REMARK    4  A    between atoms: O_5  and  C_36
REMARK    5  A    between atoms: O_5  and  C_38
REMARK    6  A    between atoms: N_6  and  C_15
REMARK    7  A    between atoms: N_7  and  C_25
REMARK    8  A    between atoms: C_8  and  C_18
REMARK    9  A    between atoms: C_10  and  C_20
REMARK   10  A    between atoms: C_14  and  C_19
REMARK   11  A    between atoms: C_19  and  C_21
REMARK   12  A    between atoms: C_19  and  C_22
REMARK   13  A    between atoms: C_23  and  C_24
REMARK   14  A    between atoms: C_25  and  C_28
REMARK                            x       y       z     vdW  Elec       q    Type
REMARK                         _______ _______ _______ _____ _____    ______ ____
ROOT
ATOM      8  C   UNL     1       9.496   6.085   5.985  0.00  0.00    -0.027 C 
ATOM      9  C   UNL     1      10.379   7.281   5.496  0.00  0.00    +0.028 C 
ATOM     10  C   UNL     1       9.838   8.643   6.062  0.00  0.00    +0.012 C 
ATOM     11  C   UNL     1      10.589   7.233   3.955  0.00  0.00    +0.122 C 
ATOM     12  C   UNL     1      10.120   4.753   5.504  0.00  0.00    +0.007 C 
ATOM     13  C   UNL     1       9.481   6.067   7.530  0.00  0.00    +0.009 C 
ATOM     14  C   UNL     1      11.116   5.863   3.469  0.00  0.00    +0.029 C 
ATOM     15  C   UNL     1       9.756   8.588   7.613  0.00  0.00    +0.076 C 
ATOM     16  C   UNL     1      10.291   4.688   3.992  0.00  0.00    +0.007 C 
ATOM     17  C   UNL     1       8.990   7.374   8.138  0.00  0.00    +0.023 C 
ATOM     18  C   UNL     1       8.040   6.169   5.462  0.00  0.00    +0.011 C 
ATOM     20  C   UNL     1      10.678   9.861   5.643  0.00  0.00    +0.010 C 
ENDROOT
BRANCH  15   6
ATOM      3  O   UNL     1      11.073  10.619   9.158  0.00  0.00    -0.270 OA
ATOM      6  N   UNL     1       9.153   9.783   8.162  0.00  0.00    -0.308 N 
ATOM     23  C   UNL     1       9.876  10.707   8.897  0.00  0.00    +0.244 C 
ATOM     39  H   UNL     1       8.144   9.864   8.084  0.00  0.00    +0.149 HD
BRANCH  23  24
ATOM     24  C   UNL     1       9.104  11.868   9.413  0.00  0.00    +0.037 A 
ATOM     26  C   UNL     1       8.784  12.926   8.561  0.00  0.00    +0.016 A 
ATOM     27  C   UNL     1       8.702  11.901  10.748  0.00  0.00    +0.016 A 
ATOM     29  C   UNL     1       8.063  14.016   9.045  0.00  0.00    +0.046 A 
ATOM     30  C   UNL     1       7.981  12.992  11.232  0.00  0.00    +0.046 A 
ATOM     31  C   UNL     1       7.661  14.050  10.380  0.00  0.00    +0.120 A 
BRANCH  31   4
ATOM      4  O   UNL     1       6.957  15.114  10.853  0.00  0.00    -0.495 OA
ATOM     37  C   UNL     1       5.541  15.088  10.674  0.00  0.00    +0.277 C 
ENDBRANCH  31   4
ENDBRANCH  23  24
ENDBRANCH  15   6
BRANCH  11   1
ATOM      1  O   UNL     1      11.568   8.204   3.578  0.00  0.00    -0.391 OA
ATOM     40  H   UNL     1      12.396   7.994   4.041  0.00  0.00    +0.210 HD
ENDBRANCH  11   1
BRANCH  14  19
ATOM     19  C   UNL     1      11.192   5.794   1.939  0.00  0.00    +0.077 C 
ATOM     21  C   UNL     1      10.392   4.601   1.427  0.00  0.00    +0.017 C 
BRANCH  19  22
ATOM      2  O   UNL     1      13.009   5.087   0.502  0.00  0.00    -0.276 OA
ATOM      7  N   UNL     1      13.498   6.428   2.330  0.00  0.00    -0.311 N 
ATOM     22  C   UNL     1      12.649   5.717   1.494  0.00  0.00    +0.216 C 
ATOM     41  H   UNL     1      13.116   6.967   3.101  0.00  0.00    +0.149 HD
BRANCH   7  25
ATOM     25  C   UNL     1      14.925   6.503   2.115  0.00  0.00    +0.139 C 
BRANCH  25  28
ATOM     28  C   UNL     1      15.613   7.303   3.184  0.00  0.00    -0.030 A 
ATOM     32  C   UNL     1      16.721   8.088   2.865  0.00  0.00    +0.009 A 
ATOM     33  C   UNL     1      15.142   7.260   4.496  0.00  0.00    +0.009 A 
ATOM     34  C   UNL     1      17.359   8.830   3.860  0.00  0.00    +0.046 A 
ATOM     35  C   UNL     1      15.781   8.003   5.491  0.00  0.00    +0.046 A 
ATOM     36  C   UNL     1      16.889   8.787   5.172  0.00  0.00    +0.120 A 
BRANCH  36   5
ATOM      5  O   UNL     1      17.510   9.513   6.141  0.00  0.00    -0.495 OA
ATOM     38  C   UNL     1      18.852   9.148   6.464  0.00  0.00    +0.277 C 
ENDBRANCH  36   5
ENDBRANCH  25  28
ENDBRANCH   7  25
ENDBRANCH  19  22
ENDBRANCH  14  19
TORSDOF 9
ENDMDL
MODEL 8
REMARK VINA RESULT:      -6.3     17.207     20.031
REMARK  Name = 45361382
REMARK  14 active torsions:
REMARK  status: ('A' for Active; 'I' for Inactive)
REMARK    1  A    between atoms: O_1  and  C_11
REMARK    2  A    between atoms: O_4  and  C_31
REMARK    3  A    between atoms: O_4  and  C_37
REMARK    4  A    between atoms: O_5  and  C_36
REMARK    5  A    between atoms: O_5  and  C_38
REMARK    6  A    between atoms: N_6  and  C_15
REMARK    7  A    between atoms: N_7  and  C_25
REMARK    8  A    between atoms: C_8  and  C_18
REMARK    9  A    between atoms: C_10  and  C_20
REMARK   10  A    between atoms: C_14  and  C_19
REMARK   11  A    between atoms: C_19  and  C_21
REMARK   12  A    between atoms: C_19  and  C_22
REMARK   13  A    between atoms: C_23  and  C_24
REMARK   14  A    between atoms: C_25  and  C_28
REMARK                            x       y       z     vdW  Elec       q    Type
REMARK                         _______ _______ _______ _____ _____    ______ ____
ROOT
ATOM      8  C   UNL     1     -11.773  -7.391  15.906  0.00  0.00    -0.027 C 
ATOM      9  C   UNL     1     -11.389  -8.298  14.689  0.00  0.00    +0.028 C 
ATOM     10  C   UNL     1      -9.852  -8.622  14.697  0.00  0.00    +0.012 C 
ATOM     11  C   UNL     1     -11.943  -7.716  13.357  0.00  0.00    +0.122 C 
ATOM     12  C   UNL     1     -13.306  -7.185  15.932  0.00  0.00    +0.007 C 
ATOM     13  C   UNL     1     -11.372  -8.108  17.215  0.00  0.00    +0.009 C 
ATOM     14  C   UNL     1     -13.458  -7.416  13.424  0.00  0.00    +0.029 C 
ATOM     15  C   UNL     1      -9.445  -9.273  16.049  0.00  0.00    +0.076 C 
ATOM     16  C   UNL     1     -13.847  -6.580  14.643  0.00  0.00    +0.007 C 
ATOM     17  C   UNL     1      -9.895  -8.472  17.269  0.00  0.00    +0.023 C 
ATOM     18  C   UNL     1     -11.086  -6.003  15.853  0.00  0.00    +0.011 C 
ATOM     20  C   UNL     1      -9.409  -9.534  13.542  0.00  0.00    +0.010 C 
ENDROOT
BRANCH  15   6
ATOM      3  O   UNL     1      -8.085 -11.793  16.268  0.00  0.00    -0.270 OA
ATOM      6  N   UNL     1      -8.015  -9.479  16.137  0.00  0.00    -0.308 N 
ATOM     23  C   UNL     1      -7.454 -10.740  16.241  0.00  0.00    +0.244 C 
ATOM     39  H   UNL     1      -7.439  -8.650  16.235  0.00  0.00    +0.149 HD
BRANCH  23  24
ATOM     24  C   UNL     1      -5.972 -10.780  16.348  0.00  0.00    +0.037 A 
ATOM     26  C   UNL     1      -5.184 -10.519  15.226  0.00  0.00    +0.016 A 
ATOM     27  C   UNL     1      -5.368 -11.081  17.569  0.00  0.00    +0.016 A 
ATOM     29  C   UNL     1      -3.794 -10.559  15.326  0.00  0.00    +0.046 A 
ATOM     30  C   UNL     1      -3.978 -11.121  17.668  0.00  0.00    +0.046 A 
ATOM     31  C   UNL     1      -3.191 -10.860  16.546  0.00  0.00    +0.120 A 
BRANCH  31   4
ATOM      4  O   UNL     1      -1.834 -10.899  16.644  0.00  0.00    -0.495 OA
ATOM     37  C   UNL     1      -1.089 -10.624  15.458  0.00  0.00    +0.277 C 
ENDBRANCH  31   4
ENDBRANCH  23  24
ENDBRANCH  15   6
BRANCH  11   1
ATOM      1  O   UNL     1     -11.762  -8.671  12.309  0.00  0.00    -0.391 OA
ATOM     40  H   UNL     1     -11.907  -9.558  12.680  0.00  0.00    +0.210 HD
ENDBRANCH  11   1
BRANCH  14  19
ATOM     19  C   UNL     1     -13.958  -6.725  12.149  0.00  0.00    +0.077 C 
ATOM     21  C   UNL     1     -14.288  -7.764  11.083  0.00  0.00    +0.017 C 
BRANCH  19  22
ATOM      2  O   UNL     1     -12.620  -4.709  12.266  0.00  0.00    -0.276 OA
ATOM      7  N   UNL     1     -12.343  -6.120  10.446  0.00  0.00    -0.311 N 
ATOM     22  C   UNL     1     -12.911  -5.733  11.651  0.00  0.00    +0.216 C 
ATOM     41  H   UNL     1     -12.599  -7.007  10.027  0.00  0.00    +0.149 HD
BRANCH   7  25
ATOM     25  C   UNL     1     -11.328  -5.341   9.775  0.00  0.00    +0.139 C 
BRANCH  25  28
ATOM     28  C   UNL     1     -10.304  -6.212   9.105  0.00  0.00    -0.030 A 
ATOM     32  C   UNL     1      -9.275  -5.634   8.361  0.00  0.00    +0.009 A 
ATOM     33  C   UNL     1     -10.382  -7.599   9.228  0.00  0.00    +0.009 A 
ATOM     34  C   UNL     1      -8.324  -6.444   7.739  0.00  0.00    +0.046 A 
ATOM     35  C   UNL     1      -9.431  -8.409   8.606  0.00  0.00    +0.046 A 
ATOM     36  C   UNL     1      -8.403  -7.831   7.861  0.00  0.00    +0.120 A 
BRANCH  36   5
ATOM      5  O   UNL     1      -7.475  -8.621   7.256  0.00  0.00    -0.495 OA
ATOM     38  C   UNL     1      -7.421  -8.581   5.830  0.00  0.00    +0.277 C 
ENDBRANCH  36   5
ENDBRANCH  25  28
ENDBRANCH   7  25
ENDBRANCH  19  22
ENDBRANCH  14  19
TORSDOF 9
ENDMDL
MODEL 9
REMARK VINA RESULT:      -6.3     20.757     23.256
REMARK  Name = 45361382
REMARK  14 active torsions:
REMARK  status: ('A' for Active; 'I' for Inactive)
REMARK    1  A    between atoms: O_1  and  C_11
REMARK    2  A    between atoms: O_4  and  C_31
REMARK    3  A    between atoms: O_4  and  C_37
REMARK    4  A    between atoms: O_5  and  C_36
REMARK    5  A    between atoms: O_5  and  C_38
REMARK    6  A    between atoms: N_6  and  C_15
REMARK    7  A    between atoms: N_7  and  C_25
REMARK    8  A    between atoms: C_8  and  C_18
REMARK    9  A    between atoms: C_10  and  C_20
REMARK   10  A    between atoms: C_14  and  C_19
REMARK   11  A    between atoms: C_19  and  C_21
REMARK   12  A    between atoms: C_19  and  C_22
REMARK   13  A    between atoms: C_23  and  C_24
REMARK   14  A    between atoms: C_25  and  C_28
REMARK                            x       y       z     vdW  Elec       q    Type
REMARK                         _______ _______ _______ _____ _____    ______ ____
ROOT
ATOM      8  C   UNL     1      -5.243 -11.728   8.076  0.00  0.00    -0.027 C 
ATOM      9  C   UNL     1      -5.532 -10.252   8.511  0.00  0.00    +0.028 C 
ATOM     10  C   UNL     1      -5.699 -10.151  10.070  0.00  0.00    +0.012 C 
ATOM     11  C   UNL     1      -6.688  -9.635   7.673  0.00  0.00    +0.122 C 
ATOM     12  C   UNL     1      -4.972 -11.774   6.554  0.00  0.00    +0.007 C 
ATOM     13  C   UNL     1      -3.968 -12.225   8.796  0.00  0.00    +0.009 C 
ATOM     14  C   UNL     1      -6.461  -9.776   6.150  0.00  0.00    +0.029 C 
ATOM     15  C   UNL     1      -4.443 -10.723  10.785  0.00  0.00    +0.076 C 
ATOM     16  C   UNL     1      -6.119 -11.205   5.728  0.00  0.00    +0.007 C 
ATOM     17  C   UNL     1      -4.061 -12.126  10.313  0.00  0.00    +0.023 C 
ATOM     18  C   UNL     1      -6.418 -12.684   8.401  0.00  0.00    +0.011 C 
ATOM     20  C   UNL     1      -5.958  -8.721  10.569  0.00  0.00    +0.010 C 
ENDROOT
BRANCH  15   6
ATOM      3  O   UNL     1      -2.418 -10.218  12.757  0.00  0.00    -0.270 OA
ATOM      6  N   UNL     1      -4.610 -10.753  12.222  0.00  0.00    -0.308 N 
ATOM     23  C   UNL     1      -3.567 -10.494  13.094  0.00  0.00    +0.244 C 
ATOM     39  H   UNL     1      -5.502 -11.086  12.572  0.00  0.00    +0.149 HD
BRANCH  23  24
ATOM     24  C   UNL     1      -3.896 -10.590  14.540  0.00  0.00    +0.037 A 
ATOM     26  C   UNL     1      -2.895 -10.892  15.464  0.00  0.00    +0.016 A 
ATOM     27  C   UNL     1      -5.205 -10.381  14.973  0.00  0.00    +0.016 A 
ATOM     29  C   UNL     1      -3.204 -10.984  16.821  0.00  0.00    +0.046 A 
ATOM     30  C   UNL     1      -5.513 -10.473  16.330  0.00  0.00    +0.046 A 
ATOM     31  C   UNL     1      -4.513 -10.775  17.254  0.00  0.00    +0.120 A 
BRANCH  31   4
ATOM      4  O   UNL     1      -4.814 -10.865  18.578  0.00  0.00    -0.495 OA
ATOM     37  C   UNL     1      -4.202 -11.924  19.313  0.00  0.00    +0.277 C 
ENDBRANCH  31   4
ENDBRANCH  23  24
ENDBRANCH  15   6
BRANCH  11   1
ATOM      1  O   UNL     1      -6.778  -8.235   7.944  0.00  0.00    -0.391 OA
ATOM     40  H   UNL     1      -7.247  -7.813   7.204  0.00  0.00    +0.210 HD
ENDBRANCH  11   1
BRANCH  14  19
ATOM     19  C   UNL     1      -7.668  -9.280   5.346  0.00  0.00    +0.077 C 
ATOM     21  C   UNL     1      -7.506  -7.800   5.014  0.00  0.00    +0.017 C 
BRANCH  19  22
ATOM      2  O   UNL     1      -9.479 -10.644   6.197  0.00  0.00    -0.276 OA
ATOM      7  N   UNL     1      -9.445  -8.388   6.732  0.00  0.00    -0.311 N 
ATOM     22  C   UNL     1      -8.953  -9.535   6.127  0.00  0.00    +0.216 C 
ATOM     41  H   UNL     1      -8.923  -7.519   6.670  0.00  0.00    +0.149 HD
BRANCH   7  25
ATOM     25  C   UNL     1     -10.652  -8.378   7.526  0.00  0.00    +0.139 C 
BRANCH  25  28
ATOM     28  C   UNL     1     -10.833  -7.079   8.257  0.00  0.00    -0.030 A 
ATOM     32  C   UNL     1     -11.736  -6.994   9.317  0.00  0.00    +0.009 A 
ATOM     33  C   UNL     1     -10.096  -5.958   7.878  0.00  0.00    +0.009 A 
ATOM     34  C   UNL     1     -11.903  -5.787   9.996  0.00  0.00    +0.046 A 
ATOM     35  C   UNL     1     -10.263  -4.750   8.557  0.00  0.00    +0.046 A 
ATOM     36  C   UNL     1     -11.166  -4.665   9.616  0.00  0.00    +0.120 A 
BRANCH  36   5
ATOM      5  O   UNL     1     -11.328  -3.488  10.279  0.00  0.00    -0.495 OA
ATOM     38  C   UNL     1     -12.156  -3.507  11.441  0.00  0.00    +0.277 C 
ENDBRANCH  36   5
ENDBRANCH  25  28
ENDBRANCH   7  25
ENDBRANCH  19  22
ENDBRANCH  14  19
TORSDOF 9
ENDMDL
MODEL 10
REMARK VINA RESULT:      -6.3     23.235     26.608
REMARK  Name = 45361382
REMARK  14 active torsions:
REMARK  status: ('A' for Active; 'I' for Inactive)
REMARK    1  A    between atoms: O_1  and  C_11
REMARK    2  A    between atoms: O_4  and  C_31
REMARK    3  A    between atoms: O_4  and  C_37
REMARK    4  A    between atoms: O_5  and  C_36
REMARK    5  A    between atoms: O_5  and  C_38
REMARK    6  A    between atoms: N_6  and  C_15
REMARK    7  A    between atoms: N_7  and  C_25
REMARK    8  A    between atoms: C_8  and  C_18
REMARK    9  A    between atoms: C_10  and  C_20
REMARK   10  A    between atoms: C_14  and  C_19
REMARK   11  A    between atoms: C_19  and  C_21
REMARK   12  A    between atoms: C_19  and  C_22
REMARK   13  A    between atoms: C_23  and  C_24
REMARK   14  A    between atoms: C_25  and  C_28
REMARK                            x       y       z     vdW  Elec       q    Type
REMARK                         _______ _______ _______ _____ _____    ______ ____
ROOT
ATOM      8  C   UNL     1      -8.903  -7.981   7.527  0.00  0.00    -0.027 C 
ATOM      9  C   UNL     1      -7.794  -8.893   6.903  0.00  0.00    +0.028 C 
ATOM     10  C   UNL     1      -6.583  -9.054   7.891  0.00  0.00    +0.012 C 
ATOM     11  C   UNL     1      -7.427  -8.429   5.464  0.00  0.00    +0.122 C 
ATOM     12  C   UNL     1     -10.126  -7.935   6.580  0.00  0.00    +0.007 C 
ATOM     13  C   UNL     1      -9.368  -8.597   8.866  0.00  0.00    +0.009 C 
ATOM     14  C   UNL     1      -8.667  -8.285   4.551  0.00  0.00    +0.029 C 
ATOM     15  C   UNL     1      -7.072  -9.603   9.260  0.00  0.00    +0.076 C 
ATOM     16  C   UNL     1      -9.777  -7.444   5.181  0.00  0.00    +0.007 C 
ATOM     17  C   UNL     1      -8.229  -8.802   9.857  0.00  0.00    +0.023 C 
ATOM     18  C   UNL     1      -8.411  -6.532   7.775  0.00  0.00    +0.011 C 
ATOM     20  C   UNL     1      -5.466  -9.963   7.351  0.00  0.00    +0.010 C 
ENDROOT
BRANCH  15   6
ATOM      3  O   UNL     1      -5.907 -11.965  10.403  0.00  0.00    -0.270 OA
ATOM      6  N   UNL     1      -6.001  -9.655  10.232  0.00  0.00    -0.308 N 
ATOM     23  C   UNL     1      -5.507 -10.850  10.725  0.00  0.00    +0.244 C 
ATOM     39  H   UNL     1      -5.700  -8.771  10.628  0.00  0.00    +0.149 HD
BRANCH  23  24
ATOM     24  C   UNL     1      -4.424 -10.732  11.736  0.00  0.00    +0.037 A 
ATOM     26  C   UNL     1      -3.111 -10.498  11.327  0.00  0.00    +0.016 A 
ATOM     27  C   UNL     1      -4.720 -10.857  13.093  0.00  0.00    +0.016 A 
ATOM     29  C   UNL     1      -2.094 -10.390  12.276  0.00  0.00    +0.046 A 
ATOM     30  C   UNL     1      -3.703 -10.749  14.041  0.00  0.00    +0.046 A 
ATOM     31  C   UNL     1      -2.390 -10.515  13.632  0.00  0.00    +0.120 A 
BRANCH  31   4
ATOM      4  O   UNL     1      -1.398 -10.410  14.558  0.00  0.00    -0.495 OA
ATOM     37  C   UNL     1      -1.784 -10.448  15.932  0.00  0.00    +0.277 C 
ENDBRANCH  31   4
ENDBRANCH  23  24
ENDBRANCH  15   6
BRANCH  11   1
ATOM      1  O   UNL     1      -6.579  -9.403   4.852  0.00  0.00    -0.391 OA
ATOM     40  H   UNL     1      -6.428  -9.135   3.930  0.00  0.00    +0.210 HD
ENDBRANCH  11   1
BRANCH  14  19
ATOM     19  C   UNL     1      -8.299  -7.704   3.181  0.00  0.00    +0.077 C 
ATOM     21  C   UNL     1      -9.336  -6.671   2.754  0.00  0.00    +0.017 C 
BRANCH  19  22
ATOM      2  O   UNL     1      -7.805  -9.960   2.450  0.00  0.00    -0.276 OA
ATOM      7  N   UNL     1      -8.538  -8.420   0.878  0.00  0.00    -0.311 N 
ATOM     22  C   UNL     1      -8.180  -8.827   2.155  0.00  0.00    +0.216 C 
ATOM     41  H   UNL     1      -8.888  -7.480   0.725  0.00  0.00    +0.149 HD
BRANCH   7  25
ATOM     25  C   UNL     1      -8.506  -9.306  -0.263  0.00  0.00    +0.139 C 
BRANCH  25  28
ATOM     28  C   UNL     1      -9.332  -8.785  -1.403  0.00  0.00    -0.030 A 
ATOM     32  C   UNL     1     -10.514  -8.089  -1.147  0.00  0.00    +0.009 A 
ATOM     33  C   UNL     1      -8.917  -8.995  -2.717  0.00  0.00    +0.009 A 
ATOM     34  C   UNL     1     -11.281  -7.605  -2.207  0.00  0.00    +0.046 A 
ATOM     35  C   UNL     1      -9.684  -8.510  -3.778  0.00  0.00    +0.046 A 
ATOM     36  C   UNL     1     -10.866  -7.816  -3.522  0.00  0.00    +0.120 A 
BRANCH  36   5
ATOM      5  O   UNL     1     -11.614  -7.342  -4.556  0.00  0.00    -0.495 OA
ATOM     38  C   UNL     1     -11.962  -5.958  -4.524  0.00  0.00    +0.277 C 
ENDBRANCH  36   5
ENDBRANCH  25  28
ENDBRANCH   7  25
ENDBRANCH  19  22
ENDBRANCH  14  19
TORSDOF 9
ENDMDL
