MODEL 1
REMARK VINA RESULT:      -7.0      0.000      0.000
REMARK  Name = 75536291
REMARK  9 active torsions:
REMARK  status: ('A' for Active; 'I' for Inactive)
REMARK    1  A    between atoms: O_2  and  C_9
REMARK    2  A    between atoms: O_4  and  C_23
REMARK    3  A    between atoms: O_4  and  C_24
REMARK    4  A    between atoms: N_5  and  C_7
REMARK    5  A    between atoms: N_5  and  C_12
REMARK    6  A    between atoms: C_8  and  C_12
REMARK    7  A    between atoms: C_13  and  C_19
REMARK    8  A    between atoms: C_19  and  C_20
REMARK    9  A    between atoms: C_22  and  C_23
REMARK                            x       y       z     vdW  Elec       q    Type
REMARK                         _______ _______ _______ _____ _____    ______ ____
ROOT
ATOM      1  O   UNL     1      10.692   8.333  19.740  0.00  0.00    -0.369 OA
ATOM      8  C   UNL     1      10.911   8.194  21.150  0.00  0.00    +0.161 C 
ATOM      9  C   UNL     1      11.717   6.929  21.468  0.00  0.00    +0.145 C 
ATOM     13  C   UNL     1      11.875   8.324  18.937  0.00  0.00    +0.125 C 
ATOM     14  C   UNL     1      12.974   6.808  20.611  0.00  0.00    +0.036 C 
ATOM     15  C   UNL     1      12.650   7.023  19.135  0.00  0.00    +0.034 C 
ENDROOT
BRANCH   9   2
ATOM      2  O   UNL     1      10.899   5.784  21.206  0.00  0.00    -0.389 OA
ATOM     26  H   UNL     1      10.268   6.028  20.507  0.00  0.00    +0.210 HD
ENDBRANCH   9   2
BRANCH   8  12
ATOM     12  C   UNL     1      11.533   9.461  21.738  0.00  0.00    +0.115 C 
BRANCH  12   5
ATOM      5  N   UNL     1      11.276   9.550  23.166  0.00  0.00    -0.311 NA
ATOM     25  H   UNL     1      12.146   9.377  23.668  0.00  0.00    +0.122 HD
BRANCH   5   7
ATOM      7  C   UNL     1      10.753  10.868  23.522  0.00  0.00    +0.054 C 
ATOM     10  C   UNL     1      11.173  11.898  22.467  0.00  0.00    +0.019 C 
ATOM     11  C   UNL     1      11.254  11.268  24.915  0.00  0.00    +0.019 C 
ATOM     16  C   UNL     1      10.708  13.303  22.846  0.00  0.00    +0.002 C 
ATOM     17  C   UNL     1      10.790  12.675  25.290  0.00  0.00    +0.002 C 
ATOM     18  C   UNL     1      11.195  13.701  24.236  0.00  0.00    +0.000 C 
ENDBRANCH   5   7
ENDBRANCH  12   5
ENDBRANCH   8  12
BRANCH  13  19
ATOM     19  C   UNL     1      11.444   8.483  17.484  0.00  0.00    +0.090 C 
BRANCH  19  20
ATOM      3  O   UNL     1      13.483   9.986  14.921  0.00  0.00    -0.357 OA
ATOM      6  N   UNL     1      12.406   9.213  15.341  0.00  0.00    -0.083 NA
ATOM     20  C   UNL     1      12.472   9.227  16.675  0.00  0.00    +0.086 A 
ATOM     21  C   UNL     1      13.557   9.985  17.149  0.00  0.00    +0.073 A 
ATOM     22  C   UNL     1      14.160  10.439  16.007  0.00  0.00    +0.163 A 
BRANCH  22  23
ATOM     23  C   UNL     1      15.335  11.278  15.742  0.00  0.00    +0.236 C 
BRANCH  23   4
ATOM      4  O   UNL     1      15.697  12.011  16.915  0.00  0.00    -0.375 OA
ATOM     24  C   UNL     1      16.343  13.229  16.581  0.00  0.00    +0.194 C 
ENDBRANCH  23   4
ENDBRANCH  22  23
ENDBRANCH  19  20
ENDBRANCH  13  19
TORSDOF 8
ENDMDL
MODEL 2
REMARK VINA RESULT:      -6.0     17.099     20.632
REMARK  Name = 75536291
REMARK  9 active torsions:
REMARK  status: ('A' for Active; 'I' for Inactive)
REMARK    1  A    between atoms: O_2  and  C_9
REMARK    2  A    between atoms: O_4  and  C_23
REMARK    3  A    between atoms: O_4  and  C_24
REMARK    4  A    between atoms: N_5  and  C_7
REMARK    5  A    between atoms: N_5  and  C_12
REMARK    6  A    between atoms: C_8  and  C_12
REMARK    7  A    between atoms: C_13  and  C_19
REMARK    8  A    between atoms: C_19  and  C_20
REMARK    9  A    between atoms: C_22  and  C_23
REMARK                            x       y       z     vdW  Elec       q    Type
REMARK                         _______ _______ _______ _____ _____    ______ ____
ROOT
ATOM      1  O   UNL     1      12.899   2.824   0.451  0.00  0.00    -0.369 OA
ATOM      8  C   UNL     1      13.163   3.492   1.691  0.00  0.00    +0.161 C 
ATOM      9  C   UNL     1      14.559   4.128   1.698  0.00  0.00    +0.145 C 
ATOM     13  C   UNL     1      13.043   3.634  -0.719  0.00  0.00    +0.125 C 
ATOM     14  C   UNL     1      14.821   4.968   0.451  0.00  0.00    +0.036 C 
ATOM     15  C   UNL     1      14.461   4.193  -0.815  0.00  0.00    +0.034 C 
ENDROOT
BRANCH   9   2
ATOM      2  O   UNL     1      15.539   3.086   1.735  0.00  0.00    -0.389 OA
ATOM     26  H   UNL     1      15.066   2.237   1.726  0.00  0.00    +0.210 HD
ENDBRANCH   9   2
BRANCH   8  12
ATOM     12  C   UNL     1      12.053   4.487   2.028  0.00  0.00    +0.115 C 
BRANCH  12   5
ATOM      5  N   UNL     1      11.302   4.051   3.194  0.00  0.00    -0.311 NA
ATOM     25  H   UNL     1      11.924   3.527   3.809  0.00  0.00    +0.122 HD
BRANCH   5   7
ATOM      7  C   UNL     1      10.743   5.194   3.914  0.00  0.00    +0.054 C 
ATOM     10  C   UNL     1       9.814   4.703   5.031  0.00  0.00    +0.019 C 
ATOM     11  C   UNL     1       9.998   6.111   2.939  0.00  0.00    +0.019 C 
ATOM     16  C   UNL     1       9.151   5.872   5.757  0.00  0.00    +0.002 C 
ATOM     17  C   UNL     1       9.334   7.278   3.668  0.00  0.00    +0.002 C 
ATOM     18  C   UNL     1       8.417   6.793   4.788  0.00  0.00    +0.000 C 
ENDBRANCH   5   7
ENDBRANCH  12   5
ENDBRANCH   8  12
BRANCH  13  19
ATOM     19  C   UNL     1      12.723   2.758  -1.924  0.00  0.00    +0.090 C 
BRANCH  19  20
ATOM      3  O   UNL     1       9.348   2.791  -3.189  0.00  0.00    -0.357 OA
ATOM      6  N   UNL     1      10.439   2.153  -2.611  0.00  0.00    -0.083 NA
ATOM     20  C   UNL     1      11.381   3.096  -2.517  0.00  0.00    +0.086 A 
ATOM     21  C   UNL     1      10.947   4.336  -3.015  0.00  0.00    +0.073 A 
ATOM     22  C   UNL     1       9.663   4.091  -3.425  0.00  0.00    +0.163 A 
BRANCH  22  23
ATOM     23  C   UNL     1       8.617   4.917  -4.038  0.00  0.00    +0.236 C 
BRANCH  23   4
ATOM      4  O   UNL     1       8.055   5.807  -3.070  0.00  0.00    -0.375 OA
ATOM     24  C   UNL     1       8.358   7.158  -3.376  0.00  0.00    +0.194 C 
ENDBRANCH  23   4
ENDBRANCH  22  23
ENDBRANCH  19  20
ENDBRANCH  13  19
TORSDOF 8
ENDMDL
MODEL 3
REMARK VINA RESULT:      -6.0     26.450     28.172
REMARK  Name = 75536291
REMARK  9 active torsions:
REMARK  status: ('A' for Active; 'I' for Inactive)
REMARK    1  A    between atoms: O_2  and  C_9
REMARK    2  A    between atoms: O_4  and  C_23
REMARK    3  A    between atoms: O_4  and  C_24
REMARK    4  A    between atoms: N_5  and  C_7
REMARK    5  A    between atoms: N_5  and  C_12
REMARK    6  A    between atoms: C_8  and  C_12
REMARK    7  A    between atoms: C_13  and  C_19
REMARK    8  A    between atoms: C_19  and  C_20
REMARK    9  A    between atoms: C_22  and  C_23
REMARK                            x       y       z     vdW  Elec       q    Type
REMARK                         _______ _______ _______ _____ _____    ______ ____
ROOT
ATOM      1  O   UNL     1      -2.388 -11.421  15.574  0.00  0.00    -0.369 OA
ATOM      8  C   UNL     1      -1.958 -11.794  14.258  0.00  0.00    +0.161 C 
ATOM      9  C   UNL     1      -2.588 -13.122  13.820  0.00  0.00    +0.145 C 
ATOM     13  C   UNL     1      -3.805 -11.341  15.751  0.00  0.00    +0.125 C 
ATOM     14  C   UNL     1      -4.099 -13.146  14.029  0.00  0.00    +0.036 C 
ATOM     15  C   UNL     1      -4.463 -12.683  15.438  0.00  0.00    +0.034 C 
ENDROOT
BRANCH   9   2
ATOM      2  O   UNL     1      -2.023 -14.179  14.601  0.00  0.00    -0.389 OA
ATOM     26  H   UNL     1      -2.071 -14.993  14.072  0.00  0.00    +0.210 HD
ENDBRANCH   9   2
BRANCH   8  12
ATOM     12  C   UNL     1      -2.197 -10.662  13.259  0.00  0.00    +0.115 C 
BRANCH  12   5
ATOM      5  N   UNL     1      -2.227 -11.171  11.897  0.00  0.00    -0.311 NA
ATOM     25  H   UNL     1      -2.307 -12.187  11.927  0.00  0.00    +0.122 HD
BRANCH   5   7
ATOM      7  C   UNL     1      -3.353 -10.608  11.153  0.00  0.00    +0.054 C 
ATOM     10  C   UNL     1      -2.874  -9.432  10.294  0.00  0.00    +0.019 C 
ATOM     11  C   UNL     1      -4.453 -10.170  12.125  0.00  0.00    +0.019 C 
ATOM     16  C   UNL     1      -4.038  -8.770   9.559  0.00  0.00    +0.002 C 
ATOM     17  C   UNL     1      -5.615  -9.505  11.389  0.00  0.00    +0.002 C 
ATOM     18  C   UNL     1      -5.141  -8.342  10.523  0.00  0.00    +0.000 C 
ENDBRANCH   5   7
ENDBRANCH  12   5
ENDBRANCH   8  12
BRANCH  13  19
ATOM     19  C   UNL     1      -4.064 -10.933  17.196  0.00  0.00    +0.090 C 
BRANCH  19  20
ATOM      3  O   UNL     1      -7.352 -10.045  18.375  0.00  0.00    -0.357 OA
ATOM      6  N   UNL     1      -6.112 -10.655  18.530  0.00  0.00    -0.083 NA
ATOM     20  C   UNL     1      -5.464 -10.415  17.387  0.00  0.00    +0.086 A 
ATOM     21  C   UNL     1      -6.236  -9.666  16.482  0.00  0.00    +0.073 A 
ATOM     22  C   UNL     1      -7.413  -9.460  17.151  0.00  0.00    +0.163 A 
BRANCH  22  23
ATOM     23  C   UNL     1      -8.663  -8.766  16.820  0.00  0.00    +0.236 C 
BRANCH  23   4
ATOM      4  O   UNL     1      -9.707  -9.170  17.710  0.00  0.00    -0.375 OA
ATOM     24  C   UNL     1     -10.897  -8.436  17.473  0.00  0.00    +0.194 C 
ENDBRANCH  23   4
ENDBRANCH  22  23
ENDBRANCH  19  20
ENDBRANCH  13  19
TORSDOF 8
ENDMDL
MODEL 4
REMARK VINA RESULT:      -5.8      3.704      6.038
REMARK  Name = 75536291
REMARK  9 active torsions:
REMARK  status: ('A' for Active; 'I' for Inactive)
REMARK    1  A    between atoms: O_2  and  C_9
REMARK    2  A    between atoms: O_4  and  C_23
REMARK    3  A    between atoms: O_4  and  C_24
REMARK    4  A    between atoms: N_5  and  C_7
REMARK    5  A    between atoms: N_5  and  C_12
REMARK    6  A    between atoms: C_8  and  C_12
REMARK    7  A    between atoms: C_13  and  C_19
REMARK    8  A    between atoms: C_19  and  C_20
REMARK    9  A    between atoms: C_22  and  C_23
REMARK                            x       y       z     vdW  Elec       q    Type
REMARK                         _______ _______ _______ _____ _____    ______ ____
ROOT
ATOM      1  O   UNL     1      15.221   8.512  19.459  0.00  0.00    -0.369 OA
ATOM      8  C   UNL     1      14.882   7.134  19.254  0.00  0.00    +0.161 C 
ATOM      9  C   UNL     1      15.975   6.203  19.794  0.00  0.00    +0.145 C 
ATOM     13  C   UNL     1      15.508   8.873  20.813  0.00  0.00    +0.125 C 
ATOM     14  C   UNL     1      16.384   6.555  21.221  0.00  0.00    +0.036 C 
ATOM     15  C   UNL     1      16.674   8.048  21.354  0.00  0.00    +0.034 C 
ENDROOT
BRANCH   9   2
ATOM      2  O   UNL     1      17.134   6.325  18.965  0.00  0.00    -0.389 OA
ATOM     26  H   UNL     1      17.127   5.581  18.339  0.00  0.00    +0.210 HD
ENDBRANCH   9   2
BRANCH   8  12
ATOM     12  C   UNL     1      13.497   6.818  19.817  0.00  0.00    +0.115 C 
BRANCH  12   5
ATOM      5  N   UNL     1      12.470   7.584  19.128  0.00  0.00    -0.311 NA
ATOM     25  H   UNL     1      11.956   6.960  18.508  0.00  0.00    +0.122 HD
BRANCH   5   7
ATOM      7  C   UNL     1      11.551   8.202  20.082  0.00  0.00    +0.054 C 
ATOM     10  C   UNL     1      12.042   9.609  20.442  0.00  0.00    +0.019 C 
ATOM     11  C   UNL     1      11.427   7.323  21.331  0.00  0.00    +0.019 C 
ATOM     16  C   UNL     1      11.146  10.258  21.496  0.00  0.00    +0.002 C 
ATOM     17  C   UNL     1      10.533   7.975  22.385  0.00  0.00    +0.002 C 
ATOM     18  C   UNL     1      11.011   9.381  22.737  0.00  0.00    +0.000 C 
ENDBRANCH   5   7
ENDBRANCH  12   5
ENDBRANCH   8  12
BRANCH  13  19
ATOM     19  C   UNL     1      15.840  10.359  20.830  0.00  0.00    +0.090 C 
BRANCH  19  20
ATOM      3  O   UNL     1      13.856  12.730  22.683  0.00  0.00    -0.357 OA
ATOM      6  N   UNL     1      14.588  12.345  21.565  0.00  0.00    -0.083 NA
ATOM     20  C   UNL     1      15.006  11.106  21.836  0.00  0.00    +0.086 A 
ATOM     21  C   UNL     1      14.574  10.659  23.097  0.00  0.00    +0.073 A 
ATOM     22  C   UNL     1      13.856  11.717  23.588  0.00  0.00    +0.163 A 
BRANCH  22  23
ATOM     23  C   UNL     1      13.124  11.957  24.837  0.00  0.00    +0.236 C 
BRANCH  23   4
ATOM      4  O   UNL     1      13.901  11.528  25.959  0.00  0.00    -0.375 OA
ATOM     24  C   UNL     1      14.812  12.536  26.368  0.00  0.00    +0.194 C 
ENDBRANCH  23   4
ENDBRANCH  22  23
ENDBRANCH  19  20
ENDBRANCH  13  19
TORSDOF 8
ENDMDL
MODEL 5
REMARK VINA RESULT:      -5.6     25.973     27.509
REMARK  Name = 75536291
REMARK  9 active torsions:
REMARK  status: ('A' for Active; 'I' for Inactive)
REMARK    1  A    between atoms: O_2  and  C_9
REMARK    2  A    between atoms: O_4  and  C_23
REMARK    3  A    between atoms: O_4  and  C_24
REMARK    4  A    between atoms: N_5  and  C_7
REMARK    5  A    between atoms: N_5  and  C_12
REMARK    6  A    between atoms: C_8  and  C_12
REMARK    7  A    between atoms: C_13  and  C_19
REMARK    8  A    between atoms: C_19  and  C_20
REMARK    9  A    between atoms: C_22  and  C_23
REMARK                            x       y       z     vdW  Elec       q    Type
REMARK                         _______ _______ _______ _____ _____    ______ ____
ROOT
ATOM      1  O   UNL     1      -4.006 -11.584  12.845  0.00  0.00    -0.369 OA
ATOM      8  C   UNL     1      -4.065 -11.476  14.273  0.00  0.00    +0.161 C 
ATOM      9  C   UNL     1      -2.664 -11.337  14.881  0.00  0.00    +0.145 C 
ATOM     13  C   UNL     1      -3.319 -10.519  12.182  0.00  0.00    +0.125 C 
ATOM     14  C   UNL     1      -1.836 -10.255  14.193  0.00  0.00    +0.036 C 
ATOM     15  C   UNL     1      -1.877 -10.420  12.675  0.00  0.00    +0.034 C 
ENDROOT
BRANCH   9   2
ATOM      2  O   UNL     1      -1.971 -12.579  14.730  0.00  0.00    -0.389 OA
ATOM     26  H   UNL     1      -2.153 -13.115  15.521  0.00  0.00    +0.210 HD
ENDBRANCH   9   2
BRANCH   8  12
ATOM     12  C   UNL     1      -5.015 -10.360  14.702  0.00  0.00    +0.115 C 
BRANCH  12   5
ATOM      5  N   UNL     1      -4.705  -9.903  16.047  0.00  0.00    -0.311 NA
ATOM     25  H   UNL     1      -4.954  -8.917  16.125  0.00  0.00    +0.122 HD
BRANCH   5   7
ATOM      7  C   UNL     1      -5.439 -10.678  17.046  0.00  0.00    +0.054 C 
ATOM     10  C   UNL     1      -6.651  -9.878  17.538  0.00  0.00    +0.019 C 
ATOM     11  C   UNL     1      -4.509 -11.043  18.209  0.00  0.00    +0.019 C 
ATOM     16  C   UNL     1      -7.401 -10.626  18.640  0.00  0.00    +0.002 C 
ATOM     17  C   UNL     1      -5.261 -11.788  19.310  0.00  0.00    +0.002 C 
ATOM     18  C   UNL     1      -6.476 -11.001  19.794  0.00  0.00    +0.000 C 
ENDBRANCH   5   7
ENDBRANCH  12   5
ENDBRANCH   8  12
BRANCH  13  19
ATOM     19  C   UNL     1      -3.363 -10.806  10.687  0.00  0.00    +0.090 C 
BRANCH  19  20
ATOM      3  O   UNL     1      -5.496  -8.169   9.467  0.00  0.00    -0.357 OA
ATOM      6  N   UNL     1      -4.480  -8.651  10.284  0.00  0.00    -0.083 NA
ATOM     20  C   UNL     1      -4.382  -9.949   9.984  0.00  0.00    +0.086 A 
ATOM     21  C   UNL     1      -5.300 -10.339   8.995  0.00  0.00    +0.073 A 
ATOM     22  C   UNL     1      -5.976  -9.184   8.705  0.00  0.00    +0.163 A 
BRANCH  22  23
ATOM     23  C   UNL     1      -7.062  -8.848   7.777  0.00  0.00    +0.236 C 
BRANCH  23   4
ATOM      4  O   UNL     1      -7.916  -7.853   8.350  0.00  0.00    -0.375 OA
ATOM     24  C   UNL     1      -8.186  -6.813   7.426  0.00  0.00    +0.194 C 
ENDBRANCH  23   4
ENDBRANCH  22  23
ENDBRANCH  19  20
ENDBRANCH  13  19
TORSDOF 8
ENDMDL
MODEL 6
REMARK VINA RESULT:      -5.6     26.163     28.381
REMARK  Name = 75536291
REMARK  9 active torsions:
REMARK  status: ('A' for Active; 'I' for Inactive)
REMARK    1  A    between atoms: O_2  and  C_9
REMARK    2  A    between atoms: O_4  and  C_23
REMARK    3  A    between atoms: O_4  and  C_24
REMARK    4  A    between atoms: N_5  and  C_7
REMARK    5  A    between atoms: N_5  and  C_12
REMARK    6  A    between atoms: C_8  and  C_12
REMARK    7  A    between atoms: C_13  and  C_19
REMARK    8  A    between atoms: C_19  and  C_20
REMARK    9  A    between atoms: C_22  and  C_23
REMARK                            x       y       z     vdW  Elec       q    Type
REMARK                         _______ _______ _______ _____ _____    ______ ____
ROOT
ATOM      1  O   UNL     1      -2.198 -10.698  13.884  0.00  0.00    -0.369 OA
ATOM      8  C   UNL     1      -2.207 -11.225  12.551  0.00  0.00    +0.161 C 
ATOM      9  C   UNL     1      -2.306 -12.755  12.556  0.00  0.00    +0.145 C 
ATOM     13  C   UNL     1      -3.306 -11.087  14.700  0.00  0.00    +0.125 C 
ATOM     14  C   UNL     1      -3.433 -13.263  13.451  0.00  0.00    +0.036 C 
ATOM     15  C   UNL     1      -3.372 -12.608  14.829  0.00  0.00    +0.034 C 
ENDROOT
BRANCH   9   2
ATOM      2  O   UNL     1      -1.077 -13.294  13.053  0.00  0.00    -0.389 OA
ATOM     26  H   UNL     1      -0.397 -12.604  12.966  0.00  0.00    +0.210 HD
ENDBRANCH   9   2
BRANCH   8  12
ATOM     12  C   UNL     1      -3.292 -10.560  11.704  0.00  0.00    +0.115 C 
BRANCH  12   5
ATOM      5  N   UNL     1      -2.707  -9.635  10.746  0.00  0.00    -0.311 NA
ATOM     25  H   UNL     1      -1.925 -10.094  10.281  0.00  0.00    +0.122 HD
BRANCH   5   7
ATOM      7  C   UNL     1      -3.695  -9.215   9.754  0.00  0.00    +0.054 C 
ATOM     10  C   UNL     1      -4.856  -8.493  10.447  0.00  0.00    +0.019 C 
ATOM     11  C   UNL     1      -4.192 -10.433   8.967  0.00  0.00    +0.019 C 
ATOM     16  C   UNL     1      -5.946  -8.107   9.449  0.00  0.00    +0.002 C 
ATOM     17  C   UNL     1      -5.284 -10.045   7.971  0.00  0.00    +0.002 C 
ATOM     18  C   UNL     1      -6.436  -9.315   8.655  0.00  0.00    +0.000 C 
ENDBRANCH   5   7
ENDBRANCH  12   5
ENDBRANCH   8  12
BRANCH  13  19
ATOM     19  C   UNL     1      -3.122 -10.434  16.064  0.00  0.00    +0.090 C 
BRANCH  19  20
ATOM      3  O   UNL     1      -6.456 -10.043  17.376  0.00  0.00    -0.357 OA
ATOM      6  N   UNL     1      -5.482  -9.827  16.409  0.00  0.00    -0.083 NA
ATOM     20  C   UNL     1      -4.395 -10.454  16.868  0.00  0.00    +0.086 A 
ATOM     21  C   UNL     1      -4.621 -11.078  18.107  0.00  0.00    +0.073 A 
ATOM     22  C   UNL     1      -5.931 -10.789  18.382  0.00  0.00    +0.163 A 
BRANCH  22  23
ATOM     23  C   UNL     1      -6.831 -11.113  19.495  0.00  0.00    +0.236 C 
BRANCH  23   4
ATOM      4  O   UNL     1      -7.127 -12.512  19.505  0.00  0.00    -0.375 OA
ATOM     24  C   UNL     1      -8.494 -12.747  19.801  0.00  0.00    +0.194 C 
ENDBRANCH  23   4
ENDBRANCH  22  23
ENDBRANCH  19  20
ENDBRANCH  13  19
TORSDOF 8
ENDMDL
MODEL 7
REMARK VINA RESULT:      -5.6     13.449     16.649
REMARK  Name = 75536291
REMARK  9 active torsions:
REMARK  status: ('A' for Active; 'I' for Inactive)
REMARK    1  A    between atoms: O_2  and  C_9
REMARK    2  A    between atoms: O_4  and  C_23
REMARK    3  A    between atoms: O_4  and  C_24
REMARK    4  A    between atoms: N_5  and  C_7
REMARK    5  A    between atoms: N_5  and  C_12
REMARK    6  A    between atoms: C_8  and  C_12
REMARK    7  A    between atoms: C_13  and  C_19
REMARK    8  A    between atoms: C_19  and  C_20
REMARK    9  A    between atoms: C_22  and  C_23
REMARK                            x       y       z     vdW  Elec       q    Type
REMARK                         _______ _______ _______ _____ _____    ______ ____
ROOT
ATOM      1  O   UNL     1      10.805   7.058   5.490  0.00  0.00    -0.369 OA
ATOM      8  C   UNL     1      11.088   7.248   6.882  0.00  0.00    +0.161 C 
ATOM      9  C   UNL     1      10.100   6.474   7.763  0.00  0.00    +0.145 C 
ATOM     13  C   UNL     1      10.769   5.696   5.056  0.00  0.00    +0.125 C 
ATOM     14  C   UNL     1       9.956   5.016   7.334  0.00  0.00    +0.036 C 
ATOM     15  C   UNL     1       9.711   4.913   5.830  0.00  0.00    +0.034 C 
ENDROOT
BRANCH   9   2
ATOM      2  O   UNL     1       8.812   7.088   7.662  0.00  0.00    -0.389 OA
ATOM     26  H   UNL     1       8.917   8.028   7.886  0.00  0.00    +0.210 HD
ENDBRANCH   9   2
BRANCH   8  12
ATOM     12  C   UNL     1      12.548   6.925   7.196  0.00  0.00    +0.115 C 
BRANCH  12   5
ATOM      5  N   UNL     1      13.399   8.078   6.950  0.00  0.00    -0.311 NA
ATOM     25  H   UNL     1      13.694   8.466   7.845  0.00  0.00    +0.122 HD
BRANCH   5   7
ATOM      7  C   UNL     1      14.572   7.704   6.162  0.00  0.00    +0.054 C 
ATOM     10  C   UNL     1      15.624   8.818   6.233  0.00  0.00    +0.019 C 
ATOM     11  C   UNL     1      14.160   7.425   4.713  0.00  0.00    +0.019 C 
ATOM     16  C   UNL     1      16.835   8.496   5.359  0.00  0.00    +0.002 C 
ATOM     17  C   UNL     1      15.373   7.106   3.840  0.00  0.00    +0.002 C 
ATOM     18  C   UNL     1      16.427   8.206   3.917  0.00  0.00    +0.000 C 
ENDBRANCH   5   7
ENDBRANCH  12   5
ENDBRANCH   8  12
BRANCH  13  19
ATOM     19  C   UNL     1      10.460   5.698   3.564  0.00  0.00    +0.090 C 
BRANCH  19  20
ATOM      3  O   UNL     1      12.349   3.107   1.918  0.00  0.00    -0.357 OA
ATOM      6  N   UNL     1      11.279   3.550   2.688  0.00  0.00    -0.083 NA
ATOM     20  C   UNL     1      11.450   4.871   2.789  0.00  0.00    +0.086 A 
ATOM     21  C   UNL     1      12.598   5.315   2.111  0.00  0.00    +0.073 A 
ATOM     22  C   UNL     1      13.127   4.168   1.581  0.00  0.00    +0.163 A 
BRANCH  22  23
ATOM     23  C   UNL     1      14.310   3.877   0.763  0.00  0.00    +0.236 C 
BRANCH  23   4
ATOM      4  O   UNL     1      13.918   3.472  -0.551  0.00  0.00    -0.375 OA
ATOM     24  C   UNL     1      14.475   4.323  -1.539  0.00  0.00    +0.194 C 
ENDBRANCH  23   4
ENDBRANCH  22  23
ENDBRANCH  19  20
ENDBRANCH  13  19
TORSDOF 8
ENDMDL
MODEL 8
REMARK VINA RESULT:      -5.6     25.405     27.833
REMARK  Name = 75536291
REMARK  9 active torsions:
REMARK  status: ('A' for Active; 'I' for Inactive)
REMARK    1  A    between atoms: O_2  and  C_9
REMARK    2  A    between atoms: O_4  and  C_23
REMARK    3  A    between atoms: O_4  and  C_24
REMARK    4  A    between atoms: N_5  and  C_7
REMARK    5  A    between atoms: N_5  and  C_12
REMARK    6  A    between atoms: C_8  and  C_12
REMARK    7  A    between atoms: C_13  and  C_19
REMARK    8  A    between atoms: C_19  and  C_20
REMARK    9  A    between atoms: C_22  and  C_23
REMARK                            x       y       z     vdW  Elec       q    Type
REMARK                         _______ _______ _______ _____ _____    ______ ____
ROOT
ATOM      1  O   UNL     1      -6.124 -10.116  17.187  0.00  0.00    -0.369 OA
ATOM      8  C   UNL     1      -5.397 -10.778  18.229  0.00  0.00    +0.161 C 
ATOM      9  C   UNL     1      -6.328 -11.225  19.363  0.00  0.00    +0.145 C 
ATOM     13  C   UNL     1      -7.205 -10.867  16.628  0.00  0.00    +0.125 C 
ATOM     14  C   UNL     1      -7.545 -11.989  18.849  0.00  0.00    +0.036 C 
ATOM     15  C   UNL     1      -8.221 -11.233  17.708  0.00  0.00    +0.034 C 
ENDROOT
BRANCH   9   2
ATOM      2  O   UNL     1      -6.800 -10.066  20.055  0.00  0.00    -0.389 OA
ATOM     26  H   UNL     1      -7.273 -10.370  20.849  0.00  0.00    +0.210 HD
ENDBRANCH   9   2
BRANCH   8  12
ATOM     12  C   UNL     1      -4.548 -11.919  17.669  0.00  0.00    +0.115 C 
BRANCH  12   5
ATOM      5  N   UNL     1      -3.159 -11.512  17.532  0.00  0.00    -0.311 NA
ATOM     25  H   UNL     1      -2.573 -12.347  17.507  0.00  0.00    +0.122 HD
BRANCH   5   7
ATOM      7  C   UNL     1      -2.959 -10.732  16.312  0.00  0.00    +0.054 C 
ATOM     10  C   UNL     1      -3.642 -11.431  15.130  0.00  0.00    +0.019 C 
ATOM     11  C   UNL     1      -1.461 -10.544  16.053  0.00  0.00    +0.019 C 
ATOM     16  C   UNL     1      -3.390 -10.683  13.821  0.00  0.00    +0.002 C 
ATOM     17  C   UNL     1      -1.211  -9.799  14.742  0.00  0.00    +0.002 C 
ATOM     18  C   UNL     1      -1.899 -10.484  13.565  0.00  0.00    +0.000 C 
ENDBRANCH   5   7
ENDBRANCH  12   5
ENDBRANCH   8  12
BRANCH  13  19
ATOM     19  C   UNL     1      -7.849 -10.008  15.546  0.00  0.00    +0.090 C 
BRANCH  19  20
ATOM      3  O   UNL     1      -6.589 -11.535  12.535  0.00  0.00    -0.357 OA
ATOM      6  N   UNL     1      -7.083 -11.598  13.833  0.00  0.00    -0.083 NA
ATOM     20  C   UNL     1      -7.301 -10.327  14.181  0.00  0.00    +0.086 A 
ATOM     21  C   UNL     1      -6.968  -9.427  13.154  0.00  0.00    +0.073 A 
ATOM     22  C   UNL     1      -6.526 -10.237  12.142  0.00  0.00    +0.163 A 
BRANCH  22  23
ATOM     23  C   UNL     1      -6.023  -9.987  10.787  0.00  0.00    +0.236 C 
BRANCH  23   4
ATOM      4  O   UNL     1      -4.940  -9.054  10.822  0.00  0.00    -0.375 OA
ATOM     24  C   UNL     1      -3.777  -9.593  10.216  0.00  0.00    +0.194 C 
ENDBRANCH  23   4
ENDBRANCH  22  23
ENDBRANCH  19  20
ENDBRANCH  13  19
TORSDOF 8
ENDMDL
MODEL 9
REMARK VINA RESULT:      -5.5     26.065     28.077
REMARK  Name = 75536291
REMARK  9 active torsions:
REMARK  status: ('A' for Active; 'I' for Inactive)
REMARK    1  A    between atoms: O_2  and  C_9
REMARK    2  A    between atoms: O_4  and  C_23
REMARK    3  A    between atoms: O_4  and  C_24
REMARK    4  A    between atoms: N_5  and  C_7
REMARK    5  A    between atoms: N_5  and  C_12
REMARK    6  A    between atoms: C_8  and  C_12
REMARK    7  A    between atoms: C_13  and  C_19
REMARK    8  A    between atoms: C_19  and  C_20
REMARK    9  A    between atoms: C_22  and  C_23
REMARK                            x       y       z     vdW  Elec       q    Type
REMARK                         _______ _______ _______ _____ _____    ______ ____
ROOT
ATOM      1  O   UNL     1      -6.739 -11.639  17.202  0.00  0.00    -0.369 OA
ATOM      8  C   UNL     1      -7.733 -10.817  17.826  0.00  0.00    +0.161 C 
ATOM      9  C   UNL     1      -7.512 -10.724  19.341  0.00  0.00    +0.145 C 
ATOM     13  C   UNL     1      -5.385 -11.249  17.448  0.00  0.00    +0.125 C 
ATOM     14  C   UNL     1      -6.071 -10.366  19.697  0.00  0.00    +0.036 C 
ATOM     15  C   UNL     1      -5.086 -11.258  18.945  0.00  0.00    +0.034 C 
ENDROOT
BRANCH   9   2
ATOM      2  O   UNL     1      -7.803 -11.996  19.928  0.00  0.00    -0.389 OA
ATOM     26  H   UNL     1      -6.985 -12.323  20.341  0.00  0.00    +0.210 HD
ENDBRANCH   9   2
BRANCH   8  12
ATOM     12  C   UNL     1      -7.819  -9.449  17.151  0.00  0.00    +0.115 C 
BRANCH  12   5
ATOM      5  N   UNL     1      -8.877  -8.644  17.743  0.00  0.00    -0.311 NA
ATOM     25  H   UNL     1      -8.535  -7.692  17.866  0.00  0.00    +0.122 HD
BRANCH   5   7
ATOM      7  C   UNL     1     -10.066  -8.636  16.892  0.00  0.00    +0.054 C 
ATOM     10  C   UNL     1     -10.503  -7.191  16.622  0.00  0.00    +0.019 C 
ATOM     11  C   UNL     1     -11.189  -9.437  17.560  0.00  0.00    +0.019 C 
ATOM     16  C   UNL     1     -11.789  -7.144  15.799  0.00  0.00    +0.002 C 
ATOM     17  C   UNL     1     -12.475  -9.386  16.736  0.00  0.00    +0.002 C 
ATOM     18  C   UNL     1     -12.907  -7.950  16.454  0.00  0.00    +0.000 C 
ENDBRANCH   5   7
ENDBRANCH  12   5
ENDBRANCH   8  12
BRANCH  13  19
ATOM     19  C   UNL     1      -4.484 -12.230  16.708  0.00  0.00    +0.090 C 
BRANCH  19  20
ATOM      3  O   UNL     1      -1.911 -10.300  15.082  0.00  0.00    -0.357 OA
ATOM      6  N   UNL     1      -2.546 -10.797  16.214  0.00  0.00    -0.083 NA
ATOM     20  C   UNL     1      -3.564 -11.526  15.748  0.00  0.00    +0.086 A 
ATOM     21  C   UNL     1      -3.620 -11.527  14.343  0.00  0.00    +0.073 A 
ATOM     22  C   UNL     1      -2.560 -10.742  13.975  0.00  0.00    +0.163 A 
BRANCH  22  23
ATOM     23  C   UNL     1      -2.017 -10.308  12.682  0.00  0.00    +0.236 C 
BRANCH  23   4
ATOM      4  O   UNL     1      -2.966 -10.548  11.639  0.00  0.00    -0.375 OA
ATOM     24  C   UNL     1      -2.836  -9.595  10.597  0.00  0.00    +0.194 C 
ENDBRANCH  23   4
ENDBRANCH  22  23
ENDBRANCH  19  20
ENDBRANCH  13  19
TORSDOF 8
ENDMDL
MODEL 10
REMARK VINA RESULT:      -5.4      2.514      6.502
REMARK  Name = 75536291
REMARK  9 active torsions:
REMARK  status: ('A' for Active; 'I' for Inactive)
REMARK    1  A    between atoms: O_2  and  C_9
REMARK    2  A    between atoms: O_4  and  C_23
REMARK    3  A    between atoms: O_4  and  C_24
REMARK    4  A    between atoms: N_5  and  C_7
REMARK    5  A    between atoms: N_5  and  C_12
REMARK    6  A    between atoms: C_8  and  C_12
REMARK    7  A    between atoms: C_13  and  C_19
REMARK    8  A    between atoms: C_19  and  C_20
REMARK    9  A    between atoms: C_22  and  C_23
REMARK                            x       y       z     vdW  Elec       q    Type
REMARK                         _______ _______ _______ _____ _____    ______ ____
ROOT
ATOM      1  O   UNL     1      13.532   7.879  20.787  0.00  0.00    -0.369 OA
ATOM      8  C   UNL     1      12.789   6.966  19.968  0.00  0.00    +0.161 C 
ATOM      9  C   UNL     1      11.570   6.412  20.715  0.00  0.00    +0.145 C 
ATOM     13  C   UNL     1      12.778   8.973  21.317  0.00  0.00    +0.125 C 
ATOM     14  C   UNL     1      10.735   7.512  21.363  0.00  0.00    +0.036 C 
ATOM     15  C   UNL     1      11.618   8.463  22.169  0.00  0.00    +0.034 C 
ENDROOT
BRANCH   9   2
ATOM      2  O   UNL     1      12.023   5.539  21.753  0.00  0.00    -0.389 OA
ATOM     26  H   UNL     1      11.965   6.026  22.593  0.00  0.00    +0.210 HD
ENDBRANCH   9   2
BRANCH   8  12
ATOM     12  C   UNL     1      12.429   7.599  18.625  0.00  0.00    +0.115 C 
BRANCH  12   5
ATOM      5  N   UNL     1      13.621   7.832  17.825  0.00  0.00    -0.311 NA
ATOM     25  H   UNL     1      13.623   7.181  17.040  0.00  0.00    +0.122 HD
BRANCH   5   7
ATOM      7  C   UNL     1      13.658   9.206  17.328  0.00  0.00    +0.054 C 
ATOM     10  C   UNL     1      14.190   9.226  15.890  0.00  0.00    +0.019 C 
ATOM     11  C   UNL     1      14.525  10.071  18.249  0.00  0.00    +0.019 C 
ATOM     16  C   UNL     1      14.315  10.654  15.362  0.00  0.00    +0.002 C 
ATOM     17  C   UNL     1      14.650  11.498  17.718  0.00  0.00    +0.002 C 
ATOM     18  C   UNL     1      15.168  11.522  16.283  0.00  0.00    +0.000 C 
ENDBRANCH   5   7
ENDBRANCH  12   5
ENDBRANCH   8  12
BRANCH  13  19
ATOM     19  C   UNL     1      13.729   9.824  22.148  0.00  0.00    +0.090 C 
BRANCH  19  20
ATOM      3  O   UNL     1      12.541  12.789  23.817  0.00  0.00    -0.357 OA
ATOM      6  N   UNL     1      13.218  11.575  23.799  0.00  0.00    -0.083 NA
ATOM     20  C   UNL     1      13.104  11.135  22.543  0.00  0.00    +0.086 A 
ATOM     21  C   UNL     1      12.374  12.020  21.731  0.00  0.00    +0.073 A 
ATOM     22  C   UNL     1      12.044  13.043  22.579  0.00  0.00    +0.163 A 
BRANCH  22  23
ATOM     23  C   UNL     1      11.295  14.295  22.420  0.00  0.00    +0.236 C 
BRANCH  23   4
ATOM      4  O   UNL     1      10.275  14.141  21.429  0.00  0.00    -0.375 OA
ATOM     24  C   UNL     1       9.072  14.777  21.827  0.00  0.00    +0.194 C 
ENDBRANCH  23   4
ENDBRANCH  22  23
ENDBRANCH  19  20
ENDBRANCH  13  19
TORSDOF 8
ENDMDL
