MODEL 1
REMARK VINA RESULT:      -6.8      0.000      0.000
REMARK  Name = 45784145
REMARK  10 active torsions:
REMARK  status: ('A' for Active; 'I' for Inactive)
REMARK    1  A    between atoms: N_3  and  C_15
REMARK    2  A    between atoms: C_8  and  C_12
REMARK    3  A    between atoms: C_9  and  C_15
REMARK    4  A    between atoms: C_11  and  C_16
REMARK    5  A    between atoms: C_12  and  C_17
REMARK    6  A    between atoms: C_12  and  C_18
REMARK    7  A    between atoms: C_13  and  C_19
REMARK    8  A    between atoms: C_16  and  C_20
REMARK    9  A    between atoms: C_21  and  C_23
REMARK   10  A    between atoms: C_22  and  C_24
REMARK                            x       y       z     vdW  Elec       q    Type
REMARK                         _______ _______ _______ _____ _____    ______ ____
ROOT
ATOM      8  C   UNL     1      -6.537 -11.080  16.288  0.00  0.00    +0.000 C 
ATOM      9  C   UNL     1      -7.002 -11.052  17.766  0.00  0.00    +0.032 C 
ATOM     10  C   UNL     1      -5.551 -12.235  16.058  0.00  0.00    +0.012 C 
ATOM     11  C   UNL     1      -4.306 -12.126  16.960  0.00  0.00    +0.024 C 
ATOM     13  C   UNL     1      -4.677 -11.829  18.399  0.00  0.00    -0.073 C 
ATOM     14  C   UNL     1      -5.891 -11.362  18.742  0.00  0.00    -0.022 C 
ATOM     19  C   UNL     1      -3.635 -12.124  19.441  0.00  0.00    +0.039 C 
ENDROOT
BRANCH   8  12
ATOM     12  C   UNL     1      -7.719 -11.208  15.322  0.00  0.00    -0.013 C 
ATOM     17  C   UNL     1      -7.757 -10.020  14.366  0.00  0.00    +0.007 C 
ATOM     18  C   UNL     1      -7.636 -12.521  14.551  0.00  0.00    +0.007 C 
ENDBRANCH   8  12
BRANCH   9  15
ATOM     15  C   UNL     1      -7.631  -9.700  18.122  0.00  0.00    +0.112 C 
BRANCH  15   3
ATOM      2  O   UNL     1     -10.073  -8.778  16.925  0.00  0.00    -0.269 OA
ATOM      3  N   UNL     1      -8.953  -9.875  18.637  0.00  0.00    -0.310 N 
ATOM     21  C   UNL     1     -10.090  -9.393  17.989  0.00  0.00    +0.262 C 
ATOM     33  H   UNL     1      -9.073 -10.407  19.494  0.00  0.00    +0.149 HD
BRANCH  21  23
ATOM      6  N   UNL     1     -12.490  -9.489  17.895  0.00  0.00    -0.250 NA
ATOM     23  C   UNL     1     -11.389  -9.635  18.667  0.00  0.00    +0.125 A 
ATOM     25  C   UNL     1     -11.422  -9.987  20.007  0.00  0.00    +0.033 A 
ATOM     28  C   UNL     1     -12.664 -10.202  20.593  0.00  0.00    +0.004 A 
ATOM     29  C   UNL     1     -13.680  -9.706  18.500  0.00  0.00    +0.111 A 
ATOM     30  C   UNL     1     -13.819 -10.061  19.832  0.00  0.00    +0.020 A 
ENDBRANCH  21  23
ENDBRANCH  15   3
ENDBRANCH   9  15
BRANCH  11  16
ATOM     16  C   UNL     1      -3.323 -11.082  16.419  0.00  0.00    +0.105 C 
BRANCH  16  20
ATOM      1  O   UNL     1      -3.744 -10.370  14.124  0.00  0.00    -0.420 OA
ATOM      4  N   UNL     1      -2.372 -12.129  14.300  0.00  0.00    -0.112 NA
ATOM      5  N   UNL     1      -2.520 -11.836  12.958  0.00  0.00    -0.107 NA
ATOM     20  C   UNL     1      -3.102 -11.247  14.943  0.00  0.00    +0.218 A 
ATOM     22  C   UNL     1      -3.328 -10.803  12.901  0.00  0.00    +0.248 A 
BRANCH  22  24
ATOM      7  N   UNL     1      -4.816  -8.657   9.575  0.00  0.00    -0.263 NA
ATOM     24  C   UNL     1      -3.833 -10.076  11.773  0.00  0.00    +0.041 A 
ATOM     26  C   UNL     1      -5.144  -9.613  11.770  0.00  0.00    +0.033 A 
ATOM     27  C   UNL     1      -3.013  -9.829  10.677  0.00  0.00    +0.033 A 
ATOM     31  C   UNL     1      -5.583  -8.915  10.658  0.00  0.00    +0.111 A 
ATOM     32  C   UNL     1      -3.548  -9.122   9.614  0.00  0.00    +0.111 A 
ENDBRANCH  22  24
ENDBRANCH  16  20
ENDBRANCH  11  16
TORSDOF 7
ENDMDL
MODEL 2
REMARK VINA RESULT:      -6.8     22.122     26.376
REMARK  Name = 45784145
REMARK  10 active torsions:
REMARK  status: ('A' for Active; 'I' for Inactive)
REMARK    1  A    between atoms: N_3  and  C_15
REMARK    2  A    between atoms: C_8  and  C_12
REMARK    3  A    between atoms: C_9  and  C_15
REMARK    4  A    between atoms: C_11  and  C_16
REMARK    5  A    between atoms: C_12  and  C_17
REMARK    6  A    between atoms: C_12  and  C_18
REMARK    7  A    between atoms: C_13  and  C_19
REMARK    8  A    between atoms: C_16  and  C_20
REMARK    9  A    between atoms: C_21  and  C_23
REMARK   10  A    between atoms: C_22  and  C_24
REMARK                            x       y       z     vdW  Elec       q    Type
REMARK                         _______ _______ _______ _____ _____    ______ ____
ROOT
ATOM      8  C   UNL     1     -12.521   9.362  31.642  0.00  0.00    +0.000 C 
ATOM      9  C   UNL     1     -11.831  10.007  32.870  0.00  0.00    +0.032 C 
ATOM     10  C   UNL     1     -13.871   8.749  32.046  0.00  0.00    +0.012 C 
ATOM     11  C   UNL     1     -13.719   7.675  33.141  0.00  0.00    +0.024 C 
ATOM     13  C   UNL     1     -12.824   8.145  34.269  0.00  0.00    -0.073 C 
ATOM     14  C   UNL     1     -11.996   9.196  34.135  0.00  0.00    -0.022 C 
ATOM     19  C   UNL     1     -12.934   7.405  35.574  0.00  0.00    +0.039 C 
ENDROOT
BRANCH   8  12
ATOM     12  C   UNL     1     -12.729  10.373  30.510  0.00  0.00    -0.013 C 
ATOM     17  C   UNL     1     -11.777  10.082  29.355  0.00  0.00    +0.007 C 
ATOM     18  C   UNL     1     -14.178  10.349  30.036  0.00  0.00    +0.007 C 
ENDBRANCH   8  12
BRANCH   9  15
ATOM     15  C   UNL     1     -10.339  10.242  32.606  0.00  0.00    +0.112 C 
BRANCH  15   3
ATOM      2  O   UNL     1      -8.218  11.727  33.846  0.00  0.00    -0.269 OA
ATOM      3  N   UNL     1      -9.554   9.833  33.728  0.00  0.00    -0.310 N 
ATOM     21  C   UNL     1      -8.538  10.619  34.270  0.00  0.00    +0.262 C 
ATOM     33  H   UNL     1      -9.771   8.947  34.174  0.00  0.00    +0.149 HD
BRANCH  21  23
ATOM      6  N   UNL     1      -6.511  10.438  35.550  0.00  0.00    -0.250 NA
ATOM     23  C   UNL     1      -7.797  10.041  35.421  0.00  0.00    +0.125 A 
ATOM     25  C   UNL     1      -8.426   9.155  36.281  0.00  0.00    +0.033 A 
ATOM     28  C   UNL     1      -7.688   8.643  37.342  0.00  0.00    +0.004 A 
ATOM     29  C   UNL     1      -5.826   9.919  36.594  0.00  0.00    +0.111 A 
ATOM     30  C   UNL     1      -6.363   9.027  37.508  0.00  0.00    +0.020 A 
ENDBRANCH  21  23
ENDBRANCH  15   3
ENDBRANCH   9  15
BRANCH  11  16
ATOM     16  C   UNL     1     -13.212   6.354  32.551  0.00  0.00    +0.105 C 
BRANCH  16  20
ATOM      1  O   UNL     1     -14.090   4.201  31.808  0.00  0.00    -0.420 OA
ATOM      4  N   UNL     1     -15.357   5.229  33.340  0.00  0.00    -0.112 NA
ATOM      5  N   UNL     1     -15.967   4.032  33.013  0.00  0.00    -0.107 NA
ATOM     20  C   UNL     1     -14.265   5.285  32.614  0.00  0.00    +0.218 A 
ATOM     22  C   UNL     1     -15.194   3.466  32.117  0.00  0.00    +0.248 A 
BRANCH  22  24
ATOM      7  N   UNL     1     -15.592  -0.216  30.075  0.00  0.00    -0.263 NA
ATOM     24  C   UNL     1     -15.329   2.218  31.425  0.00  0.00    +0.041 A 
ATOM     26  C   UNL     1     -15.973   2.168  30.193  0.00  0.00    +0.033 A 
ATOM     27  C   UNL     1     -14.817   1.051  31.982  0.00  0.00    +0.033 A 
ATOM     31  C   UNL     1     -16.077   0.938  29.565  0.00  0.00    +0.111 A 
ATOM     32  C   UNL     1     -14.973  -0.129  31.273  0.00  0.00    +0.111 A 
ENDBRANCH  22  24
ENDBRANCH  16  20
ENDBRANCH  11  16
TORSDOF 7
ENDMDL
MODEL 3
REMARK VINA RESULT:      -6.8      3.623      6.960
REMARK  Name = 45784145
REMARK  10 active torsions:
REMARK  status: ('A' for Active; 'I' for Inactive)
REMARK    1  A    between atoms: N_3  and  C_15
REMARK    2  A    between atoms: C_8  and  C_12
REMARK    3  A    between atoms: C_9  and  C_15
REMARK    4  A    between atoms: C_11  and  C_16
REMARK    5  A    between atoms: C_12  and  C_17
REMARK    6  A    between atoms: C_12  and  C_18
REMARK    7  A    between atoms: C_13  and  C_19
REMARK    8  A    between atoms: C_16  and  C_20
REMARK    9  A    between atoms: C_21  and  C_23
REMARK   10  A    between atoms: C_22  and  C_24
REMARK                            x       y       z     vdW  Elec       q    Type
REMARK                         _______ _______ _______ _____ _____    ______ ____
ROOT
ATOM      8  C   UNL     1      -3.221 -12.154  12.539  0.00  0.00    +0.000 C 
ATOM      9  C   UNL     1      -2.081 -11.109  12.449  0.00  0.00    +0.032 C 
ATOM     10  C   UNL     1      -3.767 -12.473  11.139  0.00  0.00    +0.012 C 
ATOM     11  C   UNL     1      -4.309 -11.219  10.426  0.00  0.00    +0.024 C 
ATOM     13  C   UNL     1      -3.346 -10.054  10.527  0.00  0.00    -0.073 C 
ATOM     14  C   UNL     1      -2.349 -10.027  11.428  0.00  0.00    -0.022 C 
ATOM     19  C   UNL     1      -3.529  -8.937   9.537  0.00  0.00    +0.039 C 
ENDROOT
BRANCH   8  12
ATOM     12  C   UNL     1      -2.757 -13.445  13.221  0.00  0.00    -0.013 C 
ATOM     17  C   UNL     1      -3.763 -13.878  14.282  0.00  0.00    +0.007 C 
ATOM     18  C   UNL     1      -2.552 -14.548  12.188  0.00  0.00    +0.007 C 
ENDBRANCH   8  12
BRANCH   9  15
ATOM     15  C   UNL     1      -1.811 -10.466  13.815  0.00  0.00    +0.112 C 
BRANCH  15   3
ATOM      2  O   UNL     1      -2.205 -11.016  16.605  0.00  0.00    -0.269 OA
ATOM      3  N   UNL     1      -3.026 -10.311  14.552  0.00  0.00    -0.310 N 
ATOM     21  C   UNL     1      -3.131 -10.603  15.911  0.00  0.00    +0.262 C 
ATOM     33  H   UNL     1      -3.839  -9.937  14.072  0.00  0.00    +0.149 HD
BRANCH  21  23
ATOM      6  N   UNL     1      -4.588 -10.816  17.812  0.00  0.00    -0.250 NA
ATOM     23  C   UNL     1      -4.470 -10.414  16.526  0.00  0.00    +0.125 A 
ATOM     25  C   UNL     1      -5.503  -9.856  15.790  0.00  0.00    +0.033 A 
ATOM     28  C   UNL     1      -6.736  -9.700  16.412  0.00  0.00    +0.004 A 
ATOM     29  C   UNL     1      -5.802 -10.649  18.383  0.00  0.00    +0.111 A 
ATOM     30  C   UNL     1      -6.897 -10.102  17.733  0.00  0.00    +0.020 A 
ENDBRANCH  21  23
ENDBRANCH  15   3
ENDBRANCH   9  15
BRANCH  11  16
ATOM     16  C   UNL     1      -5.695 -10.837  10.959  0.00  0.00    +0.105 C 
BRANCH  16  20
ATOM      1  O   UNL     1      -7.317  -9.198  10.160  0.00  0.00    -0.420 OA
ATOM      4  N   UNL     1      -6.751 -10.743   8.643  0.00  0.00    -0.112 NA
ATOM      5  N   UNL     1      -7.667  -9.887   8.061  0.00  0.00    -0.107 NA
ATOM     20  C   UNL     1      -6.575 -10.302   9.867  0.00  0.00    +0.218 A 
ATOM     22  C   UNL     1      -7.970  -9.003   8.981  0.00  0.00    +0.248 A 
BRANCH  22  24
ATOM      7  N   UNL     1     -10.610  -5.701   8.857  0.00  0.00    -0.263 NA
ATOM     24  C   UNL     1      -8.865  -7.883   8.939  0.00  0.00    +0.041 A 
ATOM     26  C   UNL     1     -10.119  -7.969   9.535  0.00  0.00    +0.033 A 
ATOM     27  C   UNL     1      -8.484  -6.708   8.301  0.00  0.00    +0.033 A 
ATOM     31  C   UNL     1     -10.946  -6.860   9.468  0.00  0.00    +0.111 A 
ATOM     32  C   UNL     1      -9.386  -5.656   8.289  0.00  0.00    +0.111 A 
ENDBRANCH  22  24
ENDBRANCH  16  20
ENDBRANCH  11  16
TORSDOF 7
ENDMDL
MODEL 4
REMARK VINA RESULT:      -6.6      3.386      6.520
REMARK  Name = 45784145
REMARK  10 active torsions:
REMARK  status: ('A' for Active; 'I' for Inactive)
REMARK    1  A    between atoms: N_3  and  C_15
REMARK    2  A    between atoms: C_8  and  C_12
REMARK    3  A    between atoms: C_9  and  C_15
REMARK    4  A    between atoms: C_11  and  C_16
REMARK    5  A    between atoms: C_12  and  C_17
REMARK    6  A    between atoms: C_12  and  C_18
REMARK    7  A    between atoms: C_13  and  C_19
REMARK    8  A    between atoms: C_16  and  C_20
REMARK    9  A    between atoms: C_21  and  C_23
REMARK   10  A    between atoms: C_22  and  C_24
REMARK                            x       y       z     vdW  Elec       q    Type
REMARK                         _______ _______ _______ _____ _____    ______ ____
ROOT
ATOM      8  C   UNL     1      -2.951 -12.364  13.369  0.00  0.00    +0.000 C 
ATOM      9  C   UNL     1      -1.830 -11.303  13.502  0.00  0.00    +0.032 C 
ATOM     10  C   UNL     1      -3.189 -12.711  11.892  0.00  0.00    +0.012 C 
ATOM     11  C   UNL     1      -3.585 -11.476  11.060  0.00  0.00    +0.024 C 
ATOM     13  C   UNL     1      -2.679 -10.295  11.340  0.00  0.00    -0.073 C 
ATOM     14  C   UNL     1      -1.893 -10.240  12.429  0.00  0.00    -0.022 C 
ATOM     19  C   UNL     1      -2.665  -9.195  10.315  0.00  0.00    +0.039 C 
ENDROOT
BRANCH   8  12
ATOM     12  C   UNL     1      -2.623 -13.638  14.155  0.00  0.00    -0.013 C 
ATOM     17  C   UNL     1      -3.895 -14.248  14.734  0.00  0.00    +0.007 C 
ATOM     18  C   UNL     1      -1.900 -14.641  13.263  0.00  0.00    +0.007 C 
ENDBRANCH   8  12
BRANCH   9  15
ATOM     15  C   UNL     1      -1.860 -10.637  14.883  0.00  0.00    +0.112 C 
BRANCH  15   3
ATOM      2  O   UNL     1      -3.056 -11.245  17.422  0.00  0.00    -0.269 OA
ATOM      3  N   UNL     1      -3.203 -10.357  15.282  0.00  0.00    -0.310 N 
ATOM     21  C   UNL     1      -3.705 -10.688  16.540  0.00  0.00    +0.262 C 
ATOM     33  H   UNL     1      -3.808  -9.861  14.634  0.00  0.00    +0.149 HD
BRANCH  21  23
ATOM      6  N   UNL     1      -5.567 -10.555  18.055  0.00  0.00    -0.250 NA
ATOM     23  C   UNL     1      -5.131 -10.352  16.792  0.00  0.00    +0.125 A 
ATOM     25  C   UNL     1      -5.924  -9.864  15.766  0.00  0.00    +0.033 A 
ATOM     28  C   UNL     1      -7.250  -9.565  16.055  0.00  0.00    +0.004 A 
ATOM     29  C   UNL     1      -6.862 -10.253  18.299  0.00  0.00    +0.111 A 
ATOM     30  C   UNL     1      -7.737  -9.761  17.343  0.00  0.00    +0.020 A 
ENDBRANCH  21  23
ENDBRANCH  15   3
ENDBRANCH   9  15
BRANCH  11  16
ATOM     16  C   UNL     1      -5.056 -11.108  11.286  0.00  0.00    +0.105 C 
BRANCH  16  20
ATOM      1  O   UNL     1      -5.176 -11.324   8.858  0.00  0.00    -0.420 OA
ATOM      4  N   UNL     1      -6.880 -10.190   9.763  0.00  0.00    -0.112 NA
ATOM      5  N   UNL     1      -7.075 -10.236   8.395  0.00  0.00    -0.107 NA
ATOM     20  C   UNL     1      -5.761 -10.839   9.988  0.00  0.00    +0.218 A 
ATOM     22  C   UNL     1      -6.058 -10.907   7.908  0.00  0.00    +0.248 A 
BRANCH  22  24
ATOM      7  N   UNL     1      -5.110 -11.950   3.920  0.00  0.00    -0.263 NA
ATOM     24  C   UNL     1      -5.736 -11.260   6.556  0.00  0.00    +0.041 A 
ATOM     26  C   UNL     1      -4.487 -11.788   6.250  0.00  0.00    +0.033 A 
ATOM     27  C   UNL     1      -6.673 -11.077   5.544  0.00  0.00    +0.033 A 
ATOM     31  C   UNL     1      -4.226 -12.114   4.930  0.00  0.00    +0.111 A 
ATOM     32  C   UNL     1      -6.313 -11.435   4.255  0.00  0.00    +0.111 A 
ENDBRANCH  22  24
ENDBRANCH  16  20
ENDBRANCH  11  16
TORSDOF 7
ENDMDL
MODEL 5
REMARK VINA RESULT:      -6.5      3.085      4.999
REMARK  Name = 45784145
REMARK  10 active torsions:
REMARK  status: ('A' for Active; 'I' for Inactive)
REMARK    1  A    between atoms: N_3  and  C_15
REMARK    2  A    between atoms: C_8  and  C_12
REMARK    3  A    between atoms: C_9  and  C_15
REMARK    4  A    between atoms: C_11  and  C_16
REMARK    5  A    between atoms: C_12  and  C_17
REMARK    6  A    between atoms: C_12  and  C_18
REMARK    7  A    between atoms: C_13  and  C_19
REMARK    8  A    between atoms: C_16  and  C_20
REMARK    9  A    between atoms: C_21  and  C_23
REMARK   10  A    between atoms: C_22  and  C_24
REMARK                            x       y       z     vdW  Elec       q    Type
REMARK                         _______ _______ _______ _____ _____    ______ ____
ROOT
ATOM      8  C   UNL     1     -10.200  -9.784  18.156  0.00  0.00    +0.000 C 
ATOM      9  C   UNL     1     -11.129 -10.692  19.001  0.00  0.00    +0.032 C 
ATOM     10  C   UNL     1      -9.147 -10.628  17.422  0.00  0.00    +0.012 C 
ATOM     11  C   UNL     1      -8.277 -11.447  18.394  0.00  0.00    +0.024 C 
ATOM     13  C   UNL     1      -9.115 -12.165  19.432  0.00  0.00    -0.073 C 
ATOM     14  C   UNL     1     -10.391 -11.823  19.681  0.00  0.00    -0.022 C 
ATOM     19  C   UNL     1      -8.466 -13.317  20.148  0.00  0.00    +0.039 C 
ENDROOT
BRANCH   8  12
ATOM     12  C   UNL     1     -10.989  -8.945  17.146  0.00  0.00    -0.013 C 
ATOM     17  C   UNL     1     -10.432  -7.527  17.080  0.00  0.00    +0.007 C 
ATOM     18  C   UNL     1     -10.959  -9.603  15.771  0.00  0.00    +0.007 C 
ENDBRANCH   8  12
BRANCH   9  15
ATOM     15  C   UNL     1     -11.894  -9.877  20.050  0.00  0.00    +0.112 C 
BRANCH  15   3
ATOM      2  O   UNL     1     -14.392 -11.269  20.318  0.00  0.00    -0.269 OA
ATOM      3  N   UNL     1     -12.296 -10.707  21.142  0.00  0.00    -0.310 N 
ATOM     21  C   UNL     1     -13.533 -11.348  21.193  0.00  0.00    +0.262 C 
ATOM     33  H   UNL     1     -11.636 -10.866  21.898  0.00  0.00    +0.149 HD
BRANCH  21  23
ATOM      6  N   UNL     1     -15.015 -11.951  22.988  0.00  0.00    -0.250 NA
ATOM     23  C   UNL     1     -13.809 -12.155  22.410  0.00  0.00    +0.125 A 
ATOM     25  C   UNL     1     -12.862 -13.048  22.885  0.00  0.00    +0.033 A 
ATOM     28  C   UNL     1     -13.171 -13.778  24.027  0.00  0.00    +0.004 A 
ATOM     29  C   UNL     1     -15.279 -12.679  24.096  0.00  0.00    +0.111 A 
ATOM     30  C   UNL     1     -14.400 -13.596  24.650  0.00  0.00    +0.020 A 
ENDBRANCH  21  23
ENDBRANCH  15   3
ENDBRANCH   9  15
BRANCH  11  16
ATOM     16  C   UNL     1      -7.213 -10.567  19.059  0.00  0.00    +0.105 C 
BRANCH  16  20
ATOM      1  O   UNL     1      -5.383 -10.562  17.444  0.00  0.00    -0.420 OA
ATOM      4  N   UNL     1      -4.952 -11.712  19.315  0.00  0.00    -0.112 NA
ATOM      5  N   UNL     1      -3.840 -11.793  18.498  0.00  0.00    -0.107 NA
ATOM     20  C   UNL     1      -5.827 -10.984  18.661  0.00  0.00    +0.218 A 
ATOM     22  C   UNL     1      -4.135 -11.108  17.418  0.00  0.00    +0.248 A 
BRANCH  22  24
ATOM      7  N   UNL     1      -1.858 -10.351  13.936  0.00  0.00    -0.263 NA
ATOM     24  C   UNL     1      -3.363 -10.851  16.238  0.00  0.00    +0.041 A 
ATOM     26  C   UNL     1      -1.996 -10.620  16.334  0.00  0.00    +0.033 A 
ATOM     27  C   UNL     1      -3.979 -10.833  14.991  0.00  0.00    +0.033 A 
ATOM     31  C   UNL     1      -1.295 -10.377  15.165  0.00  0.00    +0.111 A 
ATOM     32  C   UNL     1      -3.189 -10.580  13.881  0.00  0.00    +0.111 A 
ENDBRANCH  22  24
ENDBRANCH  16  20
ENDBRANCH  11  16
TORSDOF 7
ENDMDL
MODEL 6
REMARK VINA RESULT:      -6.4     24.944     28.427
REMARK  Name = 45784145
REMARK  10 active torsions:
REMARK  status: ('A' for Active; 'I' for Inactive)
REMARK    1  A    between atoms: N_3  and  C_15
REMARK    2  A    between atoms: C_8  and  C_12
REMARK    3  A    between atoms: C_9  and  C_15
REMARK    4  A    between atoms: C_11  and  C_16
REMARK    5  A    between atoms: C_12  and  C_17
REMARK    6  A    between atoms: C_12  and  C_18
REMARK    7  A    between atoms: C_13  and  C_19
REMARK    8  A    between atoms: C_16  and  C_20
REMARK    9  A    between atoms: C_21  and  C_23
REMARK   10  A    between atoms: C_22  and  C_24
REMARK                            x       y       z     vdW  Elec       q    Type
REMARK                         _______ _______ _______ _____ _____    ______ ____
ROOT
ATOM      8  C   UNL     1       8.995   8.437   5.629  0.00  0.00    +0.000 C 
ATOM      9  C   UNL     1       8.695   8.234   7.135  0.00  0.00    +0.032 C 
ATOM     10  C   UNL     1       8.686   7.154   4.843  0.00  0.00    +0.012 C 
ATOM     11  C   UNL     1       9.506   5.950   5.346  0.00  0.00    +0.024 C 
ATOM     13  C   UNL     1       9.477   5.842   6.857  0.00  0.00    -0.073 C 
ATOM     14  C   UNL     1       9.100   6.868   7.640  0.00  0.00    -0.022 C 
ATOM     19  C   UNL     1       9.850   4.510   7.447  0.00  0.00    +0.039 C 
ENDROOT
BRANCH   8  12
ATOM     12  C   UNL     1       8.200   9.608   5.043  0.00  0.00    -0.013 C 
ATOM     17  C   UNL     1       9.144  10.663   4.476  0.00  0.00    +0.007 C 
ATOM     18  C   UNL     1       7.235   9.112   3.971  0.00  0.00    +0.007 C 
ENDBRANCH   8  12
BRANCH   9  15
ATOM     15  C   UNL     1       9.375   9.314   7.985  0.00  0.00    +0.112 C 
BRANCH  15   3
ATOM      2  O   UNL     1      10.899  11.694   7.476  0.00  0.00    -0.269 OA
ATOM      3  N   UNL     1      10.772   9.386   7.691  0.00  0.00    -0.310 N 
ATOM     21  C   UNL     1      11.437  10.589   7.455  0.00  0.00    +0.262 C 
ATOM     33  H   UNL     1      11.312   8.526   7.691  0.00  0.00    +0.149 HD
BRANCH  21  23
ATOM      6  N   UNL     1      13.625  11.585   7.433  0.00  0.00    -0.250 NA
ATOM     23  C   UNL     1      12.885  10.492   7.138  0.00  0.00    +0.125 A 
ATOM     25  C   UNL     1      13.400   9.335   6.576  0.00  0.00    +0.033 A 
ATOM     28  C   UNL     1      14.762   9.297   6.300  0.00  0.00    +0.004 A 
ATOM     29  C   UNL     1      14.944  11.511   7.150  0.00  0.00    +0.111 A 
ATOM     30  C   UNL     1      15.556  10.401   6.588  0.00  0.00    +0.020 A 
ENDBRANCH  21  23
ENDBRANCH  15   3
ENDBRANCH   9  15
BRANCH  11  16
ATOM     16  C   UNL     1      10.947   6.008   4.826  0.00  0.00    +0.105 C 
BRANCH  16  20
ATOM      1  O   UNL     1      12.316   5.273   2.945  0.00  0.00    -0.420 OA
ATOM      4  N   UNL     1      10.263   4.384   2.987  0.00  0.00    -0.112 NA
ATOM      5  N   UNL     1      10.923   3.884   1.879  0.00  0.00    -0.107 NA
ATOM     20  C   UNL     1      11.115   5.189   3.579  0.00  0.00    +0.218 A 
ATOM     22  C   UNL     1      12.116   4.429   1.895  0.00  0.00    +0.248 A 
BRANCH  22  24
ATOM      7  N   UNL     1      15.375   3.983  -0.764  0.00  0.00    -0.263 NA
ATOM     24  C   UNL     1      13.221   4.278   0.993  0.00  0.00    +0.041 A 
ATOM     26  C   UNL     1      13.011   4.309  -0.381  0.00  0.00    +0.033 A 
ATOM     27  C   UNL     1      14.508   4.099   1.490  0.00  0.00    +0.033 A 
ATOM     31  C   UNL     1      14.110   4.158  -1.209  0.00  0.00    +0.111 A 
ATOM     32  C   UNL     1      15.541   3.958   0.577  0.00  0.00    +0.111 A 
ENDBRANCH  22  24
ENDBRANCH  16  20
ENDBRANCH  11  16
TORSDOF 7
ENDMDL
MODEL 7
REMARK VINA RESULT:      -6.4     24.802     28.667
REMARK  Name = 45784145
REMARK  10 active torsions:
REMARK  status: ('A' for Active; 'I' for Inactive)
REMARK    1  A    between atoms: N_3  and  C_15
REMARK    2  A    between atoms: C_8  and  C_12
REMARK    3  A    between atoms: C_9  and  C_15
REMARK    4  A    between atoms: C_11  and  C_16
REMARK    5  A    between atoms: C_12  and  C_17
REMARK    6  A    between atoms: C_12  and  C_18
REMARK    7  A    between atoms: C_13  and  C_19
REMARK    8  A    between atoms: C_16  and  C_20
REMARK    9  A    between atoms: C_21  and  C_23
REMARK   10  A    between atoms: C_22  and  C_24
REMARK                            x       y       z     vdW  Elec       q    Type
REMARK                         _______ _______ _______ _____ _____    ______ ____
ROOT
ATOM      8  C   UNL     1       9.646   6.608   6.668  0.00  0.00    +0.000 C 
ATOM      9  C   UNL     1       9.119   5.941   5.372  0.00  0.00    +0.032 C 
ATOM     10  C   UNL     1       8.640   7.649   7.182  0.00  0.00    +0.012 C 
ATOM     11  C   UNL     1       8.361   8.753   6.144  0.00  0.00    +0.024 C 
ATOM     13  C   UNL     1       8.094   8.176   4.768  0.00  0.00    -0.073 C 
ATOM     14  C   UNL     1       8.427   6.914   4.445  0.00  0.00    -0.022 C 
ATOM     19  C   UNL     1       7.393   9.070   3.784  0.00  0.00    +0.039 C 
ENDROOT
BRANCH   8  12
ATOM     12  C   UNL     1       9.931   5.577   7.763  0.00  0.00    -0.013 C 
ATOM     17  C   UNL     1      11.335   5.771   8.326  0.00  0.00    +0.007 C 
ATOM     18  C   UNL     1       8.887   5.674   8.870  0.00  0.00    +0.007 C 
ENDBRANCH   8  12
BRANCH   9  15
ATOM     15  C   UNL     1      10.248   5.231   4.617  0.00  0.00    +0.112 C 
BRANCH  15   3
ATOM      2  O   UNL     1      11.654   7.214   3.088  0.00  0.00    -0.269 OA
ATOM      3  N   UNL     1      11.515   5.813   4.934  0.00  0.00    -0.310 N 
ATOM     21  C   UNL     1      12.130   6.774   4.132  0.00  0.00    +0.262 C 
ATOM     33  H   UNL     1      11.969   5.542   5.801  0.00  0.00    +0.149 HD
BRANCH  21  23
ATOM      6  N   UNL     1      14.452   7.194   3.673  0.00  0.00    -0.250 NA
ATOM     23  C   UNL     1      13.457   7.262   4.586  0.00  0.00    +0.125 A 
ATOM     25  C   UNL     1      13.619   7.747   5.874  0.00  0.00    +0.033 A 
ATOM     28  C   UNL     1      14.882   8.192   6.248  0.00  0.00    +0.004 A 
ATOM     29  C   UNL     1      15.666   7.635   4.073  0.00  0.00    +0.111 A 
ATOM     30  C   UNL     1      15.930   8.137   5.337  0.00  0.00    +0.020 A 
ENDBRANCH  21  23
ENDBRANCH  15   3
ENDBRANCH   9  15
BRANCH  11  16
ATOM     16  C   UNL     1       9.504   9.772   6.101  0.00  0.00    +0.105 C 
BRANCH  16  20
ATOM      1  O   UNL     1       9.593  10.720   8.347  0.00  0.00    -0.420 OA
ATOM      4  N   UNL     1       8.755  12.104   6.801  0.00  0.00    -0.112 NA
ATOM      5  N   UNL     1       8.747  12.764   8.015  0.00  0.00    -0.107 NA
ATOM     20  C   UNL     1       9.258  10.915   7.042  0.00  0.00    +0.218 A 
ATOM     22  C   UNL     1       9.244  11.920   8.888  0.00  0.00    +0.248 A 
BRANCH  22  24
ATOM      7  N   UNL     1       9.915  12.341  13.043  0.00  0.00    -0.263 NA
ATOM     24  C   UNL     1       9.471  12.063  10.297  0.00  0.00    +0.041 A 
ATOM     26  C   UNL     1      10.751  11.901  10.817  0.00  0.00    +0.033 A 
ATOM     27  C   UNL     1       8.414  12.363  11.149  0.00  0.00    +0.033 A 
ATOM     31  C   UNL     1      10.918  12.049  12.184  0.00  0.00    +0.111 A 
ATOM     32  C   UNL     1       8.687  12.491  12.501  0.00  0.00    +0.111 A 
ENDBRANCH  22  24
ENDBRANCH  16  20
ENDBRANCH  11  16
TORSDOF 7
ENDMDL
MODEL 8
REMARK VINA RESULT:      -6.3     18.308     20.457
REMARK  Name = 45784145
REMARK  10 active torsions:
REMARK  status: ('A' for Active; 'I' for Inactive)
REMARK    1  A    between atoms: N_3  and  C_15
REMARK    2  A    between atoms: C_8  and  C_12
REMARK    3  A    between atoms: C_9  and  C_15
REMARK    4  A    between atoms: C_11  and  C_16
REMARK    5  A    between atoms: C_12  and  C_17
REMARK    6  A    between atoms: C_12  and  C_18
REMARK    7  A    between atoms: C_13  and  C_19
REMARK    8  A    between atoms: C_16  and  C_20
REMARK    9  A    between atoms: C_21  and  C_23
REMARK   10  A    between atoms: C_22  and  C_24
REMARK                            x       y       z     vdW  Elec       q    Type
REMARK                         _______ _______ _______ _____ _____    ______ ____
ROOT
ATOM      8  C   UNL     1     -12.751   8.395  20.341  0.00  0.00    +0.000 C 
ATOM      9  C   UNL     1     -13.560   8.417  21.662  0.00  0.00    +0.032 C 
ATOM     10  C   UNL     1     -11.506   9.286  20.459  0.00  0.00    +0.012 C 
ATOM     11  C   UNL     1     -11.864  10.748  20.788  0.00  0.00    +0.024 C 
ATOM     13  C   UNL     1     -12.873  10.840  21.915  0.00  0.00    -0.073 C 
ATOM     14  C   UNL     1     -13.612   9.786  22.301  0.00  0.00    -0.022 C 
ATOM     19  C   UNL     1     -12.980  12.164  22.621  0.00  0.00    +0.039 C 
ENDROOT
BRANCH   8  12
ATOM     12  C   UNL     1     -12.336   6.973  19.951  0.00  0.00    -0.013 C 
ATOM     17  C   UNL     1     -11.312   7.007  18.821  0.00  0.00    +0.007 C 
ATOM     18  C   UNL     1     -11.781   6.231  21.162  0.00  0.00    +0.007 C 
ENDBRANCH   8  12
BRANCH   9  15
ATOM     15  C   UNL     1     -14.988   7.900  21.445  0.00  0.00    +0.112 C 
BRANCH  15   3
ATOM      2  O   UNL     1     -15.081   5.035  21.614  0.00  0.00    -0.269 OA
ATOM      3  N   UNL     1     -15.422   7.125  22.565  0.00  0.00    -0.310 N 
ATOM     21  C   UNL     1     -15.436   5.731  22.562  0.00  0.00    +0.262 C 
ATOM     33  H   UNL     1     -15.697   7.611  23.413  0.00  0.00    +0.149 HD
BRANCH  21  23
ATOM      6  N   UNL     1     -15.334   3.912  24.131  0.00  0.00    -0.250 NA
ATOM     23  C   UNL     1     -15.940   5.073  23.795  0.00  0.00    +0.125 A 
ATOM     25  C   UNL     1     -16.967   5.652  24.525  0.00  0.00    +0.033 A 
ATOM     28  C   UNL     1     -17.401   4.996  25.671  0.00  0.00    +0.004 A 
ATOM     29  C   UNL     1     -15.783   3.303  25.251  0.00  0.00    +0.111 A 
ATOM     30  C   UNL     1     -16.803   3.798  26.048  0.00  0.00    +0.020 A 
ENDBRANCH  21  23
ENDBRANCH  15   3
ENDBRANCH   9  15
BRANCH  11  16
ATOM     16  C   UNL     1     -12.363  11.487  19.541  0.00  0.00    +0.105 C 
BRANCH  16  20
ATOM      1  O   UNL     1     -12.249  10.167  17.492  0.00  0.00    -0.420 OA
ATOM      4  N   UNL     1     -10.427  11.403  17.889  0.00  0.00    -0.112 NA
ATOM      5  N   UNL     1     -10.227  10.714  16.708  0.00  0.00    -0.107 NA
ATOM     20  C   UNL     1     -11.620  11.055  18.311  0.00  0.00    +0.218 A 
ATOM     22  C   UNL     1     -11.315  10.006  16.515  0.00  0.00    +0.248 A 
BRANCH  22  24
ATOM      7  N   UNL     1     -12.346   7.350  13.390  0.00  0.00    -0.263 NA
ATOM     24  C   UNL     1     -11.665   9.106  15.455  0.00  0.00    +0.041 A 
ATOM     26  C   UNL     1     -10.669   8.446  14.743  0.00  0.00    +0.033 A 
ATOM     27  C   UNL     1     -13.000   8.889  15.135  0.00  0.00    +0.033 A 
ATOM     31  C   UNL     1     -11.059   7.586  13.729  0.00  0.00    +0.111 A 
ATOM     32  C   UNL     1     -13.285   8.010  14.103  0.00  0.00    +0.111 A 
ENDBRANCH  22  24
ENDBRANCH  16  20
ENDBRANCH  11  16
TORSDOF 7
ENDMDL
MODEL 9
REMARK VINA RESULT:      -6.2     19.819     22.223
REMARK  Name = 45784145
REMARK  10 active torsions:
REMARK  status: ('A' for Active; 'I' for Inactive)
REMARK    1  A    between atoms: N_3  and  C_15
REMARK    2  A    between atoms: C_8  and  C_12
REMARK    3  A    between atoms: C_9  and  C_15
REMARK    4  A    between atoms: C_11  and  C_16
REMARK    5  A    between atoms: C_12  and  C_17
REMARK    6  A    between atoms: C_12  and  C_18
REMARK    7  A    between atoms: C_13  and  C_19
REMARK    8  A    between atoms: C_16  and  C_20
REMARK    9  A    between atoms: C_21  and  C_23
REMARK   10  A    between atoms: C_22  and  C_24
REMARK                            x       y       z     vdW  Elec       q    Type
REMARK                         _______ _______ _______ _____ _____    ______ ____
ROOT
ATOM      8  C   UNL     1     -14.983   8.967  21.206  0.00  0.00    +0.000 C 
ATOM      9  C   UNL     1     -15.777   8.293  22.353  0.00  0.00    +0.032 C 
ATOM     10  C   UNL     1     -14.477   7.910  20.211  0.00  0.00    +0.012 C 
ATOM     11  C   UNL     1     -13.569   6.863  20.885  0.00  0.00    +0.024 C 
ATOM     13  C   UNL     1     -14.170   6.345  22.176  0.00  0.00    -0.073 C 
ATOM     14  C   UNL     1     -15.164   6.990  22.811  0.00  0.00    -0.022 C 
ATOM     19  C   UNL     1     -13.631   5.042  22.698  0.00  0.00    +0.039 C 
ENDROOT
BRANCH   8  12
ATOM     12  C   UNL     1     -15.825  10.012  20.468  0.00  0.00    -0.013 C 
ATOM     17  C   UNL     1     -15.052  10.578  19.281  0.00  0.00    +0.007 C 
ATOM     18  C   UNL     1     -17.147   9.405  20.012  0.00  0.00    +0.007 C 
ENDBRANCH   8  12
BRANCH   9  15
ATOM     15  C   UNL     1     -15.924   9.238  23.552  0.00  0.00    +0.112 C 
BRANCH  15   3
ATOM      2  O   UNL     1     -14.986  11.508  25.038  0.00  0.00    -0.269 OA
ATOM      3  N   UNL     1     -14.695   9.336  24.274  0.00  0.00    -0.310 N 
ATOM     21  C   UNL     1     -14.315  10.482  24.972  0.00  0.00    +0.262 C 
ATOM     33  H   UNL     1     -14.089   8.522  24.312  0.00  0.00    +0.149 HD
BRANCH  21  23
ATOM      6  N   UNL     1     -13.002   9.954  26.916  0.00  0.00    -0.250 NA
ATOM     23  C   UNL     1     -12.994  10.434  25.651  0.00  0.00    +0.125 A 
ATOM     25  C   UNL     1     -11.854  10.863  24.991  0.00  0.00    +0.033 A 
ATOM     28  C   UNL     1     -10.644  10.796  25.672  0.00  0.00    +0.004 A 
ATOM     29  C   UNL     1     -11.807   9.904  27.546  0.00  0.00    +0.111 A 
ATOM     30  C   UNL     1     -10.611  10.309  26.973  0.00  0.00    +0.020 A 
ENDBRANCH  21  23
ENDBRANCH  15   3
ENDBRANCH   9  15
BRANCH  11  16
ATOM     16  C   UNL     1     -12.161   7.422  21.118  0.00  0.00    +0.105 C 
BRANCH  16  20
ATOM      1  O   UNL     1     -11.503   9.418  19.878  0.00  0.00    -0.420 OA
ATOM      4  N   UNL     1     -11.208   7.504  18.758  0.00  0.00    -0.112 NA
ATOM      5  N   UNL     1     -10.797   8.543  17.944  0.00  0.00    -0.107 NA
ATOM     20  C   UNL     1     -11.611   8.061  19.876  0.00  0.00    +0.218 A 
ATOM     22  C   UNL     1     -10.987   9.640  18.638  0.00  0.00    +0.248 A 
BRANCH  22  24
ATOM      7  N   UNL     1     -10.260  13.684  17.635  0.00  0.00    -0.263 NA
ATOM     24  C   UNL     1     -10.740  11.011  18.298  0.00  0.00    +0.041 A 
ATOM     26  C   UNL     1      -9.709  11.340  17.424  0.00  0.00    +0.033 A 
ATOM     27  C   UNL     1     -11.531  12.019  18.840  0.00  0.00    +0.033 A 
ATOM     31  C   UNL     1      -9.513  12.678  17.127  0.00  0.00    +0.111 A 
ATOM     32  C   UNL     1     -11.252  13.327  18.480  0.00  0.00    +0.111 A 
ENDBRANCH  22  24
ENDBRANCH  16  20
ENDBRANCH  11  16
TORSDOF 7
ENDMDL
MODEL 10
REMARK VINA RESULT:      -6.2     25.118     28.127
REMARK  Name = 45784145
REMARK  10 active torsions:
REMARK  status: ('A' for Active; 'I' for Inactive)
REMARK    1  A    between atoms: N_3  and  C_15
REMARK    2  A    between atoms: C_8  and  C_12
REMARK    3  A    between atoms: C_9  and  C_15
REMARK    4  A    between atoms: C_11  and  C_16
REMARK    5  A    between atoms: C_12  and  C_17
REMARK    6  A    between atoms: C_12  and  C_18
REMARK    7  A    between atoms: C_13  and  C_19
REMARK    8  A    between atoms: C_16  and  C_20
REMARK    9  A    between atoms: C_21  and  C_23
REMARK   10  A    between atoms: C_22  and  C_24
REMARK                            x       y       z     vdW  Elec       q    Type
REMARK                         _______ _______ _______ _____ _____    ______ ____
ROOT
ATOM      8  C   UNL     1       8.697   8.554   5.501  0.00  0.00    +0.000 C 
ATOM      9  C   UNL     1       8.563   8.095   6.974  0.00  0.00    +0.032 C 
ATOM     10  C   UNL     1       8.298   7.419   4.547  0.00  0.00    +0.012 C 
ATOM     11  C   UNL     1       9.163   6.159   4.746  0.00  0.00    +0.024 C 
ATOM     13  C   UNL     1       9.299   5.796   6.211  0.00  0.00    -0.073 C 
ATOM     14  C   UNL     1       9.014   6.670   7.193  0.00  0.00    -0.022 C 
ATOM     19  C   UNL     1       9.727   4.389   6.523  0.00  0.00    +0.039 C 
ENDROOT
BRANCH   8  12
ATOM     12  C   UNL     1       7.848   9.796   5.212  0.00  0.00    -0.013 C 
ATOM     17  C   UNL     1       8.742  11.012   4.988  0.00  0.00    +0.007 C 
ATOM     18  C   UNL     1       6.949   9.556   4.004  0.00  0.00    +0.007 C 
ENDBRANCH   8  12
BRANCH   9  15
ATOM     15  C   UNL     1       9.337   9.026   7.916  0.00  0.00    +0.112 C 
BRANCH  15   3
ATOM      2  O   UNL     1      11.040  11.335   8.016  0.00  0.00    -0.269 OA
ATOM      3  N   UNL     1      10.717   9.085   7.550  0.00  0.00    -0.310 N 
ATOM     21  C   UNL     1      11.474  10.253   7.629  0.00  0.00    +0.262 C 
ATOM     33  H   UNL     1      11.177   8.228   7.255  0.00  0.00    +0.149 HD
BRANCH  21  23
ATOM      6  N   UNL     1      13.603  11.301   7.246  0.00  0.00    -0.250 NA
ATOM     23  C   UNL     1      12.889  10.154   7.187  0.00  0.00    +0.125 A 
ATOM     25  C   UNL     1      13.401   8.943   6.751  0.00  0.00    +0.033 A 
ATOM     28  C   UNL     1      14.731   8.905   6.350  0.00  0.00    +0.004 A 
ATOM     29  C   UNL     1      14.893  11.226   6.847  0.00  0.00    +0.111 A 
ATOM     30  C   UNL     1      15.498  10.064   6.395  0.00  0.00    +0.020 A 
ENDBRANCH  21  23
ENDBRANCH  15   3
ENDBRANCH   9  15
BRANCH  11  16
ATOM     16  C   UNL     1      10.538   6.324   4.091  0.00  0.00    +0.105 C 
BRANCH  16  20
ATOM      1  O   UNL     1      10.455   5.681   1.738  0.00  0.00    -0.420 OA
ATOM      4  N   UNL     1      11.207   4.074   3.102  0.00  0.00    -0.112 NA
ATOM      5  N   UNL     1      11.214   3.577   1.812  0.00  0.00    -0.107 NA
ATOM     20  C   UNL     1      10.759   5.305   3.011  0.00  0.00    +0.218 A 
ATOM     22  C   UNL     1      10.767   4.548   1.050  0.00  0.00    +0.248 A 
BRANCH  22  24
ATOM      7  N   UNL     1      10.157   4.698  -3.132  0.00  0.00    -0.263 NA
ATOM     24  C   UNL     1      10.560   4.599  -0.368  0.00  0.00    +0.041 A 
ATOM     26  C   UNL     1      11.284   3.762  -1.210  0.00  0.00    +0.033 A 
ATOM     27  C   UNL     1       9.635   5.486  -0.908  0.00  0.00    +0.033 A 
ATOM     31  C   UNL     1      11.047   3.849  -2.571  0.00  0.00    +0.111 A 
ATOM     32  C   UNL     1       9.473   5.496  -2.283  0.00  0.00    +0.111 A 
ENDBRANCH  22  24
ENDBRANCH  16  20
ENDBRANCH  11  16
TORSDOF 7
ENDMDL
