REMARK  Name = 51136883
REMARK  10 active torsions:
REMARK  status: ('A' for Active; 'I' for Inactive)
REMARK    1  A    between atoms: O_3  and  C_30
REMARK    2  A    between atoms: O_3  and  C_31
REMARK    3  A    between atoms: N_4  and  C_13
REMARK    4  A    between atoms: N_8  and  C_23
REMARK    5  A    between atoms: C_9  and  C_15
REMARK    6  A    between atoms: C_13  and  C_14
REMARK    7  A    between atoms: C_14  and  C_16
REMARK    8  A    between atoms: C_14  and  C_17
REMARK    9  A    between atoms: C_18  and  C_19
REMARK   10  A    between atoms: C_24  and  C_25
REMARK                            x       y       z     vdW  Elec       q    Type
REMARK                         _______ _______ _______ _____ _____    ______ ____
ROOT
ATOM      7  N   UNL     1       0.854   0.912   0.172  0.00  0.00    -0.239 NA
ATOM     19  C   UNL     1      -1.009  -0.319  -0.755  0.00  0.00    +0.041 A 
ATOM     20  C   UNL     1      -0.139  -1.295  -1.228  0.00  0.00    +0.016 A 
ATOM     21  C   UNL     1      -0.468   0.755  -0.067  0.00  0.00    +0.124 A 
ATOM     22  C   UNL     1       1.228  -1.169  -1.001  0.00  0.00    +0.044 A 
ATOM     23  C   UNL     1       1.669  -0.057  -0.303  0.00  0.00    +0.125 A 
ENDROOT
BRANCH  19  18
ATOM      1  O   UNL     1      -4.340  -1.125  -1.601  0.00  0.00    -0.336 OA
ATOM      5  N   UNL     1      -3.289   0.528  -0.515  0.00  0.00    -0.190 NA
ATOM      6  N   UNL     1      -2.977  -1.443  -1.633  0.00  0.00    -0.056 NA
ATOM     15  C   UNL     1      -4.437   0.050  -0.925  0.00  0.00    +0.245 A 
ATOM     18  C   UNL     1      -2.423  -0.421  -0.973  0.00  0.00    +0.204 A 
BRANCH  15   9
ATOM      4  N   UNL     1      -6.185   0.824   0.668  0.00  0.00    -0.291 NA
ATOM      9  C   UNL     1      -5.831   0.615  -0.750  0.00  0.00    +0.146 C 
ATOM     10  C   UNL     1      -5.996   2.000  -1.402  0.00  0.00    +0.030 C 
ATOM     11  C   UNL     1      -7.129   1.941   0.699  0.00  0.00    +0.085 C 
ATOM     12  C   UNL     1      -6.504   2.906  -0.289  0.00  0.00    +0.017 C 
BRANCH   4  13
ATOM     13  C   UNL     1      -6.727  -0.369   1.306  0.00  0.00    +0.088 C 
BRANCH  13  14
ATOM     14  C   UNL     1      -5.626  -1.331   1.785  0.00  0.00    -0.003 C 
ATOM     16  C   UNL     1      -6.193  -2.612   2.403  0.00  0.00    +0.008 C 
ATOM     17  C   UNL     1      -4.728  -0.623   2.802  0.00  0.00    +0.008 C 
ENDBRANCH  13  14
ENDBRANCH   4  13
ENDBRANCH  15   9
ENDBRANCH  19  18
BRANCH  23   8
ATOM      2  O   UNL     1       3.922  -1.863  -1.106  0.00  0.00    -0.270 OA
ATOM      8  N   UNL     1       3.046   0.061  -0.081  0.00  0.00    -0.266 N 
ATOM     24  C   UNL     1       4.058  -0.817  -0.481  0.00  0.00    +0.249 C 
ATOM     32  H   UNL     1       3.290   0.880   0.468  0.00  0.00    +0.157 HD
BRANCH  24  25
ATOM     25  C   UNL     1       5.438  -0.401  -0.119  0.00  0.00    +0.037 A 
ATOM     26  C   UNL     1       6.431  -1.363   0.065  0.00  0.00    +0.016 A 
ATOM     27  C   UNL     1       5.740   0.951   0.039  0.00  0.00    +0.016 A 
ATOM     28  C   UNL     1       7.726  -0.973   0.406  0.00  0.00    +0.046 A 
ATOM     29  C   UNL     1       7.035   1.342   0.380  0.00  0.00    +0.046 A 
ATOM     30  C   UNL     1       8.028   0.379   0.564  0.00  0.00    +0.120 A 
BRANCH  30   3
ATOM      3  O   UNL     1       9.292   0.760   0.897  0.00  0.00    -0.495 OA
ATOM     31  C   UNL     1       9.531   2.159   1.042  0.00  0.00    +0.277 C 
ENDBRANCH  30   3
ENDBRANCH  24  25
ENDBRANCH  23   8
TORSDOF 7
