MODEL 1
REMARK VINA RESULT:      -6.3      0.000      0.000
REMARK  Name = 51138169
REMARK  8 active torsions:
REMARK  status: ('A' for Active; 'I' for Inactive)
REMARK    1  A    between atoms: O_1  and  C_18
REMARK    2  A    between atoms: N_4  and  C_21
REMARK    3  A    between atoms: C_5  and  C_8
REMARK    4  A    between atoms: C_8  and  C_13
REMARK    5  A    between atoms: CA_9  and  C_18
REMARK    6  A    between atoms: C_13  and  C_19
REMARK    7  A    between atoms: C_13  and  C_20
REMARK    8  A    between atoms: C_21  and  C_22
REMARK                            x       y       z     vdW  Elec       q    Type
REMARK                         _______ _______ _______ _____ _____    ______ ____
ROOT
ATOM      3  N   UNL     1     -15.648   1.073  29.381  0.00  0.00    -0.297 NA
ATOM      4  N   UNL     1     -15.435   4.186  33.352  0.00  0.00    -0.343 N 
ATOM      5  C   UNL     1     -15.758   2.430  28.829  0.00  0.00    +0.085 C 
ATOM      6  C   UNL     1     -15.902   3.560  29.854  0.00  0.00    -0.021 A 
ATOM      7  C   UNL     1     -15.606   3.450  31.244  0.00  0.00    +0.008 A 
ATOM      9  CA  UNL     1     -14.461   0.838  30.189  0.00  0.00    +0.168 C 
ATOM     10  C   UNL     1     -15.117   2.388  32.080  0.00  0.00    -0.020 A 
ATOM     11  C   UNL     1     -14.757   0.996  31.680  0.00  0.00    +0.067 C 
ATOM     12  C   UNL     1     -15.770   4.565  32.074  0.00  0.00    +0.050 A 
ATOM     14  C   UNL     1     -15.036   2.882  33.367  0.00  0.00    +0.091 A 
ATOM     15  C   UNL     1     -16.287   4.846  29.397  0.00  0.00    +0.006 A 
ATOM     16  C   UNL     1     -16.194   5.811  31.611  0.00  0.00    +0.026 A 
ATOM     17  C   UNL     1     -16.438   5.937  30.250  0.00  0.00    +0.002 A 
ATOM     24  H   UNL     1     -16.495   0.817  29.887  0.00  0.00    +0.123 HD
ENDROOT
BRANCH   9  18
ATOM      2  OXT UNL     1     -13.074  -0.928  29.298  0.00  0.00    -0.249 OA
ATOM     18  C   UNL     1     -14.071  -0.581  29.914  0.00  0.00    +0.322 C 
BRANCH  18   1
ATOM      1  O   UNL     1     -14.979  -1.438  30.442  0.00  0.00    -0.480 OA
ATOM     25  H   UNL     1     -15.185  -2.175  29.829  0.00  0.00    +0.295 HD
ENDBRANCH  18   1
ENDBRANCH   9  18
BRANCH   5   8
ATOM      8  C   UNL     1     -16.948   2.360  27.855  0.00  0.00    +0.026 C 
BRANCH   8  13
ATOM     13  C   UNL     1     -17.202   0.947  27.322  0.00  0.00    -0.015 C 
ATOM     19  C   UNL     1     -18.664   0.521  27.455  0.00  0.00    +0.007 C 
ATOM     20  C   UNL     1     -16.774   0.878  25.854  0.00  0.00    +0.007 C 
ENDBRANCH   8  13
ENDBRANCH   5   8
BRANCH   4  21
ATOM     21  C   UNL     1     -15.475   5.038  34.521  0.00  0.00    +0.148 C 
BRANCH  21  22
ATOM     22  C   UNL     1     -14.150   5.681  34.806  0.00  0.00    -0.013 C 
ATOM     23  C   UNL     1     -13.775   6.867  34.316  0.00  0.00    +0.005 C 
ENDBRANCH  21  22
ENDBRANCH   4  21
TORSDOF 6
ENDMDL
MODEL 2
REMARK VINA RESULT:      -6.0     18.630     22.325
REMARK  Name = 51138169
REMARK  8 active torsions:
REMARK  status: ('A' for Active; 'I' for Inactive)
REMARK    1  A    between atoms: O_1  and  C_18
REMARK    2  A    between atoms: N_4  and  C_21
REMARK    3  A    between atoms: C_5  and  C_8
REMARK    4  A    between atoms: C_8  and  C_13
REMARK    5  A    between atoms: CA_9  and  C_18
REMARK    6  A    between atoms: C_13  and  C_19
REMARK    7  A    between atoms: C_13  and  C_20
REMARK    8  A    between atoms: C_21  and  C_22
REMARK                            x       y       z     vdW  Elec       q    Type
REMARK                         _______ _______ _______ _____ _____    ______ ____
ROOT
ATOM      3  N   UNL     1      -7.273  -9.715  17.764  0.00  0.00    -0.297 NA
ATOM      4  N   UNL     1      -3.246 -10.784  14.909  0.00  0.00    -0.343 N 
ATOM      5  C   UNL     1      -7.795  -9.944  16.410  0.00  0.00    +0.085 C 
ATOM      6  C   UNL     1      -6.744 -10.110  15.307  0.00  0.00    -0.021 A 
ATOM      7  C   UNL     1      -5.364 -10.393  15.524  0.00  0.00    +0.008 A 
ATOM      9  CA  UNL     1      -6.497 -10.819  18.313  0.00  0.00    +0.168 C 
ATOM     10  C   UNL     1      -4.561 -10.612  16.695  0.00  0.00    -0.020 A 
ATOM     11  C   UNL     1      -4.997 -10.600  18.123  0.00  0.00    +0.067 C 
ATOM     12  C   UNL     1      -4.509 -10.533  14.424  0.00  0.00    +0.050 A 
ATOM     14  C   UNL     1      -3.267 -10.839  16.271  0.00  0.00    +0.091 A 
ATOM     15  C   UNL     1      -7.166 -10.056  13.954  0.00  0.00    +0.006 A 
ATOM     16  C   UNL     1      -4.936 -10.432  13.100  0.00  0.00    +0.026 A 
ATOM     17  C   UNL     1      -6.288 -10.202  12.882  0.00  0.00    +0.002 A 
ATOM     24  H   UNL     1      -6.751  -8.840  17.810  0.00  0.00    +0.123 HD
ENDROOT
BRANCH   9  18
ATOM      2  OXT UNL     1      -6.021 -11.134  20.661  0.00  0.00    -0.249 OA
ATOM     18  C   UNL     1      -6.810 -10.830  19.777  0.00  0.00    +0.322 C 
BRANCH  18   1
ATOM      1  O   UNL     1      -8.094 -10.457  19.996  0.00  0.00    -0.480 OA
ATOM     25  H   UNL     1      -8.154  -9.547  20.357  0.00  0.00    +0.295 HD
ENDBRANCH  18   1
ENDBRANCH   9  18
BRANCH   5   8
ATOM      8  C   UNL     1      -8.741  -8.758  16.151  0.00  0.00    +0.026 C 
BRANCH   8  13
ATOM     13  C   UNL     1      -9.855  -8.643  17.197  0.00  0.00    -0.015 C 
ATOM     19  C   UNL     1     -10.710  -7.389  17.011  0.00  0.00    +0.007 C 
ATOM     20  C   UNL     1     -10.741  -9.888  17.125  0.00  0.00    +0.007 C 
ENDBRANCH   8  13
ENDBRANCH   5   8
BRANCH   4  21
ATOM     21  C   UNL     1      -2.060 -10.983  14.104  0.00  0.00    +0.148 C 
BRANCH  21  22
ATOM     22  C   UNL     1      -1.766 -12.435  13.866  0.00  0.00    -0.013 C 
ATOM     23  C   UNL     1      -2.267 -13.140  12.846  0.00  0.00    +0.005 C 
ENDBRANCH  21  22
ENDBRANCH   4  21
TORSDOF 6
ENDMDL
MODEL 3
REMARK VINA RESULT:      -5.9     20.556     23.985
REMARK  Name = 51138169
REMARK  8 active torsions:
REMARK  status: ('A' for Active; 'I' for Inactive)
REMARK    1  A    between atoms: O_1  and  C_18
REMARK    2  A    between atoms: N_4  and  C_21
REMARK    3  A    between atoms: C_5  and  C_8
REMARK    4  A    between atoms: C_8  and  C_13
REMARK    5  A    between atoms: CA_9  and  C_18
REMARK    6  A    between atoms: C_13  and  C_19
REMARK    7  A    between atoms: C_13  and  C_20
REMARK    8  A    between atoms: C_21  and  C_22
REMARK                            x       y       z     vdW  Elec       q    Type
REMARK                         _______ _______ _______ _____ _____    ______ ____
ROOT
ATOM      3  N   UNL     1      -6.655 -10.907  16.157  0.00  0.00    -0.297 NA
ATOM      4  N   UNL     1      -3.683 -10.273  12.122  0.00  0.00    -0.343 N 
ATOM      5  C   UNL     1      -5.291 -10.760  16.685  0.00  0.00    +0.085 C 
ATOM      6  C   UNL     1      -4.168 -10.735  15.643  0.00  0.00    -0.021 A 
ATOM      7  C   UNL     1      -4.348 -10.506  14.248  0.00  0.00    +0.008 A 
ATOM      9  CA  UNL     1      -7.106  -9.805  15.320  0.00  0.00    +0.168 C 
ATOM     10  C   UNL     1      -5.491 -10.236  13.418  0.00  0.00    -0.020 A 
ATOM     11  C   UNL     1      -6.919 -10.114  13.835  0.00  0.00    +0.067 C 
ATOM     12  C   UNL     1      -3.233 -10.496  13.402  0.00  0.00    +0.050 A 
ATOM     14  C   UNL     1      -5.037 -10.109  12.121  0.00  0.00    +0.091 A 
ATOM     15  C   UNL     1      -2.828 -10.874  16.086  0.00  0.00    +0.006 A 
ATOM     16  C   UNL     1      -1.926 -10.680  13.852  0.00  0.00    +0.026 A 
ATOM     17  C   UNL     1      -1.740 -10.857  15.217  0.00  0.00    +0.002 A 
ATOM     24  H   UNL     1      -6.765 -11.801  15.679  0.00  0.00    +0.123 HD
ENDROOT
BRANCH   9  18
ATOM      2  OXT UNL     1      -9.246 -10.482  16.215  0.00  0.00    -0.249 OA
ATOM     18  C   UNL     1      -8.568  -9.662  15.611  0.00  0.00    +0.322 C 
BRANCH  18   1
ATOM      1  O   UNL     1      -9.045  -8.496  15.112  0.00  0.00    -0.480 OA
ATOM     25  H   UNL     1      -9.859  -8.631  14.582  0.00  0.00    +0.295 HD
ENDBRANCH  18   1
ENDBRANCH   9  18
BRANCH   5   8
ATOM      8  C   UNL     1      -5.137 -11.913  17.693  0.00  0.00    +0.026 C 
BRANCH   8  13
ATOM     13  C   UNL     1      -4.754 -11.434  19.096  0.00  0.00    -0.015 C 
ATOM     19  C   UNL     1      -5.954 -11.356  20.041  0.00  0.00    +0.007 C 
ATOM     20  C   UNL     1      -3.697 -12.376  19.678  0.00  0.00    +0.007 C 
ENDBRANCH   8  13
ENDBRANCH   5   8
BRANCH   4  21
ATOM     21  C   UNL     1      -2.854 -10.198  10.938  0.00  0.00    +0.148 C 
BRANCH  21  22
ATOM     22  C   UNL     1      -3.334  -9.160   9.967  0.00  0.00    -0.013 C 
ATOM     23  C   UNL     1      -4.133  -9.424   8.928  0.00  0.00    +0.005 C 
ENDBRANCH  21  22
ENDBRANCH   4  21
TORSDOF 6
ENDMDL
MODEL 4
REMARK VINA RESULT:      -5.9     19.658     23.292
REMARK  Name = 51138169
REMARK  8 active torsions:
REMARK  status: ('A' for Active; 'I' for Inactive)
REMARK    1  A    between atoms: O_1  and  C_18
REMARK    2  A    between atoms: N_4  and  C_21
REMARK    3  A    between atoms: C_5  and  C_8
REMARK    4  A    between atoms: C_8  and  C_13
REMARK    5  A    between atoms: CA_9  and  C_18
REMARK    6  A    between atoms: C_13  and  C_19
REMARK    7  A    between atoms: C_13  and  C_20
REMARK    8  A    between atoms: C_21  and  C_22
REMARK                            x       y       z     vdW  Elec       q    Type
REMARK                         _______ _______ _______ _____ _____    ______ ____
ROOT
ATOM      3  N   UNL     1      -5.442 -10.349  17.699  0.00  0.00    -0.297 NA
ATOM      4  N   UNL     1      -2.677 -10.989  13.521  0.00  0.00    -0.343 N 
ATOM      5  C   UNL     1      -6.403 -10.382  16.587  0.00  0.00    +0.085 C 
ATOM      6  C   UNL     1      -5.797 -10.385  15.179  0.00  0.00    -0.021 A 
ATOM      7  C   UNL     1      -4.441 -10.695  14.870  0.00  0.00    +0.008 A 
ATOM      9  CA  UNL     1      -4.581 -11.519  17.794  0.00  0.00    +0.168 C 
ATOM     10  C   UNL     1      -3.299 -11.079  15.655  0.00  0.00    -0.020 A 
ATOM     11  C   UNL     1      -3.225 -11.272  17.134  0.00  0.00    +0.067 C 
ATOM     12  C   UNL     1      -4.016 -10.674  13.537  0.00  0.00    +0.050 A 
ATOM     14  C   UNL     1      -2.238 -11.240  14.787  0.00  0.00    +0.091 A 
ATOM     15  C   UNL     1      -6.650 -10.139  14.073  0.00  0.00    +0.006 A 
ATOM     16  C   UNL     1      -4.861 -10.384  12.465  0.00  0.00    +0.026 A 
ATOM     17  C   UNL     1      -6.195 -10.128  12.756  0.00  0.00    +0.002 A 
ATOM     24  H   UNL     1      -4.895  -9.489  17.682  0.00  0.00    +0.123 HD
ENDROOT
BRANCH   9  18
ATOM      2  OXT UNL     1      -3.355 -12.176  19.770  0.00  0.00    -0.249 OA
ATOM     18  C   UNL     1      -4.379 -11.741  19.261  0.00  0.00    +0.322 C 
BRANCH  18   1
ATOM      1  O   UNL     1      -5.489 -11.394  19.955  0.00  0.00    -0.480 OA
ATOM     25  H   UNL     1      -5.523 -10.430  20.133  0.00  0.00    +0.295 HD
ENDBRANCH  18   1
ENDBRANCH   9  18
BRANCH   5   8
ATOM      8  C   UNL     1      -7.323  -9.172  16.831  0.00  0.00    +0.026 C 
BRANCH   8  13
ATOM     13  C   UNL     1      -8.620  -9.545  17.556  0.00  0.00    -0.015 C 
ATOM     19  C   UNL     1      -9.700  -8.471  17.420  0.00  0.00    +0.007 C 
ATOM     20  C   UNL     1      -9.140 -10.875  17.005  0.00  0.00    +0.007 C 
ENDBRANCH   8  13
ENDBRANCH   5   8
BRANCH   4  21
ATOM     21  C   UNL     1      -1.844 -11.069  12.340  0.00  0.00    +0.148 C 
BRANCH  21  22
ATOM     22  C   UNL     1      -1.453  -9.716  11.823  0.00  0.00    -0.013 C 
ATOM     23  C   UNL     1      -1.954  -9.169  10.710  0.00  0.00    +0.005 C 
ENDBRANCH  21  22
ENDBRANCH   4  21
TORSDOF 6
ENDMDL
MODEL 5
REMARK VINA RESULT:      -5.7     33.826     35.135
REMARK  Name = 51138169
REMARK  8 active torsions:
REMARK  status: ('A' for Active; 'I' for Inactive)
REMARK    1  A    between atoms: O_1  and  C_18
REMARK    2  A    between atoms: N_4  and  C_21
REMARK    3  A    between atoms: C_5  and  C_8
REMARK    4  A    between atoms: C_8  and  C_13
REMARK    5  A    between atoms: CA_9  and  C_18
REMARK    6  A    between atoms: C_13  and  C_19
REMARK    7  A    between atoms: C_13  and  C_20
REMARK    8  A    between atoms: C_21  and  C_22
REMARK                            x       y       z     vdW  Elec       q    Type
REMARK                         _______ _______ _______ _____ _____    ______ ____
ROOT
ATOM      3  N   UNL     1      18.826   8.784  22.479  0.00  0.00    -0.297 NA
ATOM      4  N   UNL     1      14.518   8.675  19.846  0.00  0.00    -0.343 N 
ATOM      5  C   UNL     1      19.029   7.781  21.425  0.00  0.00    +0.085 C 
ATOM      6  C   UNL     1      17.793   7.424  20.593  0.00  0.00    -0.021 A 
ATOM      7  C   UNL     1      16.597   8.198  20.526  0.00  0.00    +0.008 A 
ATOM      9  CA  UNL     1      18.453  10.106  21.997  0.00  0.00    +0.168 C 
ATOM     10  C   UNL     1      16.173   9.436  21.122  0.00  0.00    -0.020 A 
ATOM     11  C   UNL     1      16.941  10.317  22.051  0.00  0.00    +0.067 C 
ATOM     12  C   UNL     1      15.541   7.767  19.715  0.00  0.00    +0.050 A 
ATOM     14  C   UNL     1      14.888   9.685  20.684  0.00  0.00    +0.091 A 
ATOM     15  C   UNL     1      17.844   6.281  19.756  0.00  0.00    +0.006 A 
ATOM     16  C   UNL     1      15.595   6.612  18.934  0.00  0.00    +0.026 A 
ATOM     17  C   UNL     1      16.774   5.880  18.958  0.00  0.00    +0.002 A 
ATOM     24  H   UNL     1      18.167   8.448  23.180  0.00  0.00    +0.123 HD
ENDROOT
BRANCH   9  18
ATOM      2  OXT UNL     1      20.266  11.472  22.825  0.00  0.00    -0.249 OA
ATOM     18  C   UNL     1      19.116  11.069  22.933  0.00  0.00    +0.322 C 
BRANCH  18   1
ATOM      1  O   UNL     1      18.268  11.436  23.923  0.00  0.00    -0.480 OA
ATOM     25  H   UNL     1      18.683  11.356  24.808  0.00  0.00    +0.295 HD
ENDBRANCH  18   1
ENDBRANCH   9  18
BRANCH   5   8
ATOM      8  C   UNL     1      19.620   6.562  22.156  0.00  0.00    +0.026 C 
BRANCH   8  13
ATOM     13  C   UNL     1      20.987   6.141  21.608  0.00  0.00    -0.015 C 
ATOM     19  C   UNL     1      20.954   4.769  20.933  0.00  0.00    +0.007 C 
ATOM     20  C   UNL     1      21.476   7.195  20.612  0.00  0.00    +0.007 C 
ENDBRANCH   8  13
ENDBRANCH   5   8
BRANCH   4  21
ATOM     21  C   UNL     1      13.234   8.599  19.182  0.00  0.00    +0.148 C 
BRANCH  21  22
ATOM     22  C   UNL     1      12.144   8.120  20.095  0.00  0.00    -0.013 C 
ATOM     23  C   UNL     1      12.084   6.883  20.600  0.00  0.00    +0.005 C 
ENDBRANCH  21  22
ENDBRANCH   4  21
TORSDOF 6
ENDMDL
MODEL 6
REMARK VINA RESULT:      -5.6     19.789     23.250
REMARK  Name = 51138169
REMARK  8 active torsions:
REMARK  status: ('A' for Active; 'I' for Inactive)
REMARK    1  A    between atoms: O_1  and  C_18
REMARK    2  A    between atoms: N_4  and  C_21
REMARK    3  A    between atoms: C_5  and  C_8
REMARK    4  A    between atoms: C_8  and  C_13
REMARK    5  A    between atoms: CA_9  and  C_18
REMARK    6  A    between atoms: C_13  and  C_19
REMARK    7  A    between atoms: C_13  and  C_20
REMARK    8  A    between atoms: C_21  and  C_22
REMARK                            x       y       z     vdW  Elec       q    Type
REMARK                         _______ _______ _______ _____ _____    ______ ____
ROOT
ATOM      3  N   UNL     1      -3.250 -11.277  14.481  0.00  0.00    -0.297 NA
ATOM      4  N   UNL     1      -7.686  -9.926  16.483  0.00  0.00    -0.343 N 
ATOM      5  C   UNL     1      -4.031 -10.710  13.373  0.00  0.00    +0.085 C 
ATOM      6  C   UNL     1      -5.497 -10.388  13.682  0.00  0.00    -0.021 A 
ATOM      7  C   UNL     1      -6.053 -10.272  14.990  0.00  0.00    +0.008 A 
ATOM      9  CA  UNL     1      -3.081 -10.390  15.623  0.00  0.00    +0.168 C 
ATOM     10  C   UNL     1      -5.515 -10.385  16.318  0.00  0.00    -0.020 A 
ATOM     11  C   UNL     1      -4.108 -10.681  16.716  0.00  0.00    +0.067 C 
ATOM     12  C   UNL     1      -7.409  -9.959  15.137  0.00  0.00    +0.050 A 
ATOM     14  C   UNL     1      -6.554 -10.174  17.202  0.00  0.00    +0.091 A 
ATOM     15  C   UNL     1      -6.372 -10.104  12.604  0.00  0.00    +0.006 A 
ATOM     16  C   UNL     1      -8.265  -9.728  14.059  0.00  0.00    +0.026 A 
ATOM     17  C   UNL     1      -7.718  -9.793  12.784  0.00  0.00    +0.002 A 
ATOM     24  H   UNL     1      -3.629 -12.179  14.768  0.00  0.00    +0.123 HD
ENDROOT
BRANCH   9  18
ATOM      2  OXT UNL     1      -0.667 -10.458  15.548  0.00  0.00    -0.249 OA
ATOM     18  C   UNL     1      -1.709 -10.681  16.147  0.00  0.00    +0.322 C 
BRANCH  18   1
ATOM      1  O   UNL     1      -1.776 -11.231  17.384  0.00  0.00    -0.480 OA
ATOM     25  H   UNL     1      -1.779 -12.211  17.349  0.00  0.00    +0.295 HD
ENDBRANCH  18   1
ENDBRANCH   9  18
BRANCH   5   8
ATOM      8  C   UNL     1      -3.880 -11.729  12.228  0.00  0.00    +0.026 C 
BRANCH   8  13
ATOM     13  C   UNL     1      -3.095 -11.175  11.035  0.00  0.00    -0.015 C 
ATOM     19  C   UNL     1      -4.001 -10.765   9.873  0.00  0.00    +0.007 C 
ATOM     20  C   UNL     1      -2.266  -9.973  11.493  0.00  0.00    +0.007 C 
ENDBRANCH   8  13
ENDBRANCH   5   8
BRANCH   4  21
ATOM     21  C   UNL     1      -8.979  -9.648  17.071  0.00  0.00    +0.148 C 
BRANCH  21  22
ATOM     22  C   UNL     1      -9.249  -8.177  17.192  0.00  0.00    -0.013 C 
ATOM     23  C   UNL     1     -10.422  -7.607  16.899  0.00  0.00    +0.005 C 
ENDBRANCH  21  22
ENDBRANCH   4  21
TORSDOF 6
ENDMDL
MODEL 7
REMARK VINA RESULT:      -5.5     19.285     21.583
REMARK  Name = 51138169
REMARK  8 active torsions:
REMARK  status: ('A' for Active; 'I' for Inactive)
REMARK    1  A    between atoms: O_1  and  C_18
REMARK    2  A    between atoms: N_4  and  C_21
REMARK    3  A    between atoms: C_5  and  C_8
REMARK    4  A    between atoms: C_8  and  C_13
REMARK    5  A    between atoms: CA_9  and  C_18
REMARK    6  A    between atoms: C_13  and  C_19
REMARK    7  A    between atoms: C_13  and  C_20
REMARK    8  A    between atoms: C_21  and  C_22
REMARK                            x       y       z     vdW  Elec       q    Type
REMARK                         _______ _______ _______ _____ _____    ______ ____
ROOT
ATOM      3  N   UNL     1      -8.883 -10.219  17.751  0.00  0.00    -0.297 NA
ATOM      4  N   UNL     1      -4.213 -11.043  16.012  0.00  0.00    -0.343 N 
ATOM      5  C   UNL     1      -8.058 -10.485  18.937  0.00  0.00    +0.085 C 
ATOM      6  C   UNL     1      -6.623 -10.948  18.664  0.00  0.00    -0.021 A 
ATOM      7  C   UNL     1      -5.941 -10.817  17.419  0.00  0.00    +0.008 A 
ATOM      9  CA  UNL     1      -8.414  -9.121  16.917  0.00  0.00    +0.168 C 
ATOM     10  C   UNL     1      -6.294 -10.265  16.140  0.00  0.00    -0.020 A 
ATOM     11  C   UNL     1      -7.582  -9.626  15.740  0.00  0.00    +0.067 C 
ATOM     12  C   UNL     1      -4.622 -11.271  17.305  0.00  0.00    +0.050 A 
ATOM     14  C   UNL     1      -5.207 -10.433  15.305  0.00  0.00    +0.091 A 
ATOM     15  C   UNL     1      -5.867 -11.484  19.738  0.00  0.00    +0.006 A 
ATOM     16  C   UNL     1      -3.910 -11.838  18.363  0.00  0.00    +0.026 A 
ATOM     17  C   UNL     1      -4.554 -11.925  19.591  0.00  0.00    +0.002 A 
ATOM     24  H   UNL     1      -9.016 -11.067  17.202  0.00  0.00    +0.123 HD
ENDROOT
BRANCH   9  18
ATOM      2  OXT UNL     1     -10.797  -8.782  16.698  0.00  0.00    -0.249 OA
ATOM     18  C   UNL     1      -9.655  -8.465  16.395  0.00  0.00    +0.322 C 
BRANCH  18   1
ATOM      1  O   UNL     1      -9.343  -7.466  15.535  0.00  0.00    -0.480 OA
ATOM     25  H   UNL     1      -8.419  -7.160  15.649  0.00  0.00    +0.295 HD
ENDBRANCH  18   1
ENDBRANCH   9  18
BRANCH   5   8
ATOM      8  C   UNL     1      -8.866 -11.512  19.751  0.00  0.00    +0.026 C 
BRANCH   8  13
ATOM     13  C   UNL     1      -9.584 -12.540  18.871  0.00  0.00    -0.015 C 
ATOM     19  C   UNL     1      -8.776 -13.826  18.687  0.00  0.00    +0.007 C 
ATOM     20  C   UNL     1     -10.945 -12.868  19.489  0.00  0.00    +0.007 C 
ENDBRANCH   8  13
ENDBRANCH   5   8
BRANCH   4  21
ATOM     21  C   UNL     1      -2.914 -11.374  15.469  0.00  0.00    +0.148 C 
BRANCH  21  22
ATOM     22  C   UNL     1      -1.828 -10.483  15.996  0.00  0.00    -0.013 C 
ATOM     23  C   UNL     1      -1.057  -9.709  15.225  0.00  0.00    +0.005 C 
ENDBRANCH  21  22
ENDBRANCH   4  21
TORSDOF 6
ENDMDL
MODEL 8
REMARK VINA RESULT:      -5.5     12.887     15.455
REMARK  Name = 51138169
REMARK  8 active torsions:
REMARK  status: ('A' for Active; 'I' for Inactive)
REMARK    1  A    between atoms: O_1  and  C_18
REMARK    2  A    between atoms: N_4  and  C_21
REMARK    3  A    between atoms: C_5  and  C_8
REMARK    4  A    between atoms: C_8  and  C_13
REMARK    5  A    between atoms: CA_9  and  C_18
REMARK    6  A    between atoms: C_13  and  C_19
REMARK    7  A    between atoms: C_13  and  C_20
REMARK    8  A    between atoms: C_21  and  C_22
REMARK                            x       y       z     vdW  Elec       q    Type
REMARK                         _______ _______ _______ _____ _____    ______ ____
ROOT
ATOM      3  N   UNL     1     -11.624   9.374  16.074  0.00  0.00    -0.297 NA
ATOM      4  N   UNL     1     -15.231   7.505  19.074  0.00  0.00    -0.343 N 
ATOM      5  C   UNL     1     -10.921   8.783  17.221  0.00  0.00    +0.085 C 
ATOM      6  C   UNL     1     -11.807   8.304  18.375  0.00  0.00    -0.021 A 
ATOM      7  C   UNL     1     -13.212   8.076  18.291  0.00  0.00    +0.008 A 
ATOM      9  CA  UNL     1     -12.502   8.458  15.360  0.00  0.00    +0.168 C 
ATOM     10  C   UNL     1     -14.181   8.183  17.234  0.00  0.00    -0.020 A 
ATOM     11  C   UNL     1     -13.952   8.597  15.819  0.00  0.00    +0.067 C 
ATOM     12  C   UNL     1     -13.906   7.625  19.420  0.00  0.00    +0.050 A 
ATOM     14  C   UNL     1     -15.407   7.831  17.762  0.00  0.00    +0.091 A 
ATOM     15  C   UNL     1     -11.195   7.983  19.613  0.00  0.00    +0.006 A 
ATOM     16  C   UNL     1     -13.291   7.359  20.644  0.00  0.00    +0.026 A 
ATOM     17  C   UNL     1     -11.915   7.534  20.718  0.00  0.00    +0.002 A 
ATOM     24  H   UNL     1     -12.121  10.221  16.349  0.00  0.00    +0.123 HD
ENDROOT
BRANCH   9  18
ATOM      2  OXT UNL     1     -13.296   8.737  13.094  0.00  0.00    -0.249 OA
ATOM     18  C   UNL     1     -12.402   8.859  13.920  0.00  0.00    +0.322 C 
BRANCH  18   1
ATOM      1  O   UNL     1     -11.180   9.378  13.651  0.00  0.00    -0.480 OA
ATOM     25  H   UNL     1     -10.461   8.855  14.065  0.00  0.00    +0.295 HD
ENDBRANCH  18   1
ENDBRANCH   9  18
BRANCH   5   8
ATOM      8  C   UNL     1      -9.913   9.861  17.658  0.00  0.00    +0.026 C 
BRANCH   8  13
ATOM     13  C   UNL     1     -10.447  11.286  17.480  0.00  0.00    -0.015 C 
ATOM     19  C   UNL     1     -11.076  11.843  18.758  0.00  0.00    +0.007 C 
ATOM     20  C   UNL     1      -9.306  12.198  17.024  0.00  0.00    +0.007 C 
ENDBRANCH   8  13
ENDBRANCH   5   8
BRANCH   4  21
ATOM     21  C   UNL     1     -16.296   7.075  19.955  0.00  0.00    +0.148 C 
BRANCH  21  22
ATOM     22  C   UNL     1     -16.452   5.583  19.980  0.00  0.00    -0.013 C 
ATOM     23  C   UNL     1     -17.223   4.900  19.127  0.00  0.00    +0.005 C 
ENDBRANCH  21  22
ENDBRANCH   4  21
TORSDOF 6
ENDMDL
MODEL 9
REMARK VINA RESULT:      -5.4     24.202     26.091
REMARK  Name = 51138169
REMARK  8 active torsions:
REMARK  status: ('A' for Active; 'I' for Inactive)
REMARK    1  A    between atoms: O_1  and  C_18
REMARK    2  A    between atoms: N_4  and  C_21
REMARK    3  A    between atoms: C_5  and  C_8
REMARK    4  A    between atoms: C_8  and  C_13
REMARK    5  A    between atoms: CA_9  and  C_18
REMARK    6  A    between atoms: C_13  and  C_19
REMARK    7  A    between atoms: C_13  and  C_20
REMARK    8  A    between atoms: C_21  and  C_22
REMARK                            x       y       z     vdW  Elec       q    Type
REMARK                         _______ _______ _______ _____ _____    ______ ____
ROOT
ATOM      3  N   UNL     1       6.037  -8.216  34.732  0.00  0.00    -0.297 NA
ATOM      4  N   UNL     1       6.571 -12.540  32.179  0.00  0.00    -0.343 N 
ATOM      5  C   UNL     1       6.043  -7.841  33.311  0.00  0.00    +0.085 C 
ATOM      6  C   UNL     1       6.378  -8.964  32.324  0.00  0.00    -0.021 A 
ATOM      7  C   UNL     1       6.346 -10.357  32.624  0.00  0.00    +0.008 A 
ATOM      9  CA  UNL     1       5.020  -9.191  35.099  0.00  0.00    +0.168 C 
ATOM     10  C   UNL     1       6.019 -11.119  33.799  0.00  0.00    -0.020 A 
ATOM     11  C   UNL     1       5.588 -10.609  35.133  0.00  0.00    +0.067 C 
ATOM     12  C   UNL     1       6.663 -11.285  31.625  0.00  0.00    +0.050 A 
ATOM     14  C   UNL     1       6.180 -12.453  33.482  0.00  0.00    +0.091 A 
ATOM     15  C   UNL     1       6.673  -8.621  30.980  0.00  0.00    +0.006 A 
ATOM     16  C   UNL     1       6.995 -10.925  30.319  0.00  0.00    +0.026 A 
ATOM     17  C   UNL     1       6.982  -9.571  30.008  0.00  0.00    +0.002 A 
ATOM     24  H   UNL     1       6.963  -8.518  35.033  0.00  0.00    +0.123 HD
ENDROOT
BRANCH   9  18
ATOM      2  OXT UNL     1       3.806  -9.443  37.174  0.00  0.00    -0.249 OA
ATOM     18  C   UNL     1       4.584  -8.804  36.479  0.00  0.00    +0.322 C 
BRANCH  18   1
ATOM      1  O   UNL     1       5.170  -7.643  36.858  0.00  0.00    -0.480 OA
ATOM     25  H   UNL     1       5.837  -7.783  37.563  0.00  0.00    +0.295 HD
ENDBRANCH  18   1
ENDBRANCH   9  18
BRANCH   5   8
ATOM      8  C   UNL     1       7.031  -6.664  33.223  0.00  0.00    +0.026 C 
BRANCH   8  13
ATOM     13  C   UNL     1       8.228  -6.816  34.167  0.00  0.00    -0.015 C 
ATOM     19  C   UNL     1       9.485  -7.308  33.450  0.00  0.00    +0.007 C 
ATOM     20  C   UNL     1       8.510  -5.472  34.843  0.00  0.00    +0.007 C 
ENDBRANCH   8  13
ENDBRANCH   5   8
BRANCH   4  21
ATOM     21  C   UNL     1       6.829 -13.786  31.488  0.00  0.00    +0.148 C 
BRANCH  21  22
ATOM     22  C   UNL     1       5.570 -14.449  31.014  0.00  0.00    -0.013 C 
ATOM     23  C   UNL     1       4.747 -13.922  30.101  0.00  0.00    +0.005 C 
ENDBRANCH  21  22
ENDBRANCH   4  21
TORSDOF 6
ENDMDL
MODEL 10
REMARK VINA RESULT:      -5.4     32.614     34.597
REMARK  Name = 51138169
REMARK  8 active torsions:
REMARK  status: ('A' for Active; 'I' for Inactive)
REMARK    1  A    between atoms: O_1  and  C_18
REMARK    2  A    between atoms: N_4  and  C_21
REMARK    3  A    between atoms: C_5  and  C_8
REMARK    4  A    between atoms: C_8  and  C_13
REMARK    5  A    between atoms: CA_9  and  C_18
REMARK    6  A    between atoms: C_13  and  C_19
REMARK    7  A    between atoms: C_13  and  C_20
REMARK    8  A    between atoms: C_21  and  C_22
REMARK                            x       y       z     vdW  Elec       q    Type
REMARK                         _______ _______ _______ _____ _____    ______ ____
ROOT
ATOM      3  N   UNL     1      17.628  -3.650  23.186  0.00  0.00    -0.297 NA
ATOM      4  N   UNL     1      17.804  -3.665  28.233  0.00  0.00    -0.343 N 
ATOM      5  C   UNL     1      17.263  -5.014  23.593  0.00  0.00    +0.085 C 
ATOM      6  C   UNL     1      17.419  -5.332  25.084  0.00  0.00    -0.021 A 
ATOM      7  C   UNL     1      17.552  -4.363  26.120  0.00  0.00    +0.008 A 
ATOM      9  CA  UNL     1      16.797  -2.601  23.760  0.00  0.00    +0.168 C 
ATOM     10  C   UNL     1      17.572  -2.925  26.148  0.00  0.00    -0.020 A 
ATOM     11  C   UNL     1      17.448  -1.984  24.996  0.00  0.00    +0.067 C 
ATOM     12  C   UNL     1      17.675  -4.787  27.449  0.00  0.00    +0.050 A 
ATOM     14  C   UNL     1      17.737  -2.541  27.463  0.00  0.00    +0.091 A 
ATOM     15  C   UNL     1      17.354  -6.686  25.499  0.00  0.00    +0.006 A 
ATOM     16  C   UNL     1      17.654  -6.128  27.832  0.00  0.00    +0.026 A 
ATOM     17  C   UNL     1      17.478  -7.075  26.832  0.00  0.00    +0.002 A 
ATOM     24  H   UNL     1      18.617  -3.472  23.356  0.00  0.00    +0.123 HD
ENDROOT
BRANCH   9  18
ATOM      2  OXT UNL     1      15.686  -0.894  22.460  0.00  0.00    -0.249 OA
ATOM     18  C   UNL     1      16.687  -1.558  22.691  0.00  0.00    +0.322 C 
BRANCH  18   1
ATOM      1  O   UNL     1      17.851  -1.447  22.007  0.00  0.00    -0.480 OA
ATOM     25  H   UNL     1      17.781  -0.806  21.268  0.00  0.00    +0.295 HD
ENDBRANCH  18   1
ENDBRANCH   9  18
BRANCH   5   8
ATOM      8  C   UNL     1      18.121  -5.930  22.701  0.00  0.00    +0.026 C 
BRANCH   8  13
ATOM     13  C   UNL     1      19.471  -5.309  22.331  0.00  0.00    -0.015 C 
ATOM     19  C   UNL     1      20.598  -5.749  23.265  0.00  0.00    +0.007 C 
ATOM     20  C   UNL     1      19.819  -5.684  20.888  0.00  0.00    +0.007 C 
ENDBRANCH   8  13
ENDBRANCH   5   8
BRANCH   4  21
ATOM     21  C   UNL     1      17.966  -3.657  29.671  0.00  0.00    +0.148 C 
BRANCH  21  22
ATOM     22  C   UNL     1      17.504  -2.372  30.293  0.00  0.00    -0.013 C 
ATOM     23  C   UNL     1      16.313  -2.214  30.881  0.00  0.00    +0.005 C 
ENDBRANCH  21  22
ENDBRANCH   4  21
TORSDOF 6
ENDMDL
