MODEL 1
REMARK VINA RESULT:      -7.2      0.000      0.000
REMARK  Name = 11941436
REMARK  7 active torsions:
REMARK  status: ('A' for Active; 'I' for Inactive)
REMARK    1  A    between atoms: O_4  and  C_28
REMARK    2  A    between atoms: O_4  and  C_33
REMARK    3  A    between atoms: O_5  and  C_32
REMARK    4  A    between atoms: O_5  and  C_34
REMARK    5  A    between atoms: N_7  and  C_9
REMARK    6  A    between atoms: C_12  and  C_18
REMARK    7  A    between atoms: C_25  and  C_27
REMARK                            x       y       z     vdW  Elec       q    Type
REMARK                         _______ _______ _______ _____ _____    ______ ____
ROOT
ATOM      2  O   UNL     1       9.833  13.267  24.996  0.00  0.00    -0.273 OA
ATOM      3  O   UNL     1      14.103  13.086  21.915  0.00  0.00    -0.270 OA
ATOM      6  N   UNL     1      12.932  13.329  23.880  0.00  0.00    -0.284 N 
ATOM      8  N   UNL     1      10.547  11.635  23.578  0.00  0.00    -0.283 N 
ATOM      9  C   UNL     1      12.357  13.820  26.120  0.00  0.00    +0.104 C 
ATOM     10  C   UNL     1      12.195  12.781  25.002  0.00  0.00    +0.183 C 
ATOM     11  C   UNL     1      12.580  15.129  25.360  0.00  0.00    +0.043 C 
ATOM     13  C   UNL     1      13.369  14.694  24.135  0.00  0.00    +0.111 C 
ATOM     19  C   UNL     1      10.767  12.623  24.515  0.00  0.00    +0.240 C 
ATOM     20  C   UNL     1      13.341  12.628  22.766  0.00  0.00    +0.249 C 
ATOM     21  C   UNL     1      12.811  11.252  22.572  0.00  0.00    +0.059 A 
ATOM     22  C   UNL     1      11.497  10.860  22.876  0.00  0.00    +0.046 A 
ATOM     23  C   UNL     1      13.656  10.362  21.884  0.00  0.00    +0.023 A 
ATOM     24  C   UNL     1      11.041   9.609  22.426  0.00  0.00    +0.024 A 
ATOM     25  C   UNL     1      13.201   9.106  21.487  0.00  0.00    -0.014 A 
ATOM     26  C   UNL     1      11.889   8.734  21.747  0.00  0.00    +0.010 A 
ATOM     36  H   UNL     1       9.573  11.377  23.437  0.00  0.00    +0.155 HD
ENDROOT
BRANCH  25  27
ATOM     27  C   UNL     1      14.086   8.203  20.785  0.00  0.00    +0.024 A 
ATOM     28  C   UNL     1      14.071   8.123  19.390  0.00  0.00    +0.131 A 
ATOM     29  C   UNL     1      14.966   7.403  21.517  0.00  0.00    +0.016 A 
ATOM     30  C   UNL     1      14.932   7.246  18.732  0.00  0.00    +0.091 A 
ATOM     31  C   UNL     1      15.828   6.527  20.857  0.00  0.00    +0.046 A 
ATOM     32  C   UNL     1      15.811   6.448  19.465  0.00  0.00    +0.124 A 
BRANCH  28   4
ATOM      4  O   UNL     1      13.223   8.891  18.648  0.00  0.00    -0.494 OA
ATOM     33  C   UNL     1      12.227   8.208  17.891  0.00  0.00    +0.277 C 
ENDBRANCH  28   4
BRANCH  32   5
ATOM      5  O   UNL     1      16.652   5.592  18.821  0.00  0.00    -0.495 OA
ATOM     34  C   UNL     1      18.016   5.585  19.239  0.00  0.00    +0.277 C 
ENDBRANCH  32   5
ENDBRANCH  25  27
BRANCH   9   7
ATOM      1  O   UNL     1      13.079  15.054  28.647  0.00  0.00    -0.276 OA
ATOM      7  N   UNL     1      13.491  13.504  26.960  0.00  0.00    -0.310 N 
ATOM     18  C   UNL     1      13.751  14.152  28.155  0.00  0.00    +0.216 C 
ATOM     35  H   UNL     1      14.081  12.725  26.685  0.00  0.00    +0.149 HD
BRANCH  18  12
ATOM     12  C   UNL     1      14.972  13.613  28.837  0.00  0.00    +0.075 C 
ATOM     14  C   UNL     1      15.267  12.189  28.350  0.00  0.00    +0.013 C 
ATOM     15  C   UNL     1      14.746  13.511  30.347  0.00  0.00    +0.013 C 
ATOM     16  C   UNL     1      15.303  11.320  29.604  0.00  0.00    +0.001 C 
ATOM     17  C   UNL     1      14.404  12.048  30.587  0.00  0.00    +0.001 C 
ENDBRANCH  18  12
ENDBRANCH   9   7
TORSDOF 5
ENDMDL
MODEL 2
REMARK VINA RESULT:      -7.1     29.135     31.200
REMARK  Name = 11941436
REMARK  7 active torsions:
REMARK  status: ('A' for Active; 'I' for Inactive)
REMARK    1  A    between atoms: O_4  and  C_28
REMARK    2  A    between atoms: O_4  and  C_33
REMARK    3  A    between atoms: O_5  and  C_32
REMARK    4  A    between atoms: O_5  and  C_34
REMARK    5  A    between atoms: N_7  and  C_9
REMARK    6  A    between atoms: C_12  and  C_18
REMARK    7  A    between atoms: C_25  and  C_27
REMARK                            x       y       z     vdW  Elec       q    Type
REMARK                         _______ _______ _______ _____ _____    ______ ____
ROOT
ATOM      2  O   UNL     1      -1.450 -11.387  14.519  0.00  0.00    -0.273 OA
ATOM      3  O   UNL     1      -5.816 -12.779  11.920  0.00  0.00    -0.270 OA
ATOM      6  N   UNL     1      -4.578 -12.028  13.706  0.00  0.00    -0.284 N 
ATOM      8  N   UNL     1      -2.264 -10.649  12.524  0.00  0.00    -0.283 N 
ATOM      9  C   UNL     1      -3.917 -11.372  15.880  0.00  0.00    +0.104 C 
ATOM     10  C   UNL     1      -3.826 -10.996  14.395  0.00  0.00    +0.183 C 
ATOM     11  C   UNL     1      -4.117 -12.889  15.852  0.00  0.00    +0.043 C 
ATOM     13  C   UNL     1      -4.958 -13.109  14.604  0.00  0.00    +0.111 C 
ATOM     19  C   UNL     1      -2.420 -11.069  13.829  0.00  0.00    +0.240 C 
ATOM     20  C   UNL     1      -5.045 -11.955  12.412  0.00  0.00    +0.249 C 
ATOM     21  C   UNL     1      -4.571 -10.834  11.559  0.00  0.00    +0.059 A 
ATOM     22  C   UNL     1      -3.262 -10.323  11.580  0.00  0.00    +0.046 A 
ATOM     23  C   UNL     1      -5.467 -10.398  10.566  0.00  0.00    +0.023 A 
ATOM     24  C   UNL     1      -2.865  -9.435  10.565  0.00  0.00    +0.024 A 
ATOM     25  C   UNL     1      -5.069  -9.480   9.595  0.00  0.00    -0.014 A 
ATOM     26  C   UNL     1      -3.764  -9.008   9.587  0.00  0.00    +0.010 A 
ATOM     36  H   UNL     1      -1.305 -10.475  12.235  0.00  0.00    +0.155 HD
ENDROOT
BRANCH  25  27
ATOM     27  C   UNL     1      -6.007  -9.040   8.586  0.00  0.00    +0.024 A 
ATOM     28  C   UNL     1      -6.006  -9.609   7.310  0.00  0.00    +0.131 A 
ATOM     29  C   UNL     1      -6.923  -8.034   8.897  0.00  0.00    +0.016 A 
ATOM     30  C   UNL     1      -6.919  -9.171   6.350  0.00  0.00    +0.091 A 
ATOM     31  C   UNL     1      -7.835  -7.597   7.937  0.00  0.00    +0.046 A 
ATOM     32  C   UNL     1      -7.833  -8.166   6.663  0.00  0.00    +0.124 A 
BRANCH  28   4
ATOM      4  O   UNL     1      -5.124 -10.594   6.976  0.00  0.00    -0.494 OA
ATOM     33  C   UNL     1      -5.324 -11.245   5.724  0.00  0.00    +0.277 C 
ENDBRANCH  28   4
BRANCH  32   5
ATOM      5  O   UNL     1      -8.723  -7.739   5.726  0.00  0.00    -0.495 OA
ATOM     34  C   UNL     1      -9.814  -6.941   6.183  0.00  0.00    +0.277 C 
ENDBRANCH  32   5
ENDBRANCH  25  27
BRANCH   9   7
ATOM      1  O   UNL     1      -4.509 -11.238  18.719  0.00  0.00    -0.276 OA
ATOM      7  N   UNL     1      -5.035 -10.710  16.514  0.00  0.00    -0.310 N 
ATOM     18  C   UNL     1      -5.232 -10.701  17.884  0.00  0.00    +0.216 C 
ATOM     35  H   UNL     1      -5.665 -10.174  15.924  0.00  0.00    +0.149 HD
BRANCH  18  12
ATOM     12  C   UNL     1      -6.450  -9.922  18.276  0.00  0.00    +0.075 C 
ATOM     14  C   UNL     1      -7.249 -10.686  19.339  0.00  0.00    +0.013 C 
ATOM     15  C   UNL     1      -7.387  -9.747  17.080  0.00  0.00    +0.013 C 
ATOM     16  C   UNL     1      -8.656 -10.843  18.768  0.00  0.00    +0.001 C 
ATOM     17  C   UNL     1      -8.452 -10.819  17.264  0.00  0.00    +0.001 C 
ENDBRANCH  18  12
ENDBRANCH   9   7
TORSDOF 5
ENDMDL
MODEL 3
REMARK VINA RESULT:      -7.1     18.047     20.697
REMARK  Name = 11941436
REMARK  7 active torsions:
REMARK  status: ('A' for Active; 'I' for Inactive)
REMARK    1  A    between atoms: O_4  and  C_28
REMARK    2  A    between atoms: O_4  and  C_33
REMARK    3  A    between atoms: O_5  and  C_32
REMARK    4  A    between atoms: O_5  and  C_34
REMARK    5  A    between atoms: N_7  and  C_9
REMARK    6  A    between atoms: C_12  and  C_18
REMARK    7  A    between atoms: C_25  and  C_27
REMARK                            x       y       z     vdW  Elec       q    Type
REMARK                         _______ _______ _______ _____ _____    ______ ____
ROOT
ATOM      2  O   UNL     1       9.757   9.284   5.330  0.00  0.00    -0.273 OA
ATOM      3  O   UNL     1      13.547   6.337   7.499  0.00  0.00    -0.270 OA
ATOM      6  N   UNL     1      11.752   6.789   6.134  0.00  0.00    -0.284 N 
ATOM      8  N   UNL     1      12.004   9.634   5.434  0.00  0.00    -0.283 N 
ATOM      9  C   UNL     1       9.905   6.546   4.678  0.00  0.00    +0.104 C 
ATOM     10  C   UNL     1      11.172   7.371   4.939  0.00  0.00    +0.183 C 
ATOM     11  C   UNL     1       9.519   6.036   6.069  0.00  0.00    +0.043 C 
ATOM     13  C   UNL     1      10.863   5.811   6.745  0.00  0.00    +0.111 C 
ATOM     19  C   UNL     1      10.899   8.823   5.284  0.00  0.00    +0.240 C 
ATOM     20  C   UNL     1      13.045   6.976   6.575  0.00  0.00    +0.249 C 
ATOM     21  C   UNL     1      13.865   8.023   5.912  0.00  0.00    +0.059 A 
ATOM     22  C   UNL     1      13.366   9.265   5.483  0.00  0.00    +0.046 A 
ATOM     23  C   UNL     1      15.252   7.789   5.884  0.00  0.00    +0.023 A 
ATOM     24  C   UNL     1      14.277  10.264   5.097  0.00  0.00    +0.024 A 
ATOM     25  C   UNL     1      16.137   8.776   5.452  0.00  0.00    -0.014 A 
ATOM     26  C   UNL     1      15.649  10.018   5.071  0.00  0.00    +0.010 A 
ATOM     36  H   UNL     1      11.816  10.634   5.427  0.00  0.00    +0.155 HD
ENDROOT
BRANCH  25  27
ATOM     27  C   UNL     1      17.559   8.514   5.426  0.00  0.00    +0.024 A 
ATOM     28  C   UNL     1      18.186   8.079   4.256  0.00  0.00    +0.131 A 
ATOM     29  C   UNL     1      18.309   8.701   6.589  0.00  0.00    +0.016 A 
ATOM     30  C   UNL     1      19.559   7.831   4.251  0.00  0.00    +0.091 A 
ATOM     31  C   UNL     1      19.682   8.454   6.582  0.00  0.00    +0.046 A 
ATOM     32  C   UNL     1      20.307   8.020   5.414  0.00  0.00    +0.124 A 
BRANCH  28   4
ATOM      4  O   UNL     1      17.480   7.887   3.105  0.00  0.00    -0.494 OA
ATOM     33  C   UNL     1      18.032   8.430   1.909  0.00  0.00    +0.277 C 
ENDBRANCH  28   4
BRANCH  32   5
ATOM      5  O   UNL     1      21.647   7.778   5.408  0.00  0.00    -0.495 OA
ATOM     34  C   UNL     1      22.156   6.972   4.347  0.00  0.00    +0.277 C 
ENDBRANCH  32   5
ENDBRANCH  25  27
BRANCH   9   7
ATOM      1  O   UNL     1       9.932   6.614   1.776  0.00  0.00    -0.276 OA
ATOM      7  N   UNL     1      10.177   5.449   3.777  0.00  0.00    -0.310 N 
ATOM     18  C   UNL     1      10.168   5.582   2.399  0.00  0.00    +0.216 C 
ATOM     35  H   UNL     1      10.452   4.560   4.182  0.00  0.00    +0.149 HD
BRANCH  18  12
ATOM     12  C   UNL     1      10.508   4.299   1.704  0.00  0.00    +0.075 C 
ATOM     14  C   UNL     1      11.617   3.562   2.464  0.00  0.00    +0.013 C 
ATOM     15  C   UNL     1      11.058   4.573   0.303  0.00  0.00    +0.013 C 
ATOM     16  C   UNL     1      12.738   3.341   1.452  0.00  0.00    +0.001 C 
ATOM     17  C   UNL     1      12.569   4.474   0.456  0.00  0.00    +0.001 C 
ENDBRANCH  18  12
ENDBRANCH   9   7
TORSDOF 5
ENDMDL
MODEL 4
REMARK VINA RESULT:      -6.7     16.675     19.638
REMARK  Name = 11941436
REMARK  7 active torsions:
REMARK  status: ('A' for Active; 'I' for Inactive)
REMARK    1  A    between atoms: O_4  and  C_28
REMARK    2  A    between atoms: O_4  and  C_33
REMARK    3  A    between atoms: O_5  and  C_32
REMARK    4  A    between atoms: O_5  and  C_34
REMARK    5  A    between atoms: N_7  and  C_9
REMARK    6  A    between atoms: C_12  and  C_18
REMARK    7  A    between atoms: C_25  and  C_27
REMARK                            x       y       z     vdW  Elec       q    Type
REMARK                         _______ _______ _______ _____ _____    ______ ____
ROOT
ATOM      2  O   UNL     1      10.903  10.551   8.367  0.00  0.00    -0.273 OA
ATOM      3  O   UNL     1      13.879   6.362   7.202  0.00  0.00    -0.270 OA
ATOM      6  N   UNL     1      12.036   7.732   7.091  0.00  0.00    -0.284 N 
ATOM      8  N   UNL     1      13.049  10.444   7.611  0.00  0.00    -0.283 N 
ATOM      9  C   UNL     1       9.873   8.576   6.640  0.00  0.00    +0.104 C 
ATOM     10  C   UNL     1      11.365   8.936   6.637  0.00  0.00    +0.183 C 
ATOM     11  C   UNL     1       9.773   7.480   7.703  0.00  0.00    +0.043 C 
ATOM     13  C   UNL     1      11.088   6.730   7.559  0.00  0.00    +0.111 C 
ATOM     19  C   UNL     1      11.738  10.013   7.638  0.00  0.00    +0.240 C 
ATOM     20  C   UNL     1      13.379   7.459   6.954  0.00  0.00    +0.249 C 
ATOM     21  C   UNL     1      14.274   8.558   6.504  0.00  0.00    +0.059 A 
ATOM     22  C   UNL     1      14.140   9.900   6.899  0.00  0.00    +0.046 A 
ATOM     23  C   UNL     1      15.411   8.163   5.776  0.00  0.00    +0.023 A 
ATOM     24  C   UNL     1      15.181  10.799   6.609  0.00  0.00    +0.024 A 
ATOM     25  C   UNL     1      16.411   9.080   5.457  0.00  0.00    -0.014 A 
ATOM     26  C   UNL     1      16.302  10.396   5.885  0.00  0.00    +0.010 A 
ATOM     36  H   UNL     1      13.231  11.315   8.105  0.00  0.00    +0.155 HD
ENDROOT
BRANCH  25  27
ATOM     27  C   UNL     1      17.570   8.656   4.703  0.00  0.00    +0.024 A 
ATOM     28  C   UNL     1      18.742   8.260   5.352  0.00  0.00    +0.131 A 
ATOM     29  C   UNL     1      17.510   8.643   3.308  0.00  0.00    +0.016 A 
ATOM     30  C   UNL     1      19.850   7.854   4.607  0.00  0.00    +0.091 A 
ATOM     31  C   UNL     1      18.618   8.236   2.564  0.00  0.00    +0.046 A 
ATOM     32  C   UNL     1      19.787   7.841   3.213  0.00  0.00    +0.124 A 
BRANCH  28   4
ATOM      4  O   UNL     1      18.831   8.261   6.712  0.00  0.00    -0.494 OA
ATOM     33  C   UNL     1      19.975   8.890   7.285  0.00  0.00    +0.277 C 
ENDBRANCH  28   4
BRANCH  32   5
ATOM      5  O   UNL     1      20.868   7.445   2.487  0.00  0.00    -0.495 OA
ATOM     34  C   UNL     1      21.987   6.938   3.213  0.00  0.00    +0.277 C 
ENDBRANCH  32   5
ENDBRANCH  25  27
BRANCH   9   7
ATOM      1  O   UNL     1       7.587   9.450   5.079  0.00  0.00    -0.276 OA
ATOM      7  N   UNL     1       9.455   8.088   5.345  0.00  0.00    -0.310 N 
ATOM     18  C   UNL     1       8.344   8.572   4.676  0.00  0.00    +0.216 C 
ATOM     35  H   UNL     1      10.047   7.404   4.883  0.00  0.00    +0.149 HD
BRANCH  18  12
ATOM     12  C   UNL     1       8.153   7.912   3.345  0.00  0.00    +0.075 C 
ATOM     14  C   UNL     1       9.399   7.100   2.971  0.00  0.00    +0.013 C 
ATOM     15  C   UNL     1       7.978   8.959   2.243  0.00  0.00    +0.013 C 
ATOM     16  C   UNL     1       9.851   7.634   1.614  0.00  0.00    +0.001 C 
ATOM     17  C   UNL     1       9.349   9.066   1.592  0.00  0.00    +0.001 C 
ENDBRANCH  18  12
ENDBRANCH   9   7
TORSDOF 5
ENDMDL
MODEL 5
REMARK VINA RESULT:      -6.6     25.166     28.747
REMARK  Name = 11941436
REMARK  7 active torsions:
REMARK  status: ('A' for Active; 'I' for Inactive)
REMARK    1  A    between atoms: O_4  and  C_28
REMARK    2  A    between atoms: O_4  and  C_33
REMARK    3  A    between atoms: O_5  and  C_32
REMARK    4  A    between atoms: O_5  and  C_34
REMARK    5  A    between atoms: N_7  and  C_9
REMARK    6  A    between atoms: C_12  and  C_18
REMARK    7  A    between atoms: C_25  and  C_27
REMARK                            x       y       z     vdW  Elec       q    Type
REMARK                         _______ _______ _______ _____ _____    ______ ____
ROOT
ATOM      2  O   UNL     1       0.592  10.234   3.254  0.00  0.00    -0.273 OA
ATOM      3  O   UNL     1      -4.457  11.735   3.164  0.00  0.00    -0.270 OA
ATOM      6  N   UNL     1      -2.416  11.155   2.277  0.00  0.00    -0.284 N 
ATOM      8  N   UNL     1      -1.239   9.268   4.201  0.00  0.00    -0.283 N 
ATOM      9  C   UNL     1      -0.618  10.821   0.778  0.00  0.00    +0.104 C 
ATOM     10  C   UNL     1      -1.414  10.171   1.918  0.00  0.00    +0.183 C 
ATOM     11  C   UNL     1      -0.783  12.320   1.039  0.00  0.00    +0.043 C 
ATOM     13  C   UNL     1      -2.192  12.426   1.602  0.00  0.00    +0.111 C 
ATOM     19  C   UNL     1      -0.601   9.937   3.178  0.00  0.00    +0.240 C 
ATOM     20  C   UNL     1      -3.551  10.914   3.020  0.00  0.00    +0.249 C 
ATOM     21  C   UNL     1      -3.674   9.600   3.703  0.00  0.00    +0.059 A 
ATOM     22  C   UNL     1      -2.604   8.919   4.309  0.00  0.00    +0.046 A 
ATOM     23  C   UNL     1      -4.985   9.122   3.881  0.00  0.00    +0.023 A 
ATOM     24  C   UNL     1      -2.882   7.813   5.131  0.00  0.00    +0.024 A 
ATOM     25  C   UNL     1      -5.237   7.995   4.662  0.00  0.00    -0.014 A 
ATOM     26  C   UNL     1      -4.185   7.348   5.297  0.00  0.00    +0.010 A 
ATOM     36  H   UNL     1      -0.631   8.908   4.933  0.00  0.00    +0.155 HD
ENDROOT
BRANCH  25  27
ATOM     27  C   UNL     1      -6.591   7.516   4.829  0.00  0.00    +0.024 A 
ATOM     28  C   UNL     1      -7.512   8.224   5.603  0.00  0.00    +0.131 A 
ATOM     29  C   UNL     1      -6.977   6.328   4.203  0.00  0.00    +0.016 A 
ATOM     30  C   UNL     1      -8.814   7.746   5.752  0.00  0.00    +0.091 A 
ATOM     31  C   UNL     1      -8.279   5.851   4.352  0.00  0.00    +0.046 A 
ATOM     32  C   UNL     1      -9.198   6.560   5.126  0.00  0.00    +0.124 A 
BRANCH  28   4
ATOM      4  O   UNL     1      -7.165   9.387   6.226  0.00  0.00    -0.494 OA
ATOM     33  C   UNL     1      -7.931  10.546   5.906  0.00  0.00    +0.277 C 
ENDBRANCH  28   4
BRANCH  32   5
ATOM      5  O   UNL     1     -10.469   6.093   5.272  0.00  0.00    -0.495 OA
ATOM     34  C   UNL     1     -10.943   5.182   4.282  0.00  0.00    +0.277 C 
ENDBRANCH  32   5
ENDBRANCH  25  27
BRANCH   9   7
ATOM      1  O   UNL     1       0.745  10.842  -1.785  0.00  0.00    -0.276 OA
ATOM      7  N   UNL     1      -1.163  10.452  -0.509  0.00  0.00    -0.310 N 
ATOM     18  C   UNL     1      -0.428  10.495  -1.682  0.00  0.00    +0.216 C 
ATOM     35  H   UNL     1      -2.108  10.083  -0.536  0.00  0.00    +0.149 HD
BRANCH  18  12
ATOM     12  C   UNL     1      -1.224  10.037  -2.866  0.00  0.00    +0.075 C 
ATOM     14  C   UNL     1      -0.887  10.889  -4.095  0.00  0.00    +0.013 C 
ATOM     15  C   UNL     1      -2.722  10.223  -2.614  0.00  0.00    +0.013 C 
ATOM     16  C   UNL     1      -2.215  11.464  -4.580  0.00  0.00    +0.001 C 
ATOM     17  C   UNL     1      -3.074  11.519  -3.330  0.00  0.00    +0.001 C 
ENDBRANCH  18  12
ENDBRANCH   9   7
TORSDOF 5
ENDMDL
MODEL 6
REMARK VINA RESULT:      -6.6     28.476     31.947
REMARK  Name = 11941436
REMARK  7 active torsions:
REMARK  status: ('A' for Active; 'I' for Inactive)
REMARK    1  A    between atoms: O_4  and  C_28
REMARK    2  A    between atoms: O_4  and  C_33
REMARK    3  A    between atoms: O_5  and  C_32
REMARK    4  A    between atoms: O_5  and  C_34
REMARK    5  A    between atoms: N_7  and  C_9
REMARK    6  A    between atoms: C_12  and  C_18
REMARK    7  A    between atoms: C_25  and  C_27
REMARK                            x       y       z     vdW  Elec       q    Type
REMARK                         _______ _______ _______ _____ _____    ______ ____
ROOT
ATOM      2  O   UNL     1      -2.987 -14.232  14.538  0.00  0.00    -0.273 OA
ATOM      3  O   UNL     1      -4.311 -10.360  17.856  0.00  0.00    -0.270 OA
ATOM      6  N   UNL     1      -3.636 -11.286  15.862  0.00  0.00    -0.284 N 
ATOM      8  N   UNL     1      -4.872 -13.954  15.786  0.00  0.00    -0.283 N 
ATOM      9  C   UNL     1      -2.801 -11.559  13.667  0.00  0.00    +0.104 C 
ATOM     10  C   UNL     1      -3.907 -12.005  14.632  0.00  0.00    +0.183 C 
ATOM     11  C   UNL     1      -1.649 -11.174  14.598  0.00  0.00    +0.043 C 
ATOM     13  C   UNL     1      -2.358 -10.589  15.810  0.00  0.00    +0.111 C 
ATOM     19  C   UNL     1      -3.845 -13.476  14.998  0.00  0.00    +0.240 C 
ATOM     20  C   UNL     1      -4.520 -11.112  16.905  0.00  0.00    +0.249 C 
ATOM     21  C   UNL     1      -5.784 -11.895  16.888  0.00  0.00    +0.059 A 
ATOM     22  C   UNL     1      -5.884 -13.226  16.448  0.00  0.00    +0.046 A 
ATOM     23  C   UNL     1      -6.888 -11.289  17.515  0.00  0.00    +0.023 A 
ATOM     24  C   UNL     1      -7.069 -13.937  16.707  0.00  0.00    +0.024 A 
ATOM     25  C   UNL     1      -8.072 -11.997  17.720  0.00  0.00    -0.014 A 
ATOM     26  C   UNL     1      -8.157 -13.325  17.327  0.00  0.00    +0.010 A 
ATOM     36  H   UNL     1      -4.955 -14.967  15.827  0.00  0.00    +0.155 HD
ENDROOT
BRANCH  25  27
ATOM     27  C   UNL     1      -9.198 -11.355  18.363  0.00  0.00    +0.024 A 
ATOM     28  C   UNL     1      -9.936 -10.371  17.701  0.00  0.00    +0.131 A 
ATOM     29  C   UNL     1      -9.546 -11.730  19.662  0.00  0.00    +0.016 A 
ATOM     30  C   UNL     1     -11.019  -9.765  18.338  0.00  0.00    +0.091 A 
ATOM     31  C   UNL     1     -10.630 -11.123  20.297  0.00  0.00    +0.046 A 
ATOM     32  C   UNL     1     -11.366 -10.141  19.636  0.00  0.00    +0.124 A 
BRANCH  28   4
ATOM      4  O   UNL     1      -9.619  -9.984  16.432  0.00  0.00    -0.494 OA
ATOM     33  C   UNL     1      -9.366  -8.597  16.223  0.00  0.00    +0.277 C 
ENDBRANCH  28   4
BRANCH  32   5
ATOM      5  O   UNL     1     -12.423  -9.548  20.256  0.00  0.00    -0.495 OA
ATOM     34  C   UNL     1     -13.400 -10.410  20.838  0.00  0.00    +0.277 C 
ENDBRANCH  32   5
ENDBRANCH  25  27
BRANCH   9   7
ATOM      1  O   UNL     1      -3.195 -11.470  10.792  0.00  0.00    -0.276 OA
ATOM      7  N   UNL     1      -3.231 -10.429  12.873  0.00  0.00    -0.310 N 
ATOM     18  C   UNL     1      -3.391 -10.487  11.499  0.00  0.00    +0.216 C 
ATOM     35  H   UNL     1      -3.488  -9.577  13.362  0.00  0.00    +0.149 HD
BRANCH  18  12
ATOM     12  C   UNL     1      -3.870  -9.186  10.930  0.00  0.00    +0.075 C 
ATOM     14  C   UNL     1      -5.368  -9.006  11.203  0.00  0.00    +0.013 C 
ATOM     15  C   UNL     1      -3.707  -9.169   9.409  0.00  0.00    +0.013 C 
ATOM     16  C   UNL     1      -6.016  -8.790   9.839  0.00  0.00    +0.001 C 
ATOM     17  C   UNL     1      -5.091  -9.503   8.871  0.00  0.00    +0.001 C 
ENDBRANCH  18  12
ENDBRANCH   9   7
TORSDOF 5
ENDMDL
MODEL 7
REMARK VINA RESULT:      -6.6      2.911      5.299
REMARK  Name = 11941436
REMARK  7 active torsions:
REMARK  status: ('A' for Active; 'I' for Inactive)
REMARK    1  A    between atoms: O_4  and  C_28
REMARK    2  A    between atoms: O_4  and  C_33
REMARK    3  A    between atoms: O_5  and  C_32
REMARK    4  A    between atoms: O_5  and  C_34
REMARK    5  A    between atoms: N_7  and  C_9
REMARK    6  A    between atoms: C_12  and  C_18
REMARK    7  A    between atoms: C_25  and  C_27
REMARK                            x       y       z     vdW  Elec       q    Type
REMARK                         _______ _______ _______ _____ _____    ______ ____
ROOT
ATOM      2  O   UNL     1      10.874   8.955  20.453  0.00  0.00    -0.273 OA
ATOM      3  O   UNL     1      15.671  10.947  19.576  0.00  0.00    -0.270 OA
ATOM      6  N   UNL     1      13.643  10.730  20.638  0.00  0.00    -0.284 N 
ATOM      8  N   UNL     1      12.890   7.906  20.304  0.00  0.00    -0.283 N 
ATOM      9  C   UNL     1      11.768  11.115  22.026  0.00  0.00    +0.104 C 
ATOM     10  C   UNL     1      12.740  10.034  21.534  0.00  0.00    +0.183 C 
ATOM     11  C   UNL     1      11.772  12.141  20.891  0.00  0.00    +0.043 C 
ATOM     13  C   UNL     1      13.203  12.093  20.380  0.00  0.00    +0.111 C 
ATOM     19  C   UNL     1      12.082   8.955  20.693  0.00  0.00    +0.240 C 
ATOM     20  C   UNL     1      14.863  10.261  20.201  0.00  0.00    +0.249 C 
ATOM     21  C   UNL     1      15.208   8.842  20.481  0.00  0.00    +0.059 A 
ATOM     22  C   UNL     1      14.290   7.780  20.432  0.00  0.00    +0.046 A 
ATOM     23  C   UNL     1      16.579   8.564  20.634  0.00  0.00    +0.023 A 
ATOM     24  C   UNL     1      14.776   6.461  20.473  0.00  0.00    +0.024 A 
ATOM     25  C   UNL     1      17.038   7.251  20.721  0.00  0.00    -0.014 A 
ATOM     26  C   UNL     1      16.137   6.199  20.627  0.00  0.00    +0.010 A 
ATOM     36  H   UNL     1      12.400   7.086  19.956  0.00  0.00    +0.155 HD
ENDROOT
BRANCH  25  27
ATOM     27  C   UNL     1      18.450   6.985  20.883  0.00  0.00    +0.024 A 
ATOM     28  C   UNL     1      19.271   7.870  21.586  0.00  0.00    +0.131 A 
ATOM     29  C   UNL     1      18.995   5.826  20.326  0.00  0.00    +0.016 A 
ATOM     30  C   UNL     1      20.631   7.596  21.732  0.00  0.00    +0.091 A 
ATOM     31  C   UNL     1      20.355   5.552  20.473  0.00  0.00    +0.046 A 
ATOM     32  C   UNL     1      21.172   6.437  21.176  0.00  0.00    +0.124 A 
BRANCH  28   4
ATOM      4  O   UNL     1      18.768   9.010  22.140  0.00  0.00    -0.494 OA
ATOM     33  C   UNL     1      19.688   9.858  22.824  0.00  0.00    +0.277 C 
ENDBRANCH  28   4
BRANCH  32   5
ATOM      5  O   UNL     1      22.500   6.170  21.318  0.00  0.00    -0.495 OA
ATOM     34  C   UNL     1      23.015   5.044  20.610  0.00  0.00    +0.277 C 
ENDBRANCH  32   5
ENDBRANCH  25  27
BRANCH   9   7
ATOM      1  O   UNL     1      10.150  12.104  24.224  0.00  0.00    -0.276 OA
ATOM      7  N   UNL     1      12.232  11.702  23.263  0.00  0.00    -0.310 N 
ATOM     18  C   UNL     1      11.377  12.146  24.257  0.00  0.00    +0.216 C 
ATOM     35  H   UNL     1      13.233  11.727  23.430  0.00  0.00    +0.149 HD
BRANCH  18  12
ATOM     12  C   UNL     1      12.118  12.687  25.442  0.00  0.00    +0.075 C 
ATOM     14  C   UNL     1      11.423  13.945  25.974  0.00  0.00    +0.013 C 
ATOM     15  C   UNL     1      13.532  13.116  25.044  0.00  0.00    +0.013 C 
ATOM     16  C   UNL     1      12.483  15.043  25.964  0.00  0.00    +0.001 C 
ATOM     17  C   UNL     1      13.441  14.624  24.864  0.00  0.00    +0.001 C 
ENDBRANCH  18  12
ENDBRANCH   9   7
TORSDOF 5
ENDMDL
MODEL 8
REMARK VINA RESULT:      -6.5     30.798     33.550
REMARK  Name = 11941436
REMARK  7 active torsions:
REMARK  status: ('A' for Active; 'I' for Inactive)
REMARK    1  A    between atoms: O_4  and  C_28
REMARK    2  A    between atoms: O_4  and  C_33
REMARK    3  A    between atoms: O_5  and  C_32
REMARK    4  A    between atoms: O_5  and  C_34
REMARK    5  A    between atoms: N_7  and  C_9
REMARK    6  A    between atoms: C_12  and  C_18
REMARK    7  A    between atoms: C_25  and  C_27
REMARK                            x       y       z     vdW  Elec       q    Type
REMARK                         _______ _______ _______ _____ _____    ______ ____
ROOT
ATOM      2  O   UNL     1     -12.532  -3.344  12.358  0.00  0.00    -0.273 OA
ATOM      3  O   UNL     1     -14.296  -8.186  13.454  0.00  0.00    -0.270 OA
ATOM      6  N   UNL     1     -13.270  -6.551  12.203  0.00  0.00    -0.284 N 
ATOM      8  N   UNL     1     -12.128  -4.676  14.160  0.00  0.00    -0.283 N 
ATOM      9  C   UNL     1     -12.269  -5.369  10.416  0.00  0.00    +0.104 C 
ATOM     10  C   UNL     1     -12.145  -5.682  11.914  0.00  0.00    +0.183 C 
ATOM     11  C   UNL     1     -13.767  -5.516  10.144  0.00  0.00    +0.043 C 
ATOM     13  C   UNL     1     -14.184  -6.646  11.073  0.00  0.00    +0.111 C 
ATOM     19  C   UNL     1     -12.324  -4.471  12.810  0.00  0.00    +0.240 C 
ATOM     20  C   UNL     1     -13.409  -7.342  13.323  0.00  0.00    +0.249 C 
ATOM     21  C   UNL     1     -12.450  -7.146  14.441  0.00  0.00    +0.059 A 
ATOM     22  C   UNL     1     -11.954  -5.897  14.849  0.00  0.00    +0.046 A 
ATOM     23  C   UNL     1     -12.176  -8.286  15.220  0.00  0.00    +0.023 A 
ATOM     24  C   UNL     1     -11.251  -5.810  16.063  0.00  0.00    +0.024 A 
ATOM     25  C   UNL     1     -11.436  -8.188  16.397  0.00  0.00    -0.014 A 
ATOM     26  C   UNL     1     -10.984  -6.947  16.825  0.00  0.00    +0.010 A 
ATOM     36  H   UNL     1     -12.013  -3.832  14.717  0.00  0.00    +0.155 HD
ENDROOT
BRANCH  25  27
ATOM     27  C   UNL     1     -11.162  -9.371  17.182  0.00  0.00    +0.024 A 
ATOM     28  C   UNL     1      -9.956 -10.061  17.041  0.00  0.00    +0.131 A 
ATOM     29  C   UNL     1     -12.119  -9.823  18.092  0.00  0.00    +0.016 A 
ATOM     30  C   UNL     1      -9.710 -11.201  17.808  0.00  0.00    +0.091 A 
ATOM     31  C   UNL     1     -11.872 -10.962  18.859  0.00  0.00    +0.046 A 
ATOM     32  C   UNL     1     -10.668 -11.651  18.716  0.00  0.00    +0.124 A 
BRANCH  28   4
ATOM      4  O   UNL     1      -9.002  -9.644  16.161  0.00  0.00    -0.494 OA
ATOM     33  C   UNL     1      -7.712  -9.353  16.695  0.00  0.00    +0.277 C 
ENDBRANCH  28   4
BRANCH  32   5
ATOM      5  O   UNL     1     -10.427 -12.763  19.464  0.00  0.00    -0.495 OA
ATOM     34  C   UNL     1      -9.072 -13.197  19.563  0.00  0.00    +0.277 C 
ENDBRANCH  32   5
ENDBRANCH  25  27
BRANCH   9   7
ATOM      1  O   UNL     1      -9.848  -4.832   8.907  0.00  0.00    -0.276 OA
ATOM      7  N   UNL     1     -11.500  -6.305   9.627  0.00  0.00    -0.310 N 
ATOM     18  C   UNL     1     -10.351  -5.951   8.940  0.00  0.00    +0.216 C 
ATOM     35  H   UNL     1     -11.786  -7.280   9.636  0.00  0.00    +0.149 HD
BRANCH  18  12
ATOM     12  C   UNL     1      -9.738  -7.117   8.225  0.00  0.00    +0.075 C 
ATOM     14  C   UNL     1      -8.530  -6.657   7.400  0.00  0.00    +0.013 C 
ATOM     15  C   UNL     1     -10.729  -7.723   7.230  0.00  0.00    +0.013 C 
ATOM     16  C   UNL     1      -8.812  -7.100   5.967  0.00  0.00    +0.001 C 
ATOM     17  C   UNL     1     -10.326  -7.143   5.883  0.00  0.00    +0.001 C 
ENDBRANCH  18  12
ENDBRANCH   9   7
TORSDOF 5
ENDMDL
MODEL 9
REMARK VINA RESULT:      -6.5     19.168     25.473
REMARK  Name = 11941436
REMARK  7 active torsions:
REMARK  status: ('A' for Active; 'I' for Inactive)
REMARK    1  A    between atoms: O_4  and  C_28
REMARK    2  A    between atoms: O_4  and  C_33
REMARK    3  A    between atoms: O_5  and  C_32
REMARK    4  A    between atoms: O_5  and  C_34
REMARK    5  A    between atoms: N_7  and  C_9
REMARK    6  A    between atoms: C_12  and  C_18
REMARK    7  A    between atoms: C_25  and  C_27
REMARK                            x       y       z     vdW  Elec       q    Type
REMARK                         _______ _______ _______ _____ _____    ______ ____
ROOT
ATOM      2  O   UNL     1      10.932   4.399  -3.313  0.00  0.00    -0.273 OA
ATOM      3  O   UNL     1      10.712   8.246   0.279  0.00  0.00    -0.270 OA
ATOM      6  N   UNL     1       9.944   6.918  -1.434  0.00  0.00    -0.284 N 
ATOM      8  N   UNL     1      11.276   4.322  -1.063  0.00  0.00    -0.283 N 
ATOM      9  C   UNL     1       8.654   6.054  -3.217  0.00  0.00    +0.104 C 
ATOM     10  C   UNL     1       9.410   5.668  -1.939  0.00  0.00    +0.183 C 
ATOM     11  C   UNL     1       9.367   7.324  -3.684  0.00  0.00    +0.043 C 
ATOM     13  C   UNL     1       9.754   8.008  -2.381  0.00  0.00    +0.111 C 
ATOM     19  C   UNL     1      10.615   4.779  -2.184  0.00  0.00    +0.240 C 
ATOM     20  C   UNL     1      10.421   7.133  -0.159  0.00  0.00    +0.249 C 
ATOM     21  C   UNL     1      10.616   5.953   0.723  0.00  0.00    +0.059 A 
ATOM     22  C   UNL     1      11.094   4.707   0.283  0.00  0.00    +0.046 A 
ATOM     23  C   UNL     1      10.464   6.187   2.102  0.00  0.00    +0.023 A 
ATOM     24  C   UNL     1      11.468   3.748   1.241  0.00  0.00    +0.024 A 
ATOM     25  C   UNL     1      10.796   5.207   3.036  0.00  0.00    -0.014 A 
ATOM     26  C   UNL     1      11.310   3.991   2.605  0.00  0.00    +0.010 A 
ATOM     36  H   UNL     1      11.920   3.550  -1.221  0.00  0.00    +0.155 HD
ENDROOT
BRANCH  25  27
ATOM     27  C   UNL     1      10.628   5.465   4.449  0.00  0.00    +0.024 A 
ATOM     28  C   UNL     1      11.508   6.305   5.134  0.00  0.00    +0.131 A 
ATOM     29  C   UNL     1       9.569   4.862   5.131  0.00  0.00    +0.016 A 
ATOM     30  C   UNL     1      11.328   6.541   6.497  0.00  0.00    +0.091 A 
ATOM     31  C   UNL     1       9.390   5.100   6.494  0.00  0.00    +0.046 A 
ATOM     32  C   UNL     1      10.270   5.939   7.177  0.00  0.00    +0.124 A 
BRANCH  28   4
ATOM      4  O   UNL     1      12.551   6.908   4.495  0.00  0.00    -0.494 OA
ATOM     33  C   UNL     1      12.647   8.326   4.609  0.00  0.00    +0.277 C 
ENDBRANCH  28   4
BRANCH  32   5
ATOM      5  O   UNL     1      10.095   6.170   8.507  0.00  0.00    -0.495 OA
ATOM     34  C   UNL     1       9.409   5.168   9.255  0.00  0.00    +0.277 C 
ENDBRANCH  32   5
ENDBRANCH  25  27
BRANCH   9   7
ATOM      1  O   UNL     1       6.432   5.971  -5.084  0.00  0.00    -0.276 OA
ATOM      7  N   UNL     1       7.259   6.311  -2.935  0.00  0.00    -0.310 N 
ATOM     18  C   UNL     1       6.268   6.246  -3.899  0.00  0.00    +0.216 C 
ATOM     35  H   UNL     1       6.995   6.484  -1.970  0.00  0.00    +0.149 HD
BRANCH  18  12
ATOM     12  C   UNL     1       4.909   6.531  -3.334  0.00  0.00    +0.075 C 
ATOM     14  C   UNL     1       3.823   5.937  -4.238  0.00  0.00    +0.013 C 
ATOM     15  C   UNL     1       4.650   8.038  -3.288  0.00  0.00    +0.013 C 
ATOM     16  C   UNL     1       2.907   7.100  -4.608  0.00  0.00    +0.001 C 
ATOM     17  C   UNL     1       3.803   8.321  -4.521  0.00  0.00    +0.001 C 
ENDBRANCH  18  12
ENDBRANCH   9   7
TORSDOF 5
ENDMDL
MODEL 10
REMARK VINA RESULT:      -6.5      3.791      6.441
REMARK  Name = 11941436
REMARK  7 active torsions:
REMARK  status: ('A' for Active; 'I' for Inactive)
REMARK    1  A    between atoms: O_4  and  C_28
REMARK    2  A    between atoms: O_4  and  C_33
REMARK    3  A    between atoms: O_5  and  C_32
REMARK    4  A    between atoms: O_5  and  C_34
REMARK    5  A    between atoms: N_7  and  C_9
REMARK    6  A    between atoms: C_12  and  C_18
REMARK    7  A    between atoms: C_25  and  C_27
REMARK                            x       y       z     vdW  Elec       q    Type
REMARK                         _______ _______ _______ _____ _____    ______ ____
ROOT
ATOM      2  O   UNL     1      12.190   7.004  21.241  0.00  0.00    -0.273 OA
ATOM      3  O   UNL     1      15.750  10.521  19.592  0.00  0.00    -0.270 OA
ATOM      6  N   UNL     1      13.998   9.731  20.856  0.00  0.00    -0.284 N 
ATOM      8  N   UNL     1      14.457   6.836  21.098  0.00  0.00    -0.283 N 
ATOM      9  C   UNL     1      12.145   9.607  22.319  0.00  0.00    +0.104 C 
ATOM     10  C   UNL     1      13.467   8.927  21.940  0.00  0.00    +0.183 C 
ATOM     11  C   UNL     1      11.717  10.302  21.025  0.00  0.00    +0.043 C 
ATOM     13  C   UNL     1      13.038  10.727  20.402  0.00  0.00    +0.111 C 
ATOM     19  C   UNL     1      13.296   7.532  21.367  0.00  0.00    +0.240 C 
ATOM     20  C   UNL     1      15.299   9.709  20.400  0.00  0.00    +0.249 C 
ATOM     21  C   UNL     1      16.195   8.631  20.894  0.00  0.00    +0.059 A 
ATOM     22  C   UNL     1      15.788   7.305  21.118  0.00  0.00    +0.046 A 
ATOM     23  C   UNL     1      17.561   8.956  20.968  0.00  0.00    +0.023 A 
ATOM     24  C   UNL     1      16.770   6.324  21.347  0.00  0.00    +0.024 A 
ATOM     25  C   UNL     1      18.517   7.979  21.244  0.00  0.00    -0.014 A 
ATOM     26  C   UNL     1      18.121   6.660  21.421  0.00  0.00    +0.010 A 
ATOM     36  H   UNL     1      14.340   5.837  20.946  0.00  0.00    +0.155 HD
ENDROOT
BRANCH  25  27
ATOM     27  C   UNL     1      19.916   8.335  21.322  0.00  0.00    +0.024 A 
ATOM     28  C   UNL     1      20.911   7.402  21.019  0.00  0.00    +0.131 A 
ATOM     29  C   UNL     1      20.271   9.630  21.703  0.00  0.00    +0.016 A 
ATOM     30  C   UNL     1      22.256   7.764  21.100  0.00  0.00    +0.091 A 
ATOM     31  C   UNL     1      21.616   9.991  21.783  0.00  0.00    +0.046 A 
ATOM     32  C   UNL     1      22.608   9.059  21.481  0.00  0.00    +0.124 A 
BRANCH  28   4
ATOM      4  O   UNL     1      20.595   6.130  20.643  0.00  0.00    -0.494 OA
ATOM     33  C   UNL     1      21.680   5.257  20.336  0.00  0.00    +0.277 C 
ENDBRANCH  28   4
BRANCH  32   5
ATOM      5  O   UNL     1      23.921   9.412  21.559  0.00  0.00    -0.495 OA
ATOM     34  C   UNL     1      24.501   9.467  22.861  0.00  0.00    +0.277 C 
ENDBRANCH  32   5
ENDBRANCH  25  27
BRANCH   9   7
ATOM      1  O   UNL     1      10.115  11.168  23.688  0.00  0.00    -0.276 OA
ATOM      7  N   UNL     1      12.343  10.564  23.385  0.00  0.00    -0.310 N 
ATOM     18  C   UNL     1      11.304  11.262  23.978  0.00  0.00    +0.216 C 
ATOM     35  H   UNL     1      13.282  10.675  23.754  0.00  0.00    +0.149 HD
BRANCH  18  12
ATOM     12  C   UNL     1      11.783  12.168  25.071  0.00  0.00    +0.075 C 
ATOM     14  C   UNL     1      10.655  13.107  25.514  0.00  0.00    +0.013 C 
ATOM     15  C   UNL     1      12.916  13.066  24.571  0.00  0.00    +0.013 C 
ATOM     16  C   UNL     1      11.204  14.522  25.353  0.00  0.00    +0.001 C 
ATOM     17  C   UNL     1      12.243  14.394  24.255  0.00  0.00    +0.001 C 
ENDBRANCH  18  12
ENDBRANCH   9   7
TORSDOF 5
ENDMDL
