MODEL 1
REMARK VINA RESULT:      -7.3      0.000      0.000
REMARK  Name = 51137852
REMARK  3 active torsions:
REMARK  status: ('A' for Active; 'I' for Inactive)
REMARK    1  A    between atoms: C_8  and  C_12
REMARK    2  A    between atoms: C_13  and  C_14
REMARK    3  A    between atoms: C_15  and  C_18
REMARK                            x       y       z     vdW  Elec       q    Type
REMARK                         _______ _______ _______ _____ _____    ______ ____
ROOT
ATOM      2  O   UNL     1      13.595  10.981  19.419  0.00  0.00    -0.270 OA
ATOM      3  N   UNL     1      13.787   8.758  20.067  0.00  0.00    -0.297 N 
ATOM      8  C   UNL     1      14.619   6.647  20.784  0.00  0.00    +0.095 C 
ATOM      9  C   UNL     1      14.746   7.667  21.926  0.00  0.00    +0.033 C 
ATOM     10  C   UNL     1      13.587   7.322  19.869  0.00  0.00    +0.121 C 
ATOM     11  C   UNL     1      14.625   9.015  21.228  0.00  0.00    +0.109 C 
ATOM     13  C   UNL     1      13.341   9.789  19.254  0.00  0.00    +0.248 C 
ENDROOT
BRANCH  13  14
ATOM      6  N   UNL     1      10.483   8.433  17.234  0.00  0.00    -0.263 NA
ATOM     14  C   UNL     1      12.512   9.429  18.094  0.00  0.00    +0.055 A 
ATOM     16  C   UNL     1      12.927   9.717  16.798  0.00  0.00    +0.016 A 
ATOM     17  C   UNL     1      11.292   8.791  18.257  0.00  0.00    +0.123 A 
ATOM     19  C   UNL     1      12.122   9.363  15.721  0.00  0.00    +0.020 A 
ATOM     22  C   UNL     1      10.920   8.729  15.990  0.00  0.00    +0.111 A 
ENDBRANCH  13  14
BRANCH   8  12
ATOM      1  O   UNL     1      17.057   6.426  20.977  0.00  0.00    -0.420 OA
ATOM      4  N   UNL     1      16.261   5.962  18.939  0.00  0.00    -0.112 NA
ATOM      5  N   UNL     1      17.634   5.800  18.908  0.00  0.00    -0.107 NA
ATOM     12  C   UNL     1      15.969   6.328  20.165  0.00  0.00    +0.222 A 
ATOM     15  C   UNL     1      18.056   6.082  20.119  0.00  0.00    +0.248 A 
BRANCH  15  18
ATOM      7  N   UNL     1      21.965   6.079  21.735  0.00  0.00    -0.263 NA
ATOM     18  C   UNL     1      19.382   6.081  20.667  0.00  0.00    +0.041 A 
ATOM     20  C   UNL     1      19.746   7.031  21.614  0.00  0.00    +0.033 A 
ATOM     21  C   UNL     1      20.307   5.130  20.253  0.00  0.00    +0.033 A 
ATOM     23  C   UNL     1      21.037   6.988  22.112  0.00  0.00    +0.111 A 
ATOM     24  C   UNL     1      21.574   5.171  20.813  0.00  0.00    +0.111 A 
ENDBRANCH  15  18
ENDBRANCH   8  12
TORSDOF 3
ENDMDL
MODEL 2
REMARK VINA RESULT:      -6.9      2.181      2.930
REMARK  Name = 51137852
REMARK  3 active torsions:
REMARK  status: ('A' for Active; 'I' for Inactive)
REMARK    1  A    between atoms: C_8  and  C_12
REMARK    2  A    between atoms: C_13  and  C_14
REMARK    3  A    between atoms: C_15  and  C_18
REMARK                            x       y       z     vdW  Elec       q    Type
REMARK                         _______ _______ _______ _____ _____    ______ ____
ROOT
ATOM      2  O   UNL     1      13.062   9.803  18.732  0.00  0.00    -0.270 OA
ATOM      3  N   UNL     1      14.650   9.424  20.386  0.00  0.00    -0.297 N 
ATOM      8  C   UNL     1      16.653   8.897  21.557  0.00  0.00    +0.095 C 
ATOM      9  C   UNL     1      16.848  10.196  20.760  0.00  0.00    +0.033 C 
ATOM     10  C   UNL     1      15.123   8.787  21.615  0.00  0.00    +0.121 C 
ATOM     11  C   UNL     1      15.717  10.172  19.740  0.00  0.00    +0.109 C 
ATOM     13  C   UNL     1      13.395   9.308  19.808  0.00  0.00    +0.248 C 
ENDROOT
BRANCH  13  14
ATOM      6  N   UNL     1      11.310   6.384  20.899  0.00  0.00    -0.263 NA
ATOM     14  C   UNL     1      12.385   8.518  20.529  0.00  0.00    +0.055 A 
ATOM     16  C   UNL     1      11.567   9.104  21.488  0.00  0.00    +0.016 A 
ATOM     17  C   UNL     1      12.218   7.166  20.273  0.00  0.00    +0.123 A 
ATOM     19  C   UNL     1      10.620   8.332  22.153  0.00  0.00    +0.020 A 
ATOM     22  C   UNL     1      10.532   6.989  21.825  0.00  0.00    +0.111 A 
ENDBRANCH  13  14
BRANCH   8  12
ATOM      1  O   UNL     1      18.723   7.627  21.195  0.00  0.00    -0.420 OA
ATOM      4  N   UNL     1      16.944   6.787  20.131  0.00  0.00    -0.112 NA
ATOM      5  N   UNL     1      18.032   5.984  19.844  0.00  0.00    -0.107 NA
ATOM     12  C   UNL     1      17.394   7.732  20.922  0.00  0.00    +0.222 A 
ATOM     15  C   UNL     1      19.048   6.512  20.485  0.00  0.00    +0.248 A 
BRANCH  15  18
ATOM      7  N   UNL     1      23.096   5.303  20.688  0.00  0.00    -0.263 NA
ATOM     18  C   UNL     1      20.421   6.102  20.554  0.00  0.00    +0.041 A 
ATOM     20  C   UNL     1      21.437   7.047  20.464  0.00  0.00    +0.033 A 
ATOM     21  C   UNL     1      20.741   4.759  20.711  0.00  0.00    +0.033 A 
ATOM     23  C   UNL     1      22.746   6.600  20.535  0.00  0.00    +0.111 A 
ATOM     24  C   UNL     1      22.082   4.414  20.773  0.00  0.00    +0.111 A 
ENDBRANCH  15  18
ENDBRANCH   8  12
TORSDOF 3
ENDMDL
MODEL 3
REMARK VINA RESULT:      -6.8      2.945      4.476
REMARK  Name = 51137852
REMARK  3 active torsions:
REMARK  status: ('A' for Active; 'I' for Inactive)
REMARK    1  A    between atoms: C_8  and  C_12
REMARK    2  A    between atoms: C_13  and  C_14
REMARK    3  A    between atoms: C_15  and  C_18
REMARK                            x       y       z     vdW  Elec       q    Type
REMARK                         _______ _______ _______ _____ _____    ______ ____
ROOT
ATOM      2  O   UNL     1      10.349   9.365  22.342  0.00  0.00    -0.270 OA
ATOM      3  N   UNL     1      11.720   9.570  20.478  0.00  0.00    -0.297 N 
ATOM      8  C   UNL     1      13.209   9.134  18.673  0.00  0.00    +0.095 C 
ATOM      9  C   UNL     1      11.864   8.438  18.413  0.00  0.00    +0.033 C 
ATOM     10  C   UNL     1      12.827  10.175  19.735  0.00  0.00    +0.121 C 
ATOM     11  C   UNL     1      11.199   8.404  19.782  0.00  0.00    +0.109 C 
ATOM     13  C   UNL     1      11.235   9.948  21.720  0.00  0.00    +0.248 C 
ENDROOT
BRANCH  13  14
ATOM      6  N   UNL     1      13.543  12.066  23.788  0.00  0.00    -0.263 NA
ATOM     14  C   UNL     1      11.836  11.133  22.352  0.00  0.00    +0.055 A 
ATOM     16  C   UNL     1      11.309  12.403  22.141  0.00  0.00    +0.016 A 
ATOM     17  C   UNL     1      12.944  11.019  23.177  0.00  0.00    +0.123 A 
ATOM     19  C   UNL     1      11.899  13.505  22.754  0.00  0.00    +0.020 A 
ATOM     22  C   UNL     1      13.004  13.284  23.560  0.00  0.00    +0.111 A 
ENDBRANCH  13  14
BRANCH   8  12
ATOM      1  O   UNL     1      15.320   8.610  19.812  0.00  0.00    -0.420 OA
ATOM      4  N   UNL     1      14.394   6.863  18.765  0.00  0.00    -0.112 NA
ATOM      5  N   UNL     1      15.566   6.433  19.359  0.00  0.00    -0.107 NA
ATOM     12  C   UNL     1      14.291   8.139  19.056  0.00  0.00    +0.222 A 
ATOM     15  C   UNL     1      16.072   7.485  19.958  0.00  0.00    +0.248 A 
BRANCH  15  18
ATOM      7  N   UNL     1      19.614   7.909  22.233  0.00  0.00    -0.263 NA
ATOM     18  C   UNL     1      17.274   7.629  20.729  0.00  0.00    +0.041 A 
ATOM     20  C   UNL     1      17.615   8.866  21.265  0.00  0.00    +0.033 A 
ATOM     21  C   UNL     1      18.100   6.532  20.944  0.00  0.00    +0.033 A 
ATOM     23  C   UNL     1      18.785   8.952  22.002  0.00  0.00    +0.111 A 
ATOM     24  C   UNL     1      19.249   6.723  21.696  0.00  0.00    +0.111 A 
ENDBRANCH  15  18
ENDBRANCH   8  12
TORSDOF 3
ENDMDL
MODEL 4
REMARK VINA RESULT:      -6.8      4.749      6.788
REMARK  Name = 51137852
REMARK  3 active torsions:
REMARK  status: ('A' for Active; 'I' for Inactive)
REMARK    1  A    between atoms: C_8  and  C_12
REMARK    2  A    between atoms: C_13  and  C_14
REMARK    3  A    between atoms: C_15  and  C_18
REMARK                            x       y       z     vdW  Elec       q    Type
REMARK                         _______ _______ _______ _____ _____    ______ ____
ROOT
ATOM      2  O   UNL     1      14.063  10.467  23.169  0.00  0.00    -0.270 OA
ATOM      3  N   UNL     1      12.545   9.184  21.966  0.00  0.00    -0.297 N 
ATOM      8  C   UNL     1      11.512   7.790  20.338  0.00  0.00    +0.095 C 
ATOM      9  C   UNL     1      12.569   6.985  21.111  0.00  0.00    +0.033 C 
ATOM     10  C   UNL     1      11.270   8.980  21.276  0.00  0.00    +0.121 C 
ATOM     11  C   UNL     1      13.437   8.054  21.761  0.00  0.00    +0.109 C 
ATOM     13  C   UNL     1      12.952  10.309  22.666  0.00  0.00    +0.248 C 
ENDROOT
BRANCH  13  14
ATOM      6  N   UNL     1      10.289  12.511  24.132  0.00  0.00    -0.263 NA
ATOM     14  C   UNL     1      11.984  11.408  22.807  0.00  0.00    +0.055 A 
ATOM     16  C   UNL     1      11.831  12.362  21.806  0.00  0.00    +0.016 A 
ATOM     17  C   UNL     1      11.196  11.527  23.940  0.00  0.00    +0.123 A 
ATOM     19  C   UNL     1      10.907  13.389  21.967  0.00  0.00    +0.020 A 
ATOM     22  C   UNL     1      10.168  13.419  23.138  0.00  0.00    +0.111 A 
ENDBRANCH  13  14
BRANCH   8  12
ATOM      1  O   UNL     1      12.561   9.333  18.743  0.00  0.00    -0.420 OA
ATOM      4  N   UNL     1      11.902   7.398  17.835  0.00  0.00    -0.112 NA
ATOM      5  N   UNL     1      12.470   8.166  16.836  0.00  0.00    -0.107 NA
ATOM     12  C   UNL     1      11.976   8.118  18.929  0.00  0.00    +0.222 A 
ATOM     15  C   UNL     1      12.840   9.286  17.411  0.00  0.00    +0.248 A 
BRANCH  15  18
ATOM      7  N   UNL     1      14.735  12.705  15.795  0.00  0.00    -0.263 NA
ATOM     18  C   UNL     1      13.482  10.446  16.863  0.00  0.00    +0.041 A 
ATOM     20  C   UNL     1      13.884  11.482  17.699  0.00  0.00    +0.033 A 
ATOM     21  C   UNL     1      13.707  10.538  15.495  0.00  0.00    +0.033 A 
ATOM     23  C   UNL     1      14.499  12.580  17.121  0.00  0.00    +0.111 A 
ATOM     24  C   UNL     1      14.332  11.678  15.014  0.00  0.00    +0.111 A 
ENDBRANCH  15  18
ENDBRANCH   8  12
TORSDOF 3
ENDMDL
MODEL 5
REMARK VINA RESULT:      -6.6      4.115      8.048
REMARK  Name = 51137852
REMARK  3 active torsions:
REMARK  status: ('A' for Active; 'I' for Inactive)
REMARK    1  A    between atoms: C_8  and  C_12
REMARK    2  A    between atoms: C_13  and  C_14
REMARK    3  A    between atoms: C_15  and  C_18
REMARK                            x       y       z     vdW  Elec       q    Type
REMARK                         _______ _______ _______ _____ _____    ______ ____
ROOT
ATOM      2  O   UNL     1      14.540   7.490  18.014  0.00  0.00    -0.270 OA
ATOM      3  N   UNL     1      13.508   7.562  20.094  0.00  0.00    -0.297 N 
ATOM      8  C   UNL     1      12.100   8.110  21.932  0.00  0.00    +0.095 C 
ATOM      9  C   UNL     1      11.266   7.455  20.819  0.00  0.00    +0.033 C 
ATOM     10  C   UNL     1      13.525   7.684  21.552  0.00  0.00    +0.121 C 
ATOM     11  C   UNL     1      12.147   7.576  19.583  0.00  0.00    +0.109 C 
ATOM     13  C   UNL     1      14.600   7.519  19.241  0.00  0.00    +0.248 C 
ENDROOT
BRANCH  13  14
ATOM      6  N   UNL     1      17.651   8.724  21.066  0.00  0.00    -0.263 NA
ATOM     14  C   UNL     1      15.939   7.524  19.851  0.00  0.00    +0.055 A 
ATOM     16  C   UNL     1      16.751   6.395  19.809  0.00  0.00    +0.016 A 
ATOM     17  C   UNL     1      16.432   8.653  20.486  0.00  0.00    +0.123 A 
ATOM     19  C   UNL     1      18.013   6.430  20.394  0.00  0.00    +0.020 A 
ATOM     22  C   UNL     1      18.412   7.608  21.004  0.00  0.00    +0.111 A 
ENDBRANCH  13  14
BRANCH   8  12
ATOM      1  O   UNL     1      11.903  10.164  23.261  0.00  0.00    -0.420 OA
ATOM      4  N   UNL     1      11.553  10.462  21.072  0.00  0.00    -0.112 NA
ATOM      5  N   UNL     1      11.413  11.687  21.697  0.00  0.00    -0.107 NA
ATOM     12  C   UNL     1      11.838   9.603  22.023  0.00  0.00    +0.222 A 
ATOM     15  C   UNL     1      11.626  11.465  22.973  0.00  0.00    +0.248 A 
BRANCH  15  18
ATOM      7  N   UNL     1      11.585  14.120  26.267  0.00  0.00    -0.263 NA
ATOM     18  C   UNL     1      11.612  12.366  24.090  0.00  0.00    +0.041 A 
ATOM     20  C   UNL     1      10.436  13.015  24.448  0.00  0.00    +0.033 A 
ATOM     21  C   UNL     1      12.774  12.592  24.818  0.00  0.00    +0.033 A 
ATOM     23  C   UNL     1      10.475  13.875  25.534  0.00  0.00    +0.111 A 
ATOM     24  C   UNL     1      12.709  13.471  25.888  0.00  0.00    +0.111 A 
ENDBRANCH  15  18
ENDBRANCH   8  12
TORSDOF 3
ENDMDL
MODEL 6
REMARK VINA RESULT:      -6.6      1.804      2.137
REMARK  Name = 51137852
REMARK  3 active torsions:
REMARK  status: ('A' for Active; 'I' for Inactive)
REMARK    1  A    between atoms: C_8  and  C_12
REMARK    2  A    between atoms: C_13  and  C_14
REMARK    3  A    between atoms: C_15  and  C_18
REMARK                            x       y       z     vdW  Elec       q    Type
REMARK                         _______ _______ _______ _____ _____    ______ ____
ROOT
ATOM      2  O   UNL     1      12.818  10.587  19.580  0.00  0.00    -0.270 OA
ATOM      3  N   UNL     1      14.003   8.610  19.284  0.00  0.00    -0.297 N 
ATOM      8  C   UNL     1      15.463   6.753  19.568  0.00  0.00    +0.095 C 
ATOM      9  C   UNL     1      14.323   6.676  20.596  0.00  0.00    +0.033 C 
ATOM     10  C   UNL     1      14.887   7.723  18.527  0.00  0.00    +0.121 C 
ATOM     11  C   UNL     1      13.755   8.089  20.618  0.00  0.00    +0.109 C 
ATOM     13  C   UNL     1      13.500   9.838  18.882  0.00  0.00    +0.248 C 
ENDROOT
BRANCH  13  14
ATOM      6  N   UNL     1      13.302  10.248  15.156  0.00  0.00    -0.263 NA
ATOM     14  C   UNL     1      13.818  10.289  17.518  0.00  0.00    +0.055 A 
ATOM     16  C   UNL     1      14.885  11.147  17.277  0.00  0.00    +0.016 A 
ATOM     17  C   UNL     1      13.063   9.872  16.432  0.00  0.00    +0.123 A 
ATOM     19  C   UNL     1      15.162  11.556  15.976  0.00  0.00    +0.020 A 
ATOM     22  C   UNL     1      14.347  11.082  14.961  0.00  0.00    +0.111 A 
ENDBRANCH  13  14
BRANCH   8  12
ATOM      1  O   UNL     1      17.695   6.171  20.409  0.00  0.00    -0.420 OA
ATOM      4  N   UNL     1      17.176   8.335  20.634  0.00  0.00    -0.112 NA
ATOM      5  N   UNL     1      18.447   8.146  21.143  0.00  0.00    -0.107 NA
ATOM     12  C   UNL     1      16.776   7.156  20.218  0.00  0.00    +0.222 A 
ATOM     15  C   UNL     1      18.709   6.869  20.991  0.00  0.00    +0.248 A 
BRANCH  15  18
ATOM      7  N   UNL     1      22.149   4.628  22.010  0.00  0.00    -0.263 NA
ATOM     18  C   UNL     1      19.876   6.109  21.337  0.00  0.00    +0.041 A 
ATOM     20  C   UNL     1      20.562   6.381  22.515  0.00  0.00    +0.033 A 
ATOM     21  C   UNL     1      20.324   5.098  20.495  0.00  0.00    +0.033 A 
ATOM     23  C   UNL     1      21.683   5.620  22.802  0.00  0.00    +0.111 A 
ATOM     24  C   UNL     1      21.456   4.392  20.874  0.00  0.00    +0.111 A 
ENDBRANCH  15  18
ENDBRANCH   8  12
TORSDOF 3
ENDMDL
MODEL 7
REMARK VINA RESULT:      -6.5      3.715      8.274
REMARK  Name = 51137852
REMARK  3 active torsions:
REMARK  status: ('A' for Active; 'I' for Inactive)
REMARK    1  A    between atoms: C_8  and  C_12
REMARK    2  A    between atoms: C_13  and  C_14
REMARK    3  A    between atoms: C_15  and  C_18
REMARK                            x       y       z     vdW  Elec       q    Type
REMARK                         _______ _______ _______ _____ _____    ______ ____
ROOT
ATOM      2  O   UNL     1      14.487   8.731  18.011  0.00  0.00    -0.270 OA
ATOM      3  N   UNL     1      13.238   8.262  19.913  0.00  0.00    -0.297 N 
ATOM      8  C   UNL     1      11.671   8.352  21.701  0.00  0.00    +0.095 C 
ATOM      9  C   UNL     1      10.927   8.144  20.372  0.00  0.00    +0.033 C 
ATOM     10  C   UNL     1      13.101   7.934  21.333  0.00  0.00    +0.121 C 
ATOM     11  C   UNL     1      11.945   8.554  19.316  0.00  0.00    +0.109 C 
ATOM     13  C   UNL     1      14.413   8.381  19.188  0.00  0.00    +0.248 C 
ENDROOT
BRANCH  13  14
ATOM      6  N   UNL     1      17.500   8.839  21.274  0.00  0.00    -0.263 NA
ATOM     14  C   UNL     1      15.674   8.079  19.882  0.00  0.00    +0.055 A 
ATOM     16  C   UNL     1      16.238   6.809  19.826  0.00  0.00    +0.016 A 
ATOM     17  C   UNL     1      16.339   9.051  20.614  0.00  0.00    +0.123 A 
ATOM     19  C   UNL     1      17.432   6.553  20.492  0.00  0.00    +0.020 A 
ATOM     22  C   UNL     1      18.017   7.593  21.196  0.00  0.00    +0.111 A 
ENDBRANCH  13  14
BRANCH   8  12
ATOM      1  O   UNL     1      11.421  10.762  21.306  0.00  0.00    -0.420 OA
ATOM      4  N   UNL     1      11.388  10.187  23.467  0.00  0.00    -0.112 NA
ATOM      5  N   UNL     1      11.239  11.559  23.389  0.00  0.00    -0.107 NA
ATOM     12  C   UNL     1      11.490   9.765  22.229  0.00  0.00    +0.222 A 
ATOM     15  C   UNL     1      11.265  11.850  22.109  0.00  0.00    +0.248 A 
BRANCH  15  18
ATOM      7  N   UNL     1      10.942  15.577  20.134  0.00  0.00    -0.263 NA
ATOM     18  C   UNL     1      11.155  13.114  21.439  0.00  0.00    +0.041 A 
ATOM     20  C   UNL     1      10.156  14.011  21.801  0.00  0.00    +0.033 A 
ATOM     21  C   UNL     1      12.047  13.447  20.427  0.00  0.00    +0.033 A 
ATOM     23  C   UNL     1      10.093  15.218  21.124  0.00  0.00    +0.111 A 
ATOM     24  C   UNL     1      11.900  14.680  19.811  0.00  0.00    +0.111 A 
ENDBRANCH  15  18
ENDBRANCH   8  12
TORSDOF 3
ENDMDL
MODEL 8
REMARK VINA RESULT:      -6.4     13.723     17.155
REMARK  Name = 51137852
REMARK  3 active torsions:
REMARK  status: ('A' for Active; 'I' for Inactive)
REMARK    1  A    between atoms: C_8  and  C_12
REMARK    2  A    between atoms: C_13  and  C_14
REMARK    3  A    between atoms: C_15  and  C_18
REMARK                            x       y       z     vdW  Elec       q    Type
REMARK                         _______ _______ _______ _____ _____    ______ ____
ROOT
ATOM      2  O   UNL     1      12.216   6.095   8.038  0.00  0.00    -0.270 OA
ATOM      3  N   UNL     1      11.388   6.426   5.892  0.00  0.00    -0.297 N 
ATOM      8  C   UNL     1      10.568   6.107   3.682  0.00  0.00    +0.095 C 
ATOM      9  C   UNL     1       9.543   5.573   4.695  0.00  0.00    +0.033 C 
ATOM     10  C   UNL     1      11.431   7.025   4.558  0.00  0.00    +0.121 C 
ATOM     11  C   UNL     1      10.347   5.415   5.979  0.00  0.00    +0.109 C 
ATOM     13  C   UNL     1      12.243   6.676   6.954  0.00  0.00    +0.248 C 
ENDROOT
BRANCH  13  14
ATOM      6  N   UNL     1      13.890  10.046   6.804  0.00  0.00    -0.263 NA
ATOM     14  C   UNL     1      13.275   7.707   6.767  0.00  0.00    +0.055 A 
ATOM     16  C   UNL     1      14.570   7.366   6.390  0.00  0.00    +0.016 A 
ATOM     17  C   UNL     1      12.989   9.050   6.959  0.00  0.00    +0.123 A 
ATOM     19  C   UNL     1      15.525   8.364   6.220  0.00  0.00    +0.020 A 
ATOM     22  C   UNL     1      15.137   9.676   6.437  0.00  0.00    +0.111 A 
ENDBRANCH  13  14
BRANCH   8  12
ATOM      1  O   UNL     1      12.279   5.330   2.102  0.00  0.00    -0.420 OA
ATOM      4  N   UNL     1      11.102   3.681   3.049  0.00  0.00    -0.112 NA
ATOM      5  N   UNL     1      12.022   3.109   2.190  0.00  0.00    -0.107 NA
ATOM     12  C   UNL     1      11.288   4.977   2.965  0.00  0.00    +0.222 A 
ATOM     15  C   UNL     1      12.686   4.109   1.659  0.00  0.00    +0.248 A 
BRANCH  15  18
ATOM      7  N   UNL     1      15.841   4.122  -1.159  0.00  0.00    -0.263 NA
ATOM     18  C   UNL     1      13.756   4.113   0.703  0.00  0.00    +0.041 A 
ATOM     20  C   UNL     1      13.498   4.399  -0.633  0.00  0.00    +0.033 A 
ATOM     21  C   UNL     1      15.055   3.831   1.109  0.00  0.00    +0.033 A 
ATOM     23  C   UNL     1      14.565   4.390  -1.515  0.00  0.00    +0.111 A 
ATOM     24  C   UNL     1      16.054   3.848   0.148  0.00  0.00    +0.111 A 
ENDBRANCH  15  18
ENDBRANCH   8  12
TORSDOF 3
ENDMDL
MODEL 9
REMARK VINA RESULT:      -6.4      4.606      7.343
REMARK  Name = 51137852
REMARK  3 active torsions:
REMARK  status: ('A' for Active; 'I' for Inactive)
REMARK    1  A    between atoms: C_8  and  C_12
REMARK    2  A    between atoms: C_13  and  C_14
REMARK    3  A    between atoms: C_15  and  C_18
REMARK                            x       y       z     vdW  Elec       q    Type
REMARK                         _______ _______ _______ _____ _____    ______ ____
ROOT
ATOM      2  O   UNL     1      12.159   8.736  16.255  0.00  0.00    -0.270 OA
ATOM      3  N   UNL     1      13.161   8.391  18.322  0.00  0.00    -0.297 N 
ATOM      8  C   UNL     1      13.563   7.932  20.622  0.00  0.00    +0.095 C 
ATOM      9  C   UNL     1      13.077   6.655  19.918  0.00  0.00    +0.033 C 
ATOM     10  C   UNL     1      14.019   8.794  19.437  0.00  0.00    +0.121 C 
ATOM     11  C   UNL     1      12.440   7.167  18.633  0.00  0.00    +0.109 C 
ATOM     13  C   UNL     1      12.947   9.075  17.136  0.00  0.00    +0.248 C 
ENDROOT
BRANCH  13  14
ATOM      6  N   UNL     1      15.394  11.506  15.656  0.00  0.00    -0.263 NA
ATOM     14  C   UNL     1      13.712  10.312  16.918  0.00  0.00    +0.055 A 
ATOM     16  C   UNL     1      13.509  11.431  17.719  0.00  0.00    +0.016 A 
ATOM     17  C   UNL     1      14.658  10.401  15.909  0.00  0.00    +0.123 A 
ATOM     19  C   UNL     1      14.249  12.588  17.489  0.00  0.00    +0.020 A 
ATOM     22  C   UNL     1      15.170  12.573  16.454  0.00  0.00    +0.111 A 
ENDBRANCH  13  14
BRANCH   8  12
ATOM      1  O   UNL     1      12.467   9.878  21.643  0.00  0.00    -0.420 OA
ATOM      4  N   UNL     1      11.547   7.918  22.205  0.00  0.00    -0.112 NA
ATOM      5  N   UNL     1      10.840   8.921  22.843  0.00  0.00    -0.107 NA
ATOM     12  C   UNL     1      12.486   8.523  21.517  0.00  0.00    +0.222 A 
ATOM     15  C   UNL     1      11.412  10.046  22.486  0.00  0.00    +0.248 A 
BRANCH  15  18
ATOM      7  N   UNL     1      10.497  14.042  23.532  0.00  0.00    -0.263 NA
ATOM     18  C   UNL     1      11.102  11.402  22.841  0.00  0.00    +0.041 A 
ATOM     20  C   UNL     1      11.137  12.401  21.875  0.00  0.00    +0.033 A 
ATOM     21  C   UNL     1      10.765  11.720  24.151  0.00  0.00    +0.033 A 
ATOM     23  C   UNL     1      10.830  13.693  22.268  0.00  0.00    +0.111 A 
ATOM     24  C   UNL     1      10.473  13.043  24.443  0.00  0.00    +0.111 A 
ENDBRANCH  15  18
ENDBRANCH   8  12
TORSDOF 3
ENDMDL
MODEL 10
REMARK VINA RESULT:      -6.3     26.700     28.336
REMARK  Name = 51137852
REMARK  3 active torsions:
REMARK  status: ('A' for Active; 'I' for Inactive)
REMARK    1  A    between atoms: C_8  and  C_12
REMARK    2  A    between atoms: C_13  and  C_14
REMARK    3  A    between atoms: C_15  and  C_18
REMARK                            x       y       z     vdW  Elec       q    Type
REMARK                         _______ _______ _______ _____ _____    ______ ____
ROOT
ATOM      2  O   UNL     1      -5.727 -12.954  11.152  0.00  0.00    -0.270 OA
ATOM      3  N   UNL     1      -3.615 -12.322  11.885  0.00  0.00    -0.297 N 
ATOM      8  C   UNL     1      -1.683 -11.902  13.210  0.00  0.00    +0.095 C 
ATOM      9  C   UNL     1      -1.890 -13.418  13.066  0.00  0.00    +0.033 C 
ATOM     10  C   UNL     1      -2.530 -11.354  12.052  0.00  0.00    +0.121 C 
ATOM     11  C   UNL     1      -3.341 -13.547  12.620  0.00  0.00    +0.109 C 
ATOM     13  C   UNL     1      -4.809 -12.137  11.206  0.00  0.00    +0.248 C 
ENDROOT
BRANCH  13  14
ATOM      6  N   UNL     1      -5.944  -8.632  10.492  0.00  0.00    -0.263 NA
ATOM     14  C   UNL     1      -5.001 -10.858  10.505  0.00  0.00    +0.055 A 
ATOM     16  C   UNL     1      -4.458 -10.643   9.243  0.00  0.00    +0.016 A 
ATOM     17  C   UNL     1      -5.730  -9.829  11.081  0.00  0.00    +0.123 A 
ATOM     19  C   UNL     1      -4.657  -9.423   8.605  0.00  0.00    +0.020 A 
ATOM     22  C   UNL     1      -5.401  -8.459   9.266  0.00  0.00    +0.111 A 
ENDBRANCH  13  14
BRANCH   8  12
ATOM      1  O   UNL     1      -3.365 -11.224  14.865  0.00  0.00    -0.420 OA
ATOM      4  N   UNL     1      -1.262 -11.147  15.623  0.00  0.00    -0.112 NA
ATOM      5  N   UNL     1      -2.099 -10.744  16.646  0.00  0.00    -0.107 NA
ATOM     12  C   UNL     1      -2.043 -11.417  14.604  0.00  0.00    +0.222 A 
ATOM     15  C   UNL     1      -3.316 -10.805  16.159  0.00  0.00    +0.248 A 
BRANCH  15  18
ATOM      7  N   UNL     1      -7.040  -9.913  17.958  0.00  0.00    -0.263 NA
ATOM     18  C   UNL     1      -4.579 -10.503  16.769  0.00  0.00    +0.041 A 
ATOM     20  C   UNL     1      -4.840 -10.910  18.073  0.00  0.00    +0.033 A 
ATOM     21  C   UNL     1      -5.547  -9.802  16.059  0.00  0.00    +0.033 A 
ATOM     23  C   UNL     1      -6.074 -10.594  18.616  0.00  0.00    +0.111 A 
ATOM     24  C   UNL     1      -6.750  -9.534  16.693  0.00  0.00    +0.111 A 
ENDBRANCH  15  18
ENDBRANCH   8  12
TORSDOF 3
ENDMDL
