MODEL 1
REMARK VINA RESULT:      -6.1      0.000      0.000
REMARK  Name = 45783695
REMARK  8 active torsions:
REMARK  status: ('A' for Active; 'I' for Inactive)
REMARK    1  A    between atoms: O_2  and  C_21
REMARK    2  A    between atoms: O_2  and  C_22
REMARK    3  A    between atoms: N_3  and  C_11
REMARK    4  A    between atoms: C_7  and  C_13
REMARK    5  A    between atoms: C_11  and  C_12
REMARK    6  A    between atoms: C_12  and  C_14
REMARK    7  A    between atoms: C_12  and  C_15
REMARK    8  A    between atoms: C_16  and  C_17
REMARK                            x       y       z     vdW  Elec       q    Type
REMARK                         _______ _______ _______ _____ _____    ______ ____
ROOT
ATOM      1  O   UNL     1      15.892   6.048  18.515  0.00  0.00    -0.336 OA
ATOM      4  N   UNL     1      16.173   7.330  20.331  0.00  0.00    -0.190 NA
ATOM      5  N   UNL     1      17.218   5.859  18.925  0.00  0.00    -0.056 NA
ATOM     13  C   UNL     1      15.348   6.928  19.396  0.00  0.00    +0.245 A 
ATOM     16  C   UNL     1      17.307   6.647  20.000  0.00  0.00    +0.204 A 
ENDROOT
BRANCH  16  17
ATOM      6  N   UNL     1      19.755   7.932  22.487  0.00  0.00    -0.221 NA
ATOM     17  C   UNL     1      18.514   6.776  20.764  0.00  0.00    +0.041 A 
ATOM     18  C   UNL     1      19.588   5.919  20.555  0.00  0.00    +0.018 A 
ATOM     19  C   UNL     1      18.646   7.757  21.734  0.00  0.00    +0.126 A 
ATOM     20  C   UNL     1      20.746   6.067  21.310  0.00  0.00    +0.068 A 
ATOM     21  C   UNL     1      20.779   7.080  22.254  0.00  0.00    +0.214 A 
BRANCH  21   2
ATOM      2  O   UNL     1      21.909   7.246  23.012  0.00  0.00    -0.480 OA
ATOM     22  C   UNL     1      21.831   6.842  24.374  0.00  0.00    +0.279 C 
ENDBRANCH  21   2
ENDBRANCH  16  17
BRANCH  13   7
ATOM      3  N   UNL     1      13.422   8.330  20.116  0.00  0.00    -0.291 NA
ATOM      7  C   UNL     1      13.899   7.302  19.169  0.00  0.00    +0.146 C 
ATOM      8  C   UNL     1      13.653   7.912  17.775  0.00  0.00    +0.030 C 
ATOM      9  C   UNL     1      12.378   9.083  19.420  0.00  0.00    +0.085 C 
ATOM     10  C   UNL     1      12.982   9.252  18.040  0.00  0.00    +0.017 C 
BRANCH   3  11
ATOM     11  C   UNL     1      12.948   7.773  21.377  0.00  0.00    +0.088 C 
BRANCH  11  12
ATOM     12  C   UNL     1      11.447   7.442  21.345  0.00  0.00    -0.003 C 
ATOM     14  C   UNL     1      10.665   8.154  22.454  0.00  0.00    +0.008 C 
ATOM     15  C   UNL     1      11.248   5.929  21.467  0.00  0.00    +0.008 C 
ENDBRANCH  11  12
ENDBRANCH   3  11
ENDBRANCH  13   7
TORSDOF 5
ENDMDL
MODEL 2
REMARK VINA RESULT:      -6.1      1.583      2.134
REMARK  Name = 45783695
REMARK  8 active torsions:
REMARK  status: ('A' for Active; 'I' for Inactive)
REMARK    1  A    between atoms: O_2  and  C_21
REMARK    2  A    between atoms: O_2  and  C_22
REMARK    3  A    between atoms: N_3  and  C_11
REMARK    4  A    between atoms: C_7  and  C_13
REMARK    5  A    between atoms: C_11  and  C_12
REMARK    6  A    between atoms: C_12  and  C_14
REMARK    7  A    between atoms: C_12  and  C_15
REMARK    8  A    between atoms: C_16  and  C_17
REMARK                            x       y       z     vdW  Elec       q    Type
REMARK                         _______ _______ _______ _____ _____    ______ ____
ROOT
ATOM      1  O   UNL     1      15.419   8.470  20.029  0.00  0.00    -0.336 OA
ATOM      4  N   UNL     1      16.216   6.503  19.314  0.00  0.00    -0.190 NA
ATOM      5  N   UNL     1      16.664   8.306  20.649  0.00  0.00    -0.056 NA
ATOM     13  C   UNL     1      15.232   7.366  19.261  0.00  0.00    +0.245 A 
ATOM     16  C   UNL     1      17.071   7.123  20.178  0.00  0.00    +0.204 A 
ENDROOT
BRANCH  16  17
ATOM      6  N   UNL     1      20.007   4.841  20.168  0.00  0.00    -0.221 NA
ATOM     17  C   UNL     1      18.324   6.534  20.551  0.00  0.00    +0.041 A 
ATOM     18  C   UNL     1      19.065   7.041  21.613  0.00  0.00    +0.018 A 
ATOM     19  C   UNL     1      18.834   5.443  19.867  0.00  0.00    +0.126 A 
ATOM     20  C   UNL     1      20.276   6.449  21.953  0.00  0.00    +0.068 A 
ATOM     21  C   UNL     1      20.699   5.361  21.207  0.00  0.00    +0.214 A 
BRANCH  21   2
ATOM      2  O   UNL     1      21.890   4.761  21.522  0.00  0.00    -0.480 OA
ATOM     22  C   UNL     1      21.952   3.347  21.376  0.00  0.00    +0.279 C 
ENDBRANCH  21   2
ENDBRANCH  16  17
BRANCH  13   7
ATOM      3  N   UNL     1      12.783   7.809  19.238  0.00  0.00    -0.291 NA
ATOM      7  C   UNL     1      13.940   7.301  18.475  0.00  0.00    +0.146 C 
ATOM      8  C   UNL     1      13.976   8.164  17.200  0.00  0.00    +0.030 C 
ATOM      9  C   UNL     1      11.843   8.349  18.256  0.00  0.00    +0.085 C 
ATOM     10  C   UNL     1      12.769   9.085  17.308  0.00  0.00    +0.017 C 
BRANCH   3  11
ATOM     11  C   UNL     1      12.167   6.799  20.089  0.00  0.00    +0.088 C 
BRANCH  11  12
ATOM     12  C   UNL     1      11.958   7.292  21.530  0.00  0.00    -0.003 C 
ATOM     14  C   UNL     1      10.484   7.283  21.946  0.00  0.00    +0.008 C 
ATOM     15  C   UNL     1      12.527   8.705  21.681  0.00  0.00    +0.008 C 
ENDBRANCH  11  12
ENDBRANCH   3  11
ENDBRANCH  13   7
TORSDOF 5
ENDMDL
MODEL 3
REMARK VINA RESULT:      -6.1      1.304      2.946
REMARK  Name = 45783695
REMARK  8 active torsions:
REMARK  status: ('A' for Active; 'I' for Inactive)
REMARK    1  A    between atoms: O_2  and  C_21
REMARK    2  A    between atoms: O_2  and  C_22
REMARK    3  A    between atoms: N_3  and  C_11
REMARK    4  A    between atoms: C_7  and  C_13
REMARK    5  A    between atoms: C_11  and  C_12
REMARK    6  A    between atoms: C_12  and  C_14
REMARK    7  A    between atoms: C_12  and  C_15
REMARK    8  A    between atoms: C_16  and  C_17
REMARK                            x       y       z     vdW  Elec       q    Type
REMARK                         _______ _______ _______ _____ _____    ______ ____
ROOT
ATOM      1  O   UNL     1      14.462   6.726  19.502  0.00  0.00    -0.336 OA
ATOM      4  N   UNL     1      15.645   7.820  21.059  0.00  0.00    -0.190 NA
ATOM      5  N   UNL     1      15.761   6.205  19.442  0.00  0.00    -0.056 NA
ATOM     13  C   UNL     1      14.480   7.670  20.478  0.00  0.00    +0.245 A 
ATOM     16  C   UNL     1      16.399   6.900  20.389  0.00  0.00    +0.204 A 
ENDROOT
BRANCH  16  17
ATOM      6  N   UNL     1      19.754   7.389  21.915  0.00  0.00    -0.221 NA
ATOM     17  C   UNL     1      17.786   6.701  20.690  0.00  0.00    +0.041 A 
ATOM     18  C   UNL     1      18.509   5.677  20.089  0.00  0.00    +0.018 A 
ATOM     19  C   UNL     1      18.450   7.522  21.588  0.00  0.00    +0.126 A 
ATOM     20  C   UNL     1      19.854   5.508  20.399  0.00  0.00    +0.068 A 
ATOM     21  C   UNL     1      20.425   6.382  21.309  0.00  0.00    +0.214 A 
BRANCH  21   2
ATOM      2  O   UNL     1      21.749   6.236  21.632  0.00  0.00    -0.480 OA
ATOM     22  C   UNL     1      22.151   4.960  22.117  0.00  0.00    +0.279 C 
ENDBRANCH  21   2
ENDBRANCH  16  17
BRANCH  13   7
ATOM      3  N   UNL     1      12.287   8.412  19.565  0.00  0.00    -0.291 NA
ATOM      7  C   UNL     1      13.176   8.391  20.744  0.00  0.00    +0.146 C 
ATOM      8  C   UNL     1      12.339   7.719  21.850  0.00  0.00    +0.030 C 
ATOM      9  C   UNL     1      10.918   8.453  20.078  0.00  0.00    +0.085 C 
ATOM     10  C   UNL     1      10.981   7.456  21.217  0.00  0.00    +0.017 C 
BRANCH   3  11
ATOM     11  C   UNL     1      12.566   9.517  18.656  0.00  0.00    +0.088 C 
BRANCH  11  12
ATOM     12  C   UNL     1      12.960   9.037  17.250  0.00  0.00    -0.003 C 
ATOM     14  C   UNL     1      14.176   9.782  16.693  0.00  0.00    +0.008 C 
ATOM     15  C   UNL     1      11.774   9.203  16.295  0.00  0.00    +0.008 C 
ENDBRANCH  11  12
ENDBRANCH   3  11
ENDBRANCH  13   7
TORSDOF 5
ENDMDL
MODEL 4
REMARK VINA RESULT:      -6.0     26.646     28.633
REMARK  Name = 45783695
REMARK  8 active torsions:
REMARK  status: ('A' for Active; 'I' for Inactive)
REMARK    1  A    between atoms: O_2  and  C_21
REMARK    2  A    between atoms: O_2  and  C_22
REMARK    3  A    between atoms: N_3  and  C_11
REMARK    4  A    between atoms: C_7  and  C_13
REMARK    5  A    between atoms: C_11  and  C_12
REMARK    6  A    between atoms: C_12  and  C_14
REMARK    7  A    between atoms: C_12  and  C_15
REMARK    8  A    between atoms: C_16  and  C_17
REMARK                            x       y       z     vdW  Elec       q    Type
REMARK                         _______ _______ _______ _____ _____    ______ ____
ROOT
ATOM      1  O   UNL     1      -2.294 -10.506  14.570  0.00  0.00    -0.336 OA
ATOM      4  N   UNL     1      -4.518 -10.749  14.469  0.00  0.00    -0.190 NA
ATOM      5  N   UNL     1      -2.748 -10.494  15.894  0.00  0.00    -0.056 NA
ATOM     13  C   UNL     1      -3.399 -10.660  13.794  0.00  0.00    +0.245 A 
ATOM     16  C   UNL     1      -4.068 -10.642  15.752  0.00  0.00    +0.204 A 
ENDROOT
BRANCH  16  17
ATOM      6  N   UNL     1      -7.127 -10.148  17.808  0.00  0.00    -0.221 NA
ATOM     17  C   UNL     1      -4.964 -10.686  16.871  0.00  0.00    +0.041 A 
ATOM     18  C   UNL     1      -4.584 -11.277  18.070  0.00  0.00    +0.018 A 
ATOM     19  C   UNL     1      -6.236 -10.140  16.792  0.00  0.00    +0.126 A 
ATOM     20  C   UNL     1      -5.473 -11.304  19.139  0.00  0.00    +0.068 A 
ATOM     21  C   UNL     1      -6.721 -10.731  18.958  0.00  0.00    +0.214 A 
BRANCH  21   2
ATOM      2  O   UNL     1      -7.616 -10.745  19.997  0.00  0.00    -0.480 OA
ATOM     22  C   UNL     1      -8.935 -11.188  19.698  0.00  0.00    +0.279 C 
ENDBRANCH  21   2
ENDBRANCH  16  17
BRANCH  13   7
ATOM      3  N   UNL     1      -3.990  -9.714  11.569  0.00  0.00    -0.291 NA
ATOM      7  C   UNL     1      -3.173 -10.705  12.298  0.00  0.00    +0.146 C 
ATOM      8  C   UNL     1      -1.720 -10.378  11.905  0.00  0.00    +0.030 C 
ATOM      9  C   UNL     1      -3.235  -9.358  10.368  0.00  0.00    +0.085 C 
ATOM     10  C   UNL     1      -1.826  -9.232  10.910  0.00  0.00    +0.017 C 
BRANCH   3  11
ATOM     11  C   UNL     1      -5.330 -10.194  11.254  0.00  0.00    +0.088 C 
BRANCH  11  12
ATOM     12  C   UNL     1      -6.410  -9.129  11.507  0.00  0.00    -0.003 C 
ATOM     14  C   UNL     1      -7.356  -9.512  12.649  0.00  0.00    +0.008 C 
ATOM     15  C   UNL     1      -7.217  -8.897  10.227  0.00  0.00    +0.008 C 
ENDBRANCH  11  12
ENDBRANCH   3  11
ENDBRANCH  13   7
TORSDOF 5
ENDMDL
MODEL 5
REMARK VINA RESULT:      -5.8     15.861     19.077
REMARK  Name = 45783695
REMARK  8 active torsions:
REMARK  status: ('A' for Active; 'I' for Inactive)
REMARK    1  A    between atoms: O_2  and  C_21
REMARK    2  A    between atoms: O_2  and  C_22
REMARK    3  A    between atoms: N_3  and  C_11
REMARK    4  A    between atoms: C_7  and  C_13
REMARK    5  A    between atoms: C_11  and  C_12
REMARK    6  A    between atoms: C_12  and  C_14
REMARK    7  A    between atoms: C_12  and  C_15
REMARK    8  A    between atoms: C_16  and  C_17
REMARK                            x       y       z     vdW  Elec       q    Type
REMARK                         _______ _______ _______ _____ _____    ______ ____
ROOT
ATOM      1  O   UNL     1      10.134   4.433   5.371  0.00  0.00    -0.336 OA
ATOM      4  N   UNL     1      11.064   5.825   3.883  0.00  0.00    -0.190 NA
ATOM      5  N   UNL     1      10.376   3.670   4.222  0.00  0.00    -0.056 NA
ATOM     13  C   UNL     1      10.568   5.689   5.088  0.00  0.00    +0.245 A 
ATOM     16  C   UNL     1      10.924   4.561   3.390  0.00  0.00    +0.204 A 
ENDROOT
BRANCH  16  17
ATOM      6  N   UNL     1      10.840   4.122  -0.302  0.00  0.00    -0.221 NA
ATOM     17  C   UNL     1      11.342   4.219   2.061  0.00  0.00    +0.041 A 
ATOM     18  C   UNL     1      12.598   3.673   1.824  0.00  0.00    +0.018 A 
ATOM     19  C   UNL     1      10.508   4.422   0.974  0.00  0.00    +0.126 A 
ATOM     20  C   UNL     1      12.977   3.351   0.526  0.00  0.00    +0.068 A 
ATOM     21  C   UNL     1      12.069   3.592  -0.493  0.00  0.00    +0.214 A 
BRANCH  21   2
ATOM      2  O   UNL     1      12.419   3.284  -1.782  0.00  0.00    -0.480 OA
ATOM     22  C   UNL     1      11.893   2.074  -2.315  0.00  0.00    +0.279 C 
ENDBRANCH  21   2
ENDBRANCH  16  17
BRANCH  13   7
ATOM      3  N   UNL     1       9.091   7.369   6.178  0.00  0.00    -0.291 NA
ATOM      7  C   UNL     1      10.418   6.720   6.186  0.00  0.00    +0.146 C 
ATOM      8  C   UNL     1      10.546   6.111   7.595  0.00  0.00    +0.030 C 
ATOM      9  C   UNL     1       8.807   7.746   7.563  0.00  0.00    +0.085 C 
ATOM     10  C   UNL     1       9.274   6.521   8.323  0.00  0.00    +0.017 C 
BRANCH   3  11
ATOM     11  C   UNL     1       9.015   8.509   5.273  0.00  0.00    +0.088 C 
BRANCH  11  12
ATOM     12  C   UNL     1       7.939   8.328   4.190  0.00  0.00    -0.003 C 
ATOM     14  C   UNL     1       8.536   8.023   2.813  0.00  0.00    +0.008 C 
ATOM     15  C   UNL     1       7.072   9.587   4.107  0.00  0.00    +0.008 C 
ENDBRANCH  11  12
ENDBRANCH   3  11
ENDBRANCH  13   7
TORSDOF 5
ENDMDL
MODEL 6
REMARK VINA RESULT:      -5.8      2.257      7.989
REMARK  Name = 45783695
REMARK  8 active torsions:
REMARK  status: ('A' for Active; 'I' for Inactive)
REMARK    1  A    between atoms: O_2  and  C_21
REMARK    2  A    between atoms: O_2  and  C_22
REMARK    3  A    between atoms: N_3  and  C_11
REMARK    4  A    between atoms: C_7  and  C_13
REMARK    5  A    between atoms: C_11  and  C_12
REMARK    6  A    between atoms: C_12  and  C_14
REMARK    7  A    between atoms: C_12  and  C_15
REMARK    8  A    between atoms: C_16  and  C_17
REMARK                            x       y       z     vdW  Elec       q    Type
REMARK                         _______ _______ _______ _____ _____    ______ ____
ROOT
ATOM      1  O   UNL     1      18.566   5.888  19.539  0.00  0.00    -0.336 OA
ATOM      4  N   UNL     1      17.678   6.993  21.273  0.00  0.00    -0.190 NA
ATOM      5  N   UNL     1      17.190   5.960  19.291  0.00  0.00    -0.056 NA
ATOM     13  C   UNL     1      18.769   6.519  20.724  0.00  0.00    +0.245 A 
ATOM     16  C   UNL     1      16.736   6.626  20.358  0.00  0.00    +0.204 A 
ENDROOT
BRANCH  16  17
ATOM      6  N   UNL     1      13.106   6.988  19.634  0.00  0.00    -0.221 NA
ATOM     17  C   UNL     1      15.348   6.938  20.539  0.00  0.00    +0.041 A 
ATOM     18  C   UNL     1      14.885   7.474  21.735  0.00  0.00    +0.018 A 
ATOM     19  C   UNL     1      14.426   6.716  19.528  0.00  0.00    +0.126 A 
ATOM     20  C   UNL     1      13.534   7.768  21.882  0.00  0.00    +0.068 A 
ATOM     21  C   UNL     1      12.694   7.510  20.812  0.00  0.00    +0.214 A 
BRANCH  21   2
ATOM      2  O   UNL     1      11.357   7.790  20.932  0.00  0.00    -0.480 OA
ATOM     22  C   UNL     1      10.886   8.107  22.237  0.00  0.00    +0.279 C 
ENDBRANCH  21   2
ENDBRANCH  16  17
BRANCH  13   7
ATOM      3  N   UNL     1      21.112   5.732  20.429  0.00  0.00    -0.291 NA
ATOM      7  C   UNL     1      20.198   6.580  21.221  0.00  0.00    +0.146 C 
ATOM      8  C   UNL     1      20.800   7.994  21.129  0.00  0.00    +0.030 C 
ATOM      9  C   UNL     1      22.428   6.366  20.496  0.00  0.00    +0.085 C 
ATOM     10  C   UNL     1      22.079   7.831  20.319  0.00  0.00    +0.017 C 
BRANCH   3  11
ATOM     11  C   UNL     1      21.147   4.347  20.882  0.00  0.00    +0.088 C 
BRANCH  11  12
ATOM     12  C   UNL     1      22.490   3.975  21.533  0.00  0.00    -0.003 C 
ATOM     14  C   UNL     1      23.047   2.647  21.012  0.00  0.00    +0.008 C 
ATOM     15  C   UNL     1      22.326   3.903  23.053  0.00  0.00    +0.008 C 
ENDBRANCH  11  12
ENDBRANCH   3  11
ENDBRANCH  13   7
TORSDOF 5
ENDMDL
MODEL 7
REMARK VINA RESULT:      -5.7      2.164      3.081
REMARK  Name = 45783695
REMARK  8 active torsions:
REMARK  status: ('A' for Active; 'I' for Inactive)
REMARK    1  A    between atoms: O_2  and  C_21
REMARK    2  A    between atoms: O_2  and  C_22
REMARK    3  A    between atoms: N_3  and  C_11
REMARK    4  A    between atoms: C_7  and  C_13
REMARK    5  A    between atoms: C_11  and  C_12
REMARK    6  A    between atoms: C_12  and  C_14
REMARK    7  A    between atoms: C_12  and  C_15
REMARK    8  A    between atoms: C_16  and  C_17
REMARK                            x       y       z     vdW  Elec       q    Type
REMARK                         _______ _______ _______ _____ _____    ______ ____
ROOT
ATOM      1  O   UNL     1      14.437   8.663  20.181  0.00  0.00    -0.336 OA
ATOM      4  N   UNL     1      15.310   7.324  21.750  0.00  0.00    -0.190 NA
ATOM      5  N   UNL     1      15.765   8.431  19.800  0.00  0.00    -0.056 NA
ATOM     13  C   UNL     1      14.252   7.977  21.338  0.00  0.00    +0.245 A 
ATOM     16  C   UNL     1      16.213   7.633  20.775  0.00  0.00    +0.204 A 
ENDROOT
BRANCH  16  17
ATOM      6  N   UNL     1      19.809   7.304  21.660  0.00  0.00    -0.221 NA
ATOM     17  C   UNL     1      17.555   7.130  20.803  0.00  0.00    +0.041 A 
ATOM     18  C   UNL     1      17.921   6.025  20.042  0.00  0.00    +0.018 A 
ATOM     19  C   UNL     1      18.528   7.727  21.588  0.00  0.00    +0.126 A 
ATOM     20  C   UNL     1      19.231   5.559  20.089  0.00  0.00    +0.068 A 
ATOM     21  C   UNL     1      20.128   6.228  20.905  0.00  0.00    +0.214 A 
BRANCH  21   2
ATOM      2  O   UNL     1      21.425   5.787  20.969  0.00  0.00    -0.480 OA
ATOM     22  C   UNL     1      21.618   4.406  21.252  0.00  0.00    +0.279 C 
ENDBRANCH  21   2
ENDBRANCH  16  17
BRANCH  13   7
ATOM      3  N   UNL     1      12.186   9.332  21.642  0.00  0.00    -0.291 NA
ATOM      7  C   UNL     1      12.876   8.066  21.964  0.00  0.00    +0.146 C 
ATOM      8  C   UNL     1      11.923   6.964  21.463  0.00  0.00    +0.030 C 
ATOM      9  C   UNL     1      10.754   9.037  21.653  0.00  0.00    +0.085 C 
ATOM     10  C   UNL     1      10.703   7.704  20.934  0.00  0.00    +0.017 C 
BRANCH   3  11
ATOM     11  C   UNL     1      12.530  10.419  22.550  0.00  0.00    +0.088 C 
BRANCH  11  12
ATOM     12  C   UNL     1      11.310  11.274  22.932  0.00  0.00    -0.003 C 
ATOM     14  C   UNL     1      11.288  12.623  22.207  0.00  0.00    +0.008 C 
ATOM     15  C   UNL     1      11.292  11.503  24.445  0.00  0.00    +0.008 C 
ENDBRANCH  11  12
ENDBRANCH   3  11
ENDBRANCH  13   7
TORSDOF 5
ENDMDL
MODEL 8
REMARK VINA RESULT:      -5.7     15.263     18.455
REMARK  Name = 45783695
REMARK  8 active torsions:
REMARK  status: ('A' for Active; 'I' for Inactive)
REMARK    1  A    between atoms: O_2  and  C_21
REMARK    2  A    between atoms: O_2  and  C_22
REMARK    3  A    between atoms: N_3  and  C_11
REMARK    4  A    between atoms: C_7  and  C_13
REMARK    5  A    between atoms: C_11  and  C_12
REMARK    6  A    between atoms: C_12  and  C_14
REMARK    7  A    between atoms: C_12  and  C_15
REMARK    8  A    between atoms: C_16  and  C_17
REMARK                            x       y       z     vdW  Elec       q    Type
REMARK                         _______ _______ _______ _____ _____    ______ ____
ROOT
ATOM      1  O   UNL     1      11.616   7.350   2.943  0.00  0.00    -0.336 OA
ATOM      4  N   UNL     1      11.184   5.264   3.635  0.00  0.00    -0.190 NA
ATOM      5  N   UNL     1      11.393   7.435   4.323  0.00  0.00    -0.056 NA
ATOM     13  C   UNL     1      11.474   6.038   2.619  0.00  0.00    +0.245 A 
ATOM     16  C   UNL     1      11.144   6.165   4.658  0.00  0.00    +0.204 A 
ENDROOT
BRANCH  16  17
ATOM      6  N   UNL     1      11.294   5.997   8.370  0.00  0.00    -0.221 NA
ATOM     17  C   UNL     1      10.852   5.766   6.004  0.00  0.00    +0.041 A 
ATOM     18  C   UNL     1       9.888   4.800   6.270  0.00  0.00    +0.018 A 
ATOM     19  C   UNL     1      11.520   6.329   7.079  0.00  0.00    +0.126 A 
ATOM     20  C   UNL     1       9.626   4.431   7.585  0.00  0.00    +0.068 A 
ATOM     21  C   UNL     1      10.350   5.053   8.590  0.00  0.00    +0.214 A 
BRANCH  21   2
ATOM      2  O   UNL     1      10.110   4.707   9.894  0.00  0.00    -0.480 OA
ATOM     22  C   UNL     1       8.749   4.687  10.310  0.00  0.00    +0.279 C 
ENDBRANCH  21   2
ENDBRANCH  16  17
BRANCH  13   7
ATOM      3  N   UNL     1      11.416   4.248   0.891  0.00  0.00    -0.291 NA
ATOM      7  C   UNL     1      11.671   5.677   1.162  0.00  0.00    +0.146 C 
ATOM      8  C   UNL     1      10.705   6.429   0.228  0.00  0.00    +0.030 C 
ATOM      9  C   UNL     1      10.947   4.166  -0.492  0.00  0.00    +0.085 C 
ATOM     10  C   UNL     1       9.996   5.344  -0.570  0.00  0.00    +0.017 C 
BRANCH   3  11
ATOM     11  C   UNL     1      12.581   3.403   1.126  0.00  0.00    +0.088 C 
BRANCH  11  12
ATOM     12  C   UNL     1      13.901   4.116   0.790  0.00  0.00    -0.003 C 
ATOM     14  C   UNL     1      14.336   3.892  -0.662  0.00  0.00    +0.008 C 
ATOM     15  C   UNL     1      15.004   3.635   1.736  0.00  0.00    +0.008 C 
ENDBRANCH  11  12
ENDBRANCH   3  11
ENDBRANCH  13   7
TORSDOF 5
ENDMDL
MODEL 9
REMARK VINA RESULT:      -5.7      4.163      7.193
REMARK  Name = 45783695
REMARK  8 active torsions:
REMARK  status: ('A' for Active; 'I' for Inactive)
REMARK    1  A    between atoms: O_2  and  C_21
REMARK    2  A    between atoms: O_2  and  C_22
REMARK    3  A    between atoms: N_3  and  C_11
REMARK    4  A    between atoms: C_7  and  C_13
REMARK    5  A    between atoms: C_11  and  C_12
REMARK    6  A    between atoms: C_12  and  C_14
REMARK    7  A    between atoms: C_12  and  C_15
REMARK    8  A    between atoms: C_16  and  C_17
REMARK                            x       y       z     vdW  Elec       q    Type
REMARK                         _______ _______ _______ _____ _____    ______ ____
ROOT
ATOM      1  O   UNL     1      13.240   7.749  16.527  0.00  0.00    -0.336 OA
ATOM      4  N   UNL     1      13.671   9.715  17.511  0.00  0.00    -0.190 NA
ATOM      5  N   UNL     1      13.831   8.555  15.546  0.00  0.00    -0.056 NA
ATOM     13  C   UNL     1      13.183   8.508  17.653  0.00  0.00    +0.245 A 
ATOM     16  C   UNL     1      14.056   9.697  16.202  0.00  0.00    +0.204 A 
ENDROOT
BRANCH  16  17
ATOM      6  N   UNL     1      14.900  13.240  15.454  0.00  0.00    -0.221 NA
ATOM     17  C   UNL     1      14.662  10.838  15.579  0.00  0.00    +0.041 A 
ATOM     18  C   UNL     1      15.566  10.686  14.534  0.00  0.00    +0.018 A 
ATOM     19  C   UNL     1      14.365  12.125  15.998  0.00  0.00    +0.126 A 
ATOM     20  C   UNL     1      16.138  11.810  13.948  0.00  0.00    +0.068 A 
ATOM     21  C   UNL     1      15.775  13.053  14.439  0.00  0.00    +0.214 A 
BRANCH  21   2
ATOM      2  O   UNL     1      16.325  14.177  13.879  0.00  0.00    -0.480 OA
ATOM     22  C   UNL     1      17.332  13.973  12.895  0.00  0.00    +0.279 C 
ENDBRANCH  21   2
ENDBRANCH  16  17
BRANCH  13   7
ATOM      3  N   UNL     1      13.457   7.940  20.060  0.00  0.00    -0.291 NA
ATOM      7  C   UNL     1      12.577   7.856  18.877  0.00  0.00    +0.146 C 
ATOM      8  C   UNL     1      11.263   8.526  19.320  0.00  0.00    +0.030 C 
ATOM      9  C   UNL     1      12.578   7.958  21.230  0.00  0.00    +0.085 C 
ATOM     10  C   UNL     1      11.478   8.899  20.779  0.00  0.00    +0.017 C 
BRANCH   3  11
ATOM     11  C   UNL     1      14.435   6.861  20.126  0.00  0.00    +0.088 C 
BRANCH  11  12
ATOM     12  C   UNL     1      15.868   7.350  19.855  0.00  0.00    -0.003 C 
ATOM     14  C   UNL     1      16.919   6.545  20.625  0.00  0.00    +0.008 C 
ATOM     15  C   UNL     1      15.987   8.832  20.220  0.00  0.00    +0.008 C 
ENDBRANCH  11  12
ENDBRANCH   3  11
ENDBRANCH  13   7
TORSDOF 5
ENDMDL
MODEL 10
REMARK VINA RESULT:      -5.7     27.246     28.888
REMARK  Name = 45783695
REMARK  8 active torsions:
REMARK  status: ('A' for Active; 'I' for Inactive)
REMARK    1  A    between atoms: O_2  and  C_21
REMARK    2  A    between atoms: O_2  and  C_22
REMARK    3  A    between atoms: N_3  and  C_11
REMARK    4  A    between atoms: C_7  and  C_13
REMARK    5  A    between atoms: C_11  and  C_12
REMARK    6  A    between atoms: C_12  and  C_14
REMARK    7  A    between atoms: C_12  and  C_15
REMARK    8  A    between atoms: C_16  and  C_17
REMARK                            x       y       z     vdW  Elec       q    Type
REMARK                         _______ _______ _______ _____ _____    ______ ____
ROOT
ATOM      1  O   UNL     1      -2.044 -10.608  13.192  0.00  0.00    -0.336 OA
ATOM      4  N   UNL     1      -4.270 -10.645  13.435  0.00  0.00    -0.190 NA
ATOM      5  N   UNL     1      -2.286 -10.591  14.572  0.00  0.00    -0.056 NA
ATOM     13  C   UNL     1      -3.264 -10.639  12.596  0.00  0.00    +0.245 A 
ATOM     16  C   UNL     1      -3.621 -10.614  14.634  0.00  0.00    +0.204 A 
ENDROOT
BRANCH  16  17
ATOM      6  N   UNL     1      -6.290  -9.940  17.134  0.00  0.00    -0.221 NA
ATOM     17  C   UNL     1      -4.335 -10.607  15.878  0.00  0.00    +0.041 A 
ATOM     18  C   UNL     1      -3.811 -11.225  17.007  0.00  0.00    +0.018 A 
ATOM     19  C   UNL     1      -5.567  -9.983  15.993  0.00  0.00    +0.126 A 
ATOM     20  C   UNL     1      -4.525 -11.202  18.200  0.00  0.00    +0.068 A 
ATOM     21  C   UNL     1      -5.748 -10.551  18.211  0.00  0.00    +0.214 A 
BRANCH  21   2
ATOM      2  O   UNL     1      -6.472 -10.514  19.375  0.00  0.00    -0.480 OA
ATOM     22  C   UNL     1      -7.815 -10.977  19.308  0.00  0.00    +0.279 C 
ENDBRANCH  21   2
ENDBRANCH  16  17
BRANCH  13   7
ATOM      3  N   UNL     1      -4.636 -10.819  10.527  0.00  0.00    -0.291 NA
ATOM      7  C   UNL     1      -3.276 -10.665  11.083  0.00  0.00    +0.146 C 
ATOM      8  C   UNL     1      -2.747  -9.358  10.462  0.00  0.00    +0.030 C 
ATOM      9  C   UNL     1      -4.630 -10.150   9.226  0.00  0.00    +0.085 C 
ATOM     10  C   UNL     1      -3.852  -8.885   9.528  0.00  0.00    +0.017 C 
BRANCH   3  11
ATOM     11  C   UNL     1      -5.061 -12.210  10.427  0.00  0.00    +0.088 C 
BRANCH  11  12
ATOM     12  C   UNL     1      -3.953 -13.124   9.878  0.00  0.00    -0.003 C 
ATOM     14  C   UNL     1      -4.302 -13.712   8.507  0.00  0.00    +0.008 C 
ATOM     15  C   UNL     1      -3.680 -14.259  10.869  0.00  0.00    +0.008 C 
ENDBRANCH  11  12
ENDBRANCH   3  11
ENDBRANCH  13   7
TORSDOF 5
ENDMDL
