MODEL 1
REMARK VINA RESULT:      -7.7      0.000      0.000
REMARK  Name = 7051417
REMARK  5 active torsions:
REMARK  status: ('A' for Active; 'I' for Inactive)
REMARK    1  A    between atoms: S_2  and  N_10
REMARK    2  A    between atoms: S_2  and  C_29
REMARK    3  A    between atoms: N_7  and  C_16
REMARK    4  A    between atoms: N_10  and  C_25
REMARK    5  A    between atoms: C_27  and  C_28
REMARK                            x       y       z     vdW  Elec       q    Type
REMARK                         _______ _______ _______ _____ _____    ______ ____
ROOT
ATOM      3  O   UNL     1      -8.707  -9.465  14.207  0.00  0.00    -0.266 OA
ATOM      7  N   UNL     1     -12.632  -6.365  13.776  0.00  0.00    -0.298 NA
ATOM      8  N   UNL     1     -10.847  -8.774  14.866  0.00  0.00    -0.310 N 
ATOM     11  C   UNL     1     -12.878  -8.815  13.305  0.00  0.00    +0.024 C 
ATOM     12  C   UNL     1     -13.128  -7.998  15.601  0.00  0.00    +0.050 C 
ATOM     13  C   UNL     1     -13.675  -9.002  14.589  0.00  0.00    +0.017 C 
ATOM     14  C   UNL     1     -13.041  -7.370  12.787  0.00  0.00    +0.090 C 
ATOM     15  C   UNL     1     -13.320  -6.563  15.060  0.00  0.00    +0.094 C 
ATOM     17  C   UNL     1     -11.413  -9.184  13.573  0.00  0.00    +0.130 C 
ATOM     18  C   UNL     1     -11.661  -8.265  15.887  0.00  0.00    +0.026 A 
ATOM     23  C   UNL     1     -11.147  -7.999  17.100  0.00  0.00    +0.024 A 
ATOM     24  C   UNL     1      -9.469  -9.008  15.058  0.00  0.00    +0.274 A 
ATOM     25  C   UNL     1      -8.955  -8.673  16.410  0.00  0.00    +0.112 A 
ATOM     26  C   UNL     1      -9.750  -8.207  17.375  0.00  0.00    +0.031 A 
ENDROOT
BRANCH   7  16
ATOM      4  O   UNL     1     -16.232  -2.496  10.658  0.00  0.00    -0.276 OA
ATOM      9  N   UNL     1     -14.156  -3.193  11.436  0.00  0.00    -0.302 N 
ATOM     16  C   UNL     1     -12.848  -5.012  13.269  0.00  0.00    +0.060 C 
ATOM     19  C   UNL     1     -12.443  -4.932  11.792  0.00  0.00    +0.038 C 
ATOM     20  C   UNL     1     -14.319  -4.613  13.445  0.00  0.00    +0.038 C 
ATOM     21  C   UNL     1     -12.750  -3.550  11.214  0.00  0.00    +0.109 C 
ATOM     22  C   UNL     1     -14.588  -3.239  12.836  0.00  0.00    +0.109 C 
ATOM     27  C   UNL     1     -15.053  -2.792  10.446  0.00  0.00    +0.212 C 
ATOM     28  C   UNL     1     -14.520  -2.728   9.038  0.00  0.00    +0.109 C 
ENDBRANCH   7  16
BRANCH  25  10
ATOM     10  N   UNL     1      -7.595  -8.859  16.717  0.00  0.00    -0.211 N 
ATOM     35  H   UNL     1      -6.971  -8.564  15.953  0.00  0.00    +0.174 HD
BRANCH  10   2
ATOM      2  S   UNL     1      -7.165 -10.320  17.454  0.00  0.00    +0.072 S 
ATOM      5  O   UNL     1      -7.008 -10.119  18.882  0.00  0.00    -0.150 OA
ATOM      6  O   UNL     1      -8.012 -11.387  16.955  0.00  0.00    -0.150 OA
BRANCH   2  29
ATOM      1 CL   UNL     1      -1.455 -11.197  15.053  0.00  0.00    -0.084 Cl
ATOM     29  C   UNL     1      -5.551 -10.568  16.776  0.00  0.00    +0.109 A 
ATOM     30  C   UNL     1      -5.373 -10.476  15.406  0.00  0.00    +0.030 A 
ATOM     31  C   UNL     1      -4.497 -10.850  17.626  0.00  0.00    +0.030 A 
ATOM     32  C   UNL     1      -4.100 -10.671  14.871  0.00  0.00    +0.022 A 
ATOM     33  C   UNL     1      -3.224 -11.045  17.091  0.00  0.00    +0.022 A 
ATOM     34  C   UNL     1      -3.025 -10.956  15.713  0.00  0.00    +0.041 A 
ENDBRANCH   2  29
ENDBRANCH  10   2
ENDBRANCH  25  10
TORSDOF 4
ENDMDL
MODEL 2
REMARK VINA RESULT:      -7.6     29.989     32.385
REMARK  Name = 7051417
REMARK  5 active torsions:
REMARK  status: ('A' for Active; 'I' for Inactive)
REMARK    1  A    between atoms: S_2  and  N_10
REMARK    2  A    between atoms: S_2  and  C_29
REMARK    3  A    between atoms: N_7  and  C_16
REMARK    4  A    between atoms: N_10  and  C_25
REMARK    5  A    between atoms: C_27  and  C_28
REMARK                            x       y       z     vdW  Elec       q    Type
REMARK                         _______ _______ _______ _____ _____    ______ ____
ROOT
ATOM      3  O   UNL     1      18.099   5.820  19.927  0.00  0.00    -0.266 OA
ATOM      7  N   UNL     1      14.404   9.106  19.065  0.00  0.00    -0.298 NA
ATOM      8  N   UNL     1      16.463   7.306  20.706  0.00  0.00    -0.310 N 
ATOM     11  C   UNL     1      13.956   6.972  20.301  0.00  0.00    +0.024 C 
ATOM     12  C   UNL     1      14.733   8.939  21.536  0.00  0.00    +0.050 C 
ATOM     13  C   UNL     1      13.793   7.739  21.606  0.00  0.00    +0.017 C 
ATOM     14  C   UNL     1      13.597   7.881  19.105  0.00  0.00    +0.090 C 
ATOM     15  C   UNL     1      14.339   9.836  20.340  0.00  0.00    +0.094 C 
ATOM     17  C   UNL     1      15.389   6.429  20.219  0.00  0.00    +0.130 C 
ATOM     18  C   UNL     1      16.176   8.486  21.406  0.00  0.00    +0.026 A 
ATOM     23  C   UNL     1      17.169   9.219  21.940  0.00  0.00    +0.024 A 
ATOM     24  C   UNL     1      17.786   6.853  20.518  0.00  0.00    +0.274 A 
ATOM     25  C   UNL     1      18.838   7.717  21.111  0.00  0.00    +0.112 A 
ATOM     26  C   UNL     1      18.545   8.827  21.789  0.00  0.00    +0.031 A 
ENDROOT
BRANCH   7  16
ATOM      4  O   UNL     1      15.312  10.842  13.250  0.00  0.00    -0.276 OA
ATOM      9  N   UNL     1      14.590  11.242  15.422  0.00  0.00    -0.302 N 
ATOM     16  C   UNL     1      14.001   9.963  17.951  0.00  0.00    +0.060 C 
ATOM     19  C   UNL     1      14.924  11.184  17.865  0.00  0.00    +0.038 C 
ATOM     20  C   UNL     1      14.036   9.170  16.638  0.00  0.00    +0.038 C 
ATOM     21  C   UNL     1      14.582  12.046  16.650  0.00  0.00    +0.109 C 
ATOM     22  C   UNL     1      13.710  10.071  15.449  0.00  0.00    +0.109 C 
ATOM     27  C   UNL     1      15.321  11.534  14.271  0.00  0.00    +0.212 C 
ATOM     28  C   UNL     1      16.168  12.781  14.308  0.00  0.00    +0.109 C 
ENDBRANCH   7  16
BRANCH  25  10
ATOM     10  N   UNL     1      20.194   7.368  20.982  0.00  0.00    -0.211 N 
ATOM     35  H   UNL     1      20.378   6.779  20.157  0.00  0.00    +0.174 HD
BRANCH  10   2
ATOM      2  S   UNL     1      21.002   6.884  22.388  0.00  0.00    +0.072 S 
ATOM      5  O   UNL     1      21.865   7.955  22.850  0.00  0.00    -0.150 OA
ATOM      6  O   UNL     1      20.063   6.258  23.300  0.00  0.00    -0.150 OA
BRANCH   2  29
ATOM      1 CL   UNL     1      24.687   2.367  20.117  0.00  0.00    -0.084 Cl
ATOM     29  C   UNL     1      22.043   5.607  21.746  0.00  0.00    +0.109 A 
ATOM     30  C   UNL     1      23.121   5.952  20.949  0.00  0.00    +0.030 A 
ATOM     31  C   UNL     1      21.761   4.288  22.052  0.00  0.00    +0.030 A 
ATOM     32  C   UNL     1      23.943   4.945  20.443  0.00  0.00    +0.022 A 
ATOM     33  C   UNL     1      22.582   3.280  21.545  0.00  0.00    +0.022 A 
ATOM     34  C   UNL     1      23.674   3.609  20.741  0.00  0.00    +0.041 A 
ENDBRANCH   2  29
ENDBRANCH  10   2
ENDBRANCH  25  10
TORSDOF 4
ENDMDL
MODEL 3
REMARK VINA RESULT:      -7.5      6.857     10.937
REMARK  Name = 7051417
REMARK  5 active torsions:
REMARK  status: ('A' for Active; 'I' for Inactive)
REMARK    1  A    between atoms: S_2  and  N_10
REMARK    2  A    between atoms: S_2  and  C_29
REMARK    3  A    between atoms: N_7  and  C_16
REMARK    4  A    between atoms: N_10  and  C_25
REMARK    5  A    between atoms: C_27  and  C_28
REMARK                            x       y       z     vdW  Elec       q    Type
REMARK                         _______ _______ _______ _____ _____    ______ ____
ROOT
ATOM      3  O   UNL     1      -5.440 -12.519  10.416  0.00  0.00    -0.266 OA
ATOM      7  N   UNL     1      -3.800 -11.149  14.958  0.00  0.00    -0.298 NA
ATOM      8  N   UNL     1      -3.698 -11.917  11.864  0.00  0.00    -0.310 N 
ATOM     11  C   UNL     1      -3.038 -13.299  13.917  0.00  0.00    +0.024 C 
ATOM     12  C   UNL     1      -1.837 -11.224  13.414  0.00  0.00    +0.050 C 
ATOM     13  C   UNL     1      -1.651 -12.716  13.681  0.00  0.00    +0.017 C 
ATOM     14  C   UNL     1      -3.705 -12.604  15.125  0.00  0.00    +0.090 C 
ATOM     15  C   UNL     1      -2.490 -10.557  14.645  0.00  0.00    +0.094 C 
ATOM     17  C   UNL     1      -3.862 -13.160  12.630  0.00  0.00    +0.130 C 
ATOM     18  C   UNL     1      -2.686 -11.000  12.176  0.00  0.00    +0.026 A 
ATOM     23  C   UNL     1      -2.479  -9.922  11.398  0.00  0.00    +0.024 A 
ATOM     24  C   UNL     1      -4.544 -11.743  10.749  0.00  0.00    +0.274 A 
ATOM     25  C   UNL     1      -4.283 -10.523   9.943  0.00  0.00    +0.112 A 
ATOM     26  C   UNL     1      -3.302  -9.672  10.245  0.00  0.00    +0.031 A 
ENDROOT
BRANCH   7  16
ATOM      4  O   UNL     1      -7.101 -11.806  20.089  0.00  0.00    -0.276 OA
ATOM      9  N   UNL     1      -6.312 -10.546  18.303  0.00  0.00    -0.302 N 
ATOM     16  C   UNL     1      -4.388 -10.523  16.141  0.00  0.00    +0.060 C 
ATOM     19  C   UNL     1      -5.873 -10.228  15.897  0.00  0.00    +0.038 C 
ATOM     20  C   UNL     1      -4.215 -11.437  17.361  0.00  0.00    +0.038 C 
ATOM     21  C   UNL     1      -6.532  -9.660  17.154  0.00  0.00    +0.109 C 
ATOM     22  C   UNL     1      -4.906 -10.845  18.587  0.00  0.00    +0.109 C 
ATOM     27  C   UNL     1      -7.311 -11.063  19.127  0.00  0.00    +0.212 C 
ATOM     28  C   UNL     1      -8.729 -10.672  18.795  0.00  0.00    +0.109 C 
ENDBRANCH   7  16
BRANCH  25  10
ATOM     10  N   UNL     1      -5.068 -10.242   8.810  0.00  0.00    -0.211 N 
ATOM     35  H   UNL     1      -4.504  -9.970   7.992  0.00  0.00    +0.174 HD
BRANCH  10   2
ATOM      2  S   UNL     1      -6.459  -9.308   9.050  0.00  0.00    +0.072 S 
ATOM      5  O   UNL     1      -7.507 -10.131   9.624  0.00  0.00    -0.150 OA
ATOM      6  O   UNL     1      -6.099  -8.046   9.669  0.00  0.00    -0.150 OA
BRANCH   2  29
ATOM      1 CL   UNL     1      -8.074  -8.086   3.131  0.00  0.00    -0.084 Cl
ATOM     29  C   UNL     1      -6.915  -8.963   7.377  0.00  0.00    +0.109 A 
ATOM     30  C   UNL     1      -7.832  -7.959   7.121  0.00  0.00    +0.030 A 
ATOM     31  C   UNL     1      -6.347  -9.703   6.356  0.00  0.00    +0.030 A 
ATOM     32  C   UNL     1      -8.192  -7.686   5.801  0.00  0.00    +0.022 A 
ATOM     33  C   UNL     1      -6.708  -9.431   5.036  0.00  0.00    +0.022 A 
ATOM     34  C   UNL     1      -7.630  -8.422   4.758  0.00  0.00    +0.041 A 
ENDBRANCH   2  29
ENDBRANCH  10   2
ENDBRANCH  25  10
TORSDOF 4
ENDMDL
MODEL 4
REMARK VINA RESULT:      -7.2      6.344     10.075
REMARK  Name = 7051417
REMARK  5 active torsions:
REMARK  status: ('A' for Active; 'I' for Inactive)
REMARK    1  A    between atoms: S_2  and  N_10
REMARK    2  A    between atoms: S_2  and  C_29
REMARK    3  A    between atoms: N_7  and  C_16
REMARK    4  A    between atoms: N_10  and  C_25
REMARK    5  A    between atoms: C_27  and  C_28
REMARK                            x       y       z     vdW  Elec       q    Type
REMARK                         _______ _______ _______ _____ _____    ______ ____
ROOT
ATOM      3  O   UNL     1      -5.197 -12.755  10.547  0.00  0.00    -0.266 OA
ATOM      7  N   UNL     1      -3.921 -11.209  15.149  0.00  0.00    -0.298 NA
ATOM      8  N   UNL     1      -3.574 -12.104  12.107  0.00  0.00    -0.310 N 
ATOM     11  C   UNL     1      -3.096 -13.404  14.261  0.00  0.00    +0.024 C 
ATOM     12  C   UNL     1      -1.839 -11.359  13.775  0.00  0.00    +0.050 C 
ATOM     13  C   UNL     1      -1.689 -12.839  14.116  0.00  0.00    +0.017 C 
ATOM     14  C   UNL     1      -3.852 -12.657  15.381  0.00  0.00    +0.090 C 
ATOM     15  C   UNL     1      -2.585 -10.637  14.921  0.00  0.00    +0.094 C 
ATOM     17  C   UNL     1      -3.810 -13.314  12.906  0.00  0.00    +0.130 C 
ATOM     18  C   UNL     1      -2.582 -11.180  12.463  0.00  0.00    +0.026 A 
ATOM     23  C   UNL     1      -2.304 -10.136  11.662  0.00  0.00    +0.024 A 
ATOM     24  C   UNL     1      -4.325 -11.971  10.920  0.00  0.00    +0.274 A 
ATOM     25  C   UNL     1      -3.988 -10.787  10.090  0.00  0.00    +0.112 A 
ATOM     26  C   UNL     1      -3.028  -9.929  10.436  0.00  0.00    +0.031 A 
ENDROOT
BRANCH   7  16
ATOM      4  O   UNL     1      -7.603 -11.645  20.038  0.00  0.00    -0.276 OA
ATOM      9  N   UNL     1      -6.681 -10.464  18.262  0.00  0.00    -0.302 N 
ATOM     16  C   UNL     1      -4.598 -10.532  16.253  0.00  0.00    +0.060 C 
ATOM     19  C   UNL     1      -6.060 -10.256  15.884  0.00  0.00    +0.038 C 
ATOM     20  C   UNL     1      -4.518 -11.389  17.524  0.00  0.00    +0.038 C 
ATOM     21  C   UNL     1      -6.814  -9.633  17.059  0.00  0.00    +0.109 C 
ATOM     22  C   UNL     1      -5.301 -10.744  18.666  0.00  0.00    +0.109 C 
ATOM     27  C   UNL     1      -7.740 -10.947  19.030  0.00  0.00    +0.212 C 
ATOM     28  C   UNL     1      -9.129 -10.578  18.573  0.00  0.00    +0.109 C 
ENDBRANCH   7  16
BRANCH  25  10
ATOM     10  N   UNL     1      -4.676 -10.548   8.886  0.00  0.00    -0.211 N 
ATOM     35  H   UNL     1      -4.064 -10.605   8.060  0.00  0.00    +0.174 HD
BRANCH  10   2
ATOM      2  S   UNL     1      -5.769  -9.256   8.867  0.00  0.00    +0.072 S 
ATOM      5  O   UNL     1      -5.081  -8.029   9.223  0.00  0.00    -0.150 OA
ATOM      6  O   UNL     1      -6.577  -9.318   7.664  0.00  0.00    -0.150 OA
BRANCH   2  29
ATOM      1 CL   UNL     1      -9.466 -10.787  13.676  0.00  0.00    -0.084 Cl
ATOM     29  C   UNL     1      -6.814  -9.689  10.226  0.00  0.00    +0.109 A 
ATOM     30  C   UNL     1      -7.806 -10.635  10.040  0.00  0.00    +0.030 A 
ATOM     31  C   UNL     1      -6.620  -9.073  11.449  0.00  0.00    +0.030 A 
ATOM     32  C   UNL     1      -8.631 -10.977  11.112  0.00  0.00    +0.022 A 
ATOM     33  C   UNL     1      -7.444  -9.414  12.522  0.00  0.00    +0.022 A 
ATOM     34  C   UNL     1      -8.450 -10.367  12.353  0.00  0.00    +0.041 A 
ENDBRANCH   2  29
ENDBRANCH  10   2
ENDBRANCH  25  10
TORSDOF 4
ENDMDL
MODEL 5
REMARK VINA RESULT:      -7.2     26.857     29.051
REMARK  Name = 7051417
REMARK  5 active torsions:
REMARK  status: ('A' for Active; 'I' for Inactive)
REMARK    1  A    between atoms: S_2  and  N_10
REMARK    2  A    between atoms: S_2  and  C_29
REMARK    3  A    between atoms: N_7  and  C_16
REMARK    4  A    between atoms: N_10  and  C_25
REMARK    5  A    between atoms: C_27  and  C_28
REMARK                            x       y       z     vdW  Elec       q    Type
REMARK                         _______ _______ _______ _____ _____    ______ ____
ROOT
ATOM      3  O   UNL     1      11.124   7.583   1.713  0.00  0.00    -0.266 OA
ATOM      7  N   UNL     1      11.845   4.057  -1.786  0.00  0.00    -0.298 NA
ATOM      8  N   UNL     1      12.222   5.661   0.944  0.00  0.00    -0.310 N 
ATOM     11  C   UNL     1      13.693   5.628  -1.153  0.00  0.00    +0.024 C 
ATOM     12  C   UNL     1      13.368   3.569   0.133  0.00  0.00    +0.050 C 
ATOM     13  C   UNL     1      14.431   4.504  -0.439  0.00  0.00    +0.017 C 
ATOM     14  C   UNL     1      12.808   5.049  -2.278  0.00  0.00    +0.090 C 
ATOM     15  C   UNL     1      12.511   2.994  -1.018  0.00  0.00    +0.094 C 
ATOM     17  C   UNL     1      12.885   6.426  -0.121  0.00  0.00    +0.130 C 
ATOM     18  C   UNL     1      12.491   4.299   1.135  0.00  0.00    +0.026 A 
ATOM     23  C   UNL     1      11.962   3.640   2.181  0.00  0.00    +0.024 A 
ATOM     24  C   UNL     1      11.385   6.385   1.819  0.00  0.00    +0.274 A 
ATOM     25  C   UNL     1      10.813   5.598   2.940  0.00  0.00    +0.112 A 
ATOM     26  C   UNL     1      11.094   4.306   3.115  0.00  0.00    +0.031 A 
ENDROOT
BRANCH   7  16
ATOM      4  O   UNL     1      10.146   4.415  -7.671  0.00  0.00    -0.276 OA
ATOM      9  N   UNL     1       9.782   3.785  -5.465  0.00  0.00    -0.302 N 
ATOM     16  C   UNL     1      11.063   3.495  -2.885  0.00  0.00    +0.060 C 
ATOM     19  C   UNL     1       9.749   4.269  -3.047  0.00  0.00    +0.038 C 
ATOM     20  C   UNL     1      11.875   3.539  -4.186  0.00  0.00    +0.038 C 
ATOM     21  C   UNL     1       8.957   3.760  -4.251  0.00  0.00    +0.109 C 
ATOM     22  C   UNL     1      11.042   3.045  -5.366  0.00  0.00    +0.109 C 
ATOM     27  C   UNL     1       9.435   4.408  -6.664  0.00  0.00    +0.212 C 
ATOM     28  C   UNL     1       8.102   5.111  -6.698  0.00  0.00    +0.109 C 
ENDBRANCH   7  16
BRANCH  25  10
ATOM     10  N   UNL     1       9.958   6.213   3.872  0.00  0.00    -0.211 N 
ATOM     35  H   UNL     1       9.093   6.571   3.444  0.00  0.00    +0.174 HD
BRANCH  10   2
ATOM      2  S   UNL     1      10.670   7.255   5.000  0.00  0.00    +0.072 S 
ATOM      5  O   UNL     1      12.113   7.110   4.957  0.00  0.00    -0.150 OA
ATOM      6  O   UNL     1      10.065   8.570   4.899  0.00  0.00    -0.150 OA
BRANCH   2  29
ATOM      1 CL   UNL     1       8.695   4.701  10.358  0.00  0.00    -0.084 Cl
ATOM     29  C   UNL     1      10.112   6.533   6.514  0.00  0.00    +0.109 A 
ATOM     30  C   UNL     1       9.501   7.337   7.460  0.00  0.00    +0.030 A 
ATOM     31  C   UNL     1      10.297   5.179   6.724  0.00  0.00    +0.030 A 
ATOM     32  C   UNL     1       9.060   6.768   8.655  0.00  0.00    +0.022 A 
ATOM     33  C   UNL     1       9.857   4.609   7.920  0.00  0.00    +0.022 A 
ATOM     34  C   UNL     1       9.238   5.404   8.885  0.00  0.00    +0.041 A 
ENDBRANCH   2  29
ENDBRANCH  10   2
ENDBRANCH  25  10
TORSDOF 4
ENDMDL
MODEL 6
REMARK VINA RESULT:      -7.1     16.179     17.561
REMARK  Name = 7051417
REMARK  5 active torsions:
REMARK  status: ('A' for Active; 'I' for Inactive)
REMARK    1  A    between atoms: S_2  and  N_10
REMARK    2  A    between atoms: S_2  and  C_29
REMARK    3  A    between atoms: N_7  and  C_16
REMARK    4  A    between atoms: N_10  and  C_25
REMARK    5  A    between atoms: C_27  and  C_28
REMARK                            x       y       z     vdW  Elec       q    Type
REMARK                         _______ _______ _______ _____ _____    ______ ____
ROOT
ATOM      3  O   UNL     1     -14.897   9.046  21.669  0.00  0.00    -0.266 OA
ATOM      7  N   UNL     1     -12.396   8.779  17.325  0.00  0.00    -0.298 NA
ATOM      8  N   UNL     1     -12.899   8.780  20.475  0.00  0.00    -0.310 N 
ATOM     11  C   UNL     1     -11.906  10.603  18.974  0.00  0.00    +0.024 C 
ATOM     12  C   UNL     1     -10.760   8.448  19.184  0.00  0.00    +0.050 C 
ATOM     13  C   UNL     1     -10.572   9.957  19.322  0.00  0.00    +0.017 C 
ATOM     14  C   UNL     1     -12.314  10.230  17.532  0.00  0.00    +0.090 C 
ATOM     15  C   UNL     1     -11.152   8.107  17.729  0.00  0.00    +0.094 C 
ATOM     17  C   UNL     1     -12.952  10.173  20.011  0.00  0.00    +0.130 C 
ATOM     18  C   UNL     1     -11.819   7.947  20.150  0.00  0.00    +0.026 A 
ATOM     23  C   UNL     1     -11.731   6.711  20.672  0.00  0.00    +0.024 A 
ATOM     24  C   UNL     1     -13.933   8.357  21.336  0.00  0.00    +0.274 A 
ATOM     25  C   UNL     1     -13.792   6.976  21.862  0.00  0.00    +0.112 A 
ATOM     26  C   UNL     1     -12.747   6.205  21.556  0.00  0.00    +0.031 A 
ENDROOT
BRANCH   7  16
ATOM      4  O   UNL     1     -11.619  10.046  11.372  0.00  0.00    -0.276 OA
ATOM      9  N   UNL     1     -12.872   9.229  13.150  0.00  0.00    -0.302 N 
ATOM     16  C   UNL     1     -12.734   8.465  15.938  0.00  0.00    +0.060 C 
ATOM     19  C   UNL     1     -13.804   9.436  15.424  0.00  0.00    +0.038 C 
ATOM     20  C   UNL     1     -11.477   8.538  15.061  0.00  0.00    +0.038 C 
ATOM     21  C   UNL     1     -14.105   9.187  13.946  0.00  0.00    +0.109 C 
ATOM     22  C   UNL     1     -11.823   8.307  13.592  0.00  0.00    +0.109 C 
ATOM     27  C   UNL     1     -12.665  10.028  12.025  0.00  0.00    +0.212 C 
ATOM     28  C   UNL     1     -13.809  10.917  11.608  0.00  0.00    +0.109 C 
ENDBRANCH   7  16
BRANCH  25  10
ATOM     10  N   UNL     1     -14.766   6.444  22.725  0.00  0.00    -0.211 N 
ATOM     35  H   UNL     1     -14.358   5.945  23.527  0.00  0.00    +0.174 HD
BRANCH  10   2
ATOM      2  S   UNL     1     -16.088   5.667  22.009  0.00  0.00    +0.072 S 
ATOM      5  O   UNL     1     -17.260   6.518  22.093  0.00  0.00    -0.150 OA
ATOM      6  O   UNL     1     -15.689   5.097  20.736  0.00  0.00    -0.150 OA
BRANCH   2  29
ATOM      1 CL   UNL     1     -16.941   0.916  25.989  0.00  0.00    -0.084 Cl
ATOM     29  C   UNL     1     -16.329   4.324  23.134  0.00  0.00    +0.109 A 
ATOM     30  C   UNL     1     -17.338   3.410  22.887  0.00  0.00    +0.030 A 
ATOM     31  C   UNL     1     -15.505   4.214  24.239  0.00  0.00    +0.030 A 
ATOM     32  C   UNL     1     -17.529   2.350  23.775  0.00  0.00    +0.022 A 
ATOM     33  C   UNL     1     -15.695   3.154  25.127  0.00  0.00    +0.022 A 
ATOM     34  C   UNL     1     -16.707   2.222  24.894  0.00  0.00    +0.041 A 
ENDBRANCH   2  29
ENDBRANCH  10   2
ENDBRANCH  25  10
TORSDOF 4
ENDMDL
MODEL 7
REMARK VINA RESULT:      -7.0      6.539      9.676
REMARK  Name = 7051417
REMARK  5 active torsions:
REMARK  status: ('A' for Active; 'I' for Inactive)
REMARK    1  A    between atoms: S_2  and  N_10
REMARK    2  A    between atoms: S_2  and  C_29
REMARK    3  A    between atoms: N_7  and  C_16
REMARK    4  A    between atoms: N_10  and  C_25
REMARK    5  A    between atoms: C_27  and  C_28
REMARK                            x       y       z     vdW  Elec       q    Type
REMARK                         _______ _______ _______ _____ _____    ______ ____
ROOT
ATOM      3  O   UNL     1      -7.118 -10.701  14.009  0.00  0.00    -0.266 OA
ATOM      7  N   UNL     1      -5.235 -10.864   9.359  0.00  0.00    -0.298 NA
ATOM      8  N   UNL     1      -5.556  -9.995  12.411  0.00  0.00    -0.310 N 
ATOM     11  C   UNL     1      -6.205  -8.740  10.274  0.00  0.00    +0.024 C 
ATOM     12  C   UNL     1      -3.852  -9.274  10.702  0.00  0.00    +0.050 C 
ATOM     13  C   UNL     1      -4.813  -8.131  10.386  0.00  0.00    +0.017 C 
ATOM     14  C   UNL     1      -6.227  -9.802   9.153  0.00  0.00    +0.090 C 
ATOM     15  C   UNL     1      -3.887 -10.309   9.555  0.00  0.00    +0.094 C 
ATOM     17  C   UNL     1      -6.606  -9.316  11.639  0.00  0.00    +0.130 C 
ATOM     18  C   UNL     1      -4.212  -9.931  12.022  0.00  0.00    +0.026 A 
ATOM     23  C   UNL     1      -3.252 -10.464  12.799  0.00  0.00    +0.024 A 
ATOM     24  C   UNL     1      -5.957 -10.626  13.608  0.00  0.00    +0.274 A 
ATOM     25  C   UNL     1      -4.855 -11.214  14.410  0.00  0.00    +0.112 A 
ATOM     26  C   UNL     1      -3.579 -11.128  14.032  0.00  0.00    +0.031 A 
ENDROOT
BRANCH   7  16
ATOM      4  O   UNL     1      -2.036 -14.204   5.327  0.00  0.00    -0.276 OA
ATOM      9  N   UNL     1      -3.951 -13.067   5.989  0.00  0.00    -0.302 N 
ATOM     16  C   UNL     1      -5.252 -11.819   8.254  0.00  0.00    +0.060 C 
ATOM     19  C   UNL     1      -5.086 -11.084   6.919  0.00  0.00    +0.038 C 
ATOM     20  C   UNL     1      -4.136 -12.857   8.438  0.00  0.00    +0.038 C 
ATOM     21  C   UNL     1      -5.005 -12.072   5.755  0.00  0.00    +0.109 C 
ATOM     22  C   UNL     1      -4.075 -13.809   7.246  0.00  0.00    +0.109 C 
ATOM     27  C   UNL     1      -2.911 -13.363   5.108  0.00  0.00    +0.212 C 
ATOM     28  C   UNL     1      -2.879 -12.586   3.816  0.00  0.00    +0.109 C 
ENDBRANCH   7  16
BRANCH  25  10
ATOM     10  N   UNL     1      -5.135 -11.874  15.620  0.00  0.00    -0.211 N 
ATOM     35  H   UNL     1      -6.044 -12.359  15.609  0.00  0.00    +0.174 HD
BRANCH  10   2
ATOM      2  S   UNL     1      -4.804 -11.034  17.051  0.00  0.00    +0.072 S 
ATOM      5  O   UNL     1      -3.753 -11.714  17.785  0.00  0.00    -0.150 OA
ATOM      6  O   UNL     1      -4.697  -9.615  16.770  0.00  0.00    -0.150 OA
BRANCH   2  29
ATOM      1 CL   UNL     1     -10.146 -11.917  20.185  0.00  0.00    -0.084 Cl
ATOM     29  C   UNL     1      -6.314 -11.283  17.937  0.00  0.00    +0.109 A 
ATOM     30  C   UNL     1      -6.351 -12.217  18.958  0.00  0.00    +0.030 A 
ATOM     31  C   UNL     1      -7.429 -10.541  17.592  0.00  0.00    +0.030 A 
ATOM     32  C   UNL     1      -7.542 -12.413  19.657  0.00  0.00    +0.022 A 
ATOM     33  C   UNL     1      -8.620 -10.738  18.290  0.00  0.00    +0.022 A 
ATOM     34  C   UNL     1      -8.677 -11.674  19.323  0.00  0.00    +0.041 A 
ENDBRANCH   2  29
ENDBRANCH  10   2
ENDBRANCH  25  10
TORSDOF 4
ENDMDL
MODEL 8
REMARK VINA RESULT:      -6.9     26.706     28.623
REMARK  Name = 7051417
REMARK  5 active torsions:
REMARK  status: ('A' for Active; 'I' for Inactive)
REMARK    1  A    between atoms: S_2  and  N_10
REMARK    2  A    between atoms: S_2  and  C_29
REMARK    3  A    between atoms: N_7  and  C_16
REMARK    4  A    between atoms: N_10  and  C_25
REMARK    5  A    between atoms: C_27  and  C_28
REMARK                            x       y       z     vdW  Elec       q    Type
REMARK                         _______ _______ _______ _____ _____    ______ ____
ROOT
ATOM      3  O   UNL     1      10.335   4.329   2.623  0.00  0.00    -0.266 OA
ATOM      7  N   UNL     1       9.287   8.002   5.880  0.00  0.00    -0.298 NA
ATOM      8  N   UNL     1      10.908   5.639   4.479  0.00  0.00    -0.310 N 
ATOM     11  C   UNL     1       9.571   5.638   6.665  0.00  0.00    +0.024 C 
ATOM     12  C   UNL     1      11.539   7.081   6.447  0.00  0.00    +0.050 C 
ATOM     13  C   UNL     1      10.905   5.992   7.309  0.00  0.00    +0.017 C 
ATOM     14  C   UNL     1       8.666   6.887   6.605  0.00  0.00    +0.090 C 
ATOM     15  C   UNL     1      10.617   8.321   6.421  0.00  0.00    +0.094 C 
ATOM     17  C   UNL     1       9.833   5.034   5.279  0.00  0.00    +0.130 C 
ATOM     18  C   UNL     1      11.789   6.575   5.037  0.00  0.00    +0.026 A 
ATOM     23  C   UNL     1      12.833   7.036   4.326  0.00  0.00    +0.024 A 
ATOM     24  C   UNL     1      11.065   5.160   3.162  0.00  0.00    +0.274 A 
ATOM     25  C   UNL     1      12.222   5.723   2.420  0.00  0.00    +0.112 A 
ATOM     26  C   UNL     1      13.060   6.599   2.974  0.00  0.00    +0.031 A 
ENDROOT
BRANCH   7  16
ATOM      4  O   UNL     1       6.739  12.604   2.721  0.00  0.00    -0.276 OA
ATOM      9  N   UNL     1       7.543  11.662   4.687  0.00  0.00    -0.302 N 
ATOM     16  C   UNL     1       8.423   9.180   5.889  0.00  0.00    +0.060 C 
ATOM     19  C   UNL     1       9.271  10.455   5.968  0.00  0.00    +0.038 C 
ATOM     20  C   UNL     1       7.543   9.197   4.632  0.00  0.00    +0.038 C 
ATOM     21  C   UNL     1       8.393  11.704   5.883  0.00  0.00    +0.109 C 
ATOM     22  C   UNL     1       6.700  10.469   4.574  0.00  0.00    +0.109 C 
ATOM     27  C   UNL     1       7.463  12.662   3.718  0.00  0.00    +0.212 C 
ATOM     28  C   UNL     1       8.329  13.878   3.930  0.00  0.00    +0.109 C 
ENDBRANCH   7  16
BRANCH  25  10
ATOM     10  N   UNL     1      12.475   5.324   1.096  0.00  0.00    -0.211 N 
ATOM     35  H   UNL     1      11.616   5.241   0.533  0.00  0.00    +0.174 HD
BRANCH  10   2
ATOM      2  S   UNL     1      13.588   4.069   0.869  0.00  0.00    +0.072 S 
ATOM      5  O   UNL     1      14.938   4.581   1.019  0.00  0.00    -0.150 OA
ATOM      6  O   UNL     1      13.164   2.899   1.613  0.00  0.00    -0.150 OA
BRANCH   2  29
ATOM      1 CL   UNL     1      12.725   2.831  -5.203  0.00  0.00    -0.084 Cl
ATOM     29  C   UNL     1      13.344   3.719  -0.847  0.00  0.00    +0.109 A 
ATOM     30  C   UNL     1      14.085   4.412  -1.789  0.00  0.00    +0.030 A 
ATOM     31  C   UNL     1      12.418   2.761  -1.215  0.00  0.00    +0.030 A 
ATOM     32  C   UNL     1      13.893   4.135  -3.143  0.00  0.00    +0.022 A 
ATOM     33  C   UNL     1      12.225   2.484  -2.569  0.00  0.00    +0.022 A 
ATOM     34  C   UNL     1      12.963   3.172  -3.533  0.00  0.00    +0.041 A 
ENDBRANCH   2  29
ENDBRANCH  10   2
ENDBRANCH  25  10
TORSDOF 4
ENDMDL
MODEL 9
REMARK VINA RESULT:      -6.9     29.633     31.787
REMARK  Name = 7051417
REMARK  5 active torsions:
REMARK  status: ('A' for Active; 'I' for Inactive)
REMARK    1  A    between atoms: S_2  and  N_10
REMARK    2  A    between atoms: S_2  and  C_29
REMARK    3  A    between atoms: N_7  and  C_16
REMARK    4  A    between atoms: N_10  and  C_25
REMARK    5  A    between atoms: C_27  and  C_28
REMARK                            x       y       z     vdW  Elec       q    Type
REMARK                         _______ _______ _______ _____ _____    ______ ____
ROOT
ATOM      3  O   UNL     1      16.822   5.538  18.657  0.00  0.00    -0.266 OA
ATOM      7  N   UNL     1      14.738   9.978  17.588  0.00  0.00    -0.298 NA
ATOM      8  N   UNL     1      15.508   7.379  19.270  0.00  0.00    -0.310 N 
ATOM     11  C   UNL     1      13.308   7.984  18.104  0.00  0.00    +0.024 C 
ATOM     12  C   UNL     1      14.133   9.381  19.938  0.00  0.00    +0.050 C 
ATOM     13  C   UNL     1      12.928   8.580  19.453  0.00  0.00    +0.017 C 
ATOM     14  C   UNL     1      13.656   9.110  17.107  0.00  0.00    +0.090 C 
ATOM     15  C   UNL     1      14.445  10.509  18.929  0.00  0.00    +0.094 C 
ATOM     17  C   UNL     1      14.467   6.997  18.305  0.00  0.00    +0.130 C 
ATOM     18  C   UNL     1      15.342   8.481  20.119  0.00  0.00    +0.026 A 
ATOM     23  C   UNL     1      16.254   8.751  21.070  0.00  0.00    +0.024 A 
ATOM     24  C   UNL     1      16.629   6.527  19.363  0.00  0.00    +0.274 A 
ATOM     25  C   UNL     1      17.610   6.890  20.416  0.00  0.00    +0.112 A 
ATOM     26  C   UNL     1      17.426   7.933  21.227  0.00  0.00    +0.031 A 
ENDROOT
BRANCH   7  16
ATOM      4  O   UNL     1      12.545  14.712  14.360  0.00  0.00    -0.276 OA
ATOM      9  N   UNL     1      14.062  12.985  14.697  0.00  0.00    -0.302 N 
ATOM     16  C   UNL     1      15.003  11.060  16.643  0.00  0.00    +0.060 C 
ATOM     19  C   UNL     1      14.593  10.635  15.228  0.00  0.00    +0.038 C 
ATOM     20  C   UNL     1      14.244  12.325  17.065  0.00  0.00    +0.038 C 
ATOM     21  C   UNL     1      14.772  11.786  14.237  0.00  0.00    +0.109 C 
ATOM     22  C   UNL     1      14.431  13.441  16.039  0.00  0.00    +0.109 C 
ATOM     27  C   UNL     1      13.129  13.706  13.951  0.00  0.00    +0.212 C 
ATOM     28  C   UNL     1      12.837  13.198  12.562  0.00  0.00    +0.109 C 
ENDBRANCH   7  16
BRANCH  25  10
ATOM     10  N   UNL     1      18.771   6.117  20.598  0.00  0.00    -0.211 N 
ATOM     35  H   UNL     1      18.564   5.136  20.834  0.00  0.00    +0.174 HD
BRANCH  10   2
ATOM      2  S   UNL     1      20.024   6.809  21.501  0.00  0.00    +0.072 S 
ATOM      5  O   UNL     1      20.751   7.759  20.680  0.00  0.00    -0.150 OA
ATOM      6  O   UNL     1      19.526   7.202  22.806  0.00  0.00    -0.150 OA
BRANCH   2  29
ATOM      1 CL   UNL     1      23.735   1.843  22.338  0.00  0.00    -0.084 Cl
ATOM     29  C   UNL     1      21.073   5.406  21.738  0.00  0.00    +0.109 A 
ATOM     30  C   UNL     1      20.963   4.328  20.876  0.00  0.00    +0.030 A 
ATOM     31  C   UNL     1      21.982   5.411  22.780  0.00  0.00    +0.030 A 
ATOM     32  C   UNL     1      21.791   3.221  21.062  0.00  0.00    +0.022 A 
ATOM     33  C   UNL     1      22.810   4.303  22.967  0.00  0.00    +0.022 A 
ATOM     34  C   UNL     1      22.715   3.208  22.108  0.00  0.00    +0.041 A 
ENDBRANCH   2  29
ENDBRANCH  10   2
ENDBRANCH  25  10
TORSDOF 4
ENDMDL
MODEL 10
REMARK VINA RESULT:      -6.8     15.641     17.489
REMARK  Name = 7051417
REMARK  5 active torsions:
REMARK  status: ('A' for Active; 'I' for Inactive)
REMARK    1  A    between atoms: S_2  and  N_10
REMARK    2  A    between atoms: S_2  and  C_29
REMARK    3  A    between atoms: N_7  and  C_16
REMARK    4  A    between atoms: N_10  and  C_25
REMARK    5  A    between atoms: C_27  and  C_28
REMARK                            x       y       z     vdW  Elec       q    Type
REMARK                         _______ _______ _______ _____ _____    ______ ____
ROOT
ATOM      3  O   UNL     1     -14.530   9.127  22.202  0.00  0.00    -0.266 OA
ATOM      7  N   UNL     1     -12.683   9.553  17.554  0.00  0.00    -0.298 NA
ATOM      8  N   UNL     1     -12.748   8.967  20.688  0.00  0.00    -0.310 N 
ATOM     11  C   UNL     1     -11.801  10.979  19.417  0.00  0.00    +0.024 C 
ATOM     12  C   UNL     1     -10.847   8.754  19.048  0.00  0.00    +0.050 C 
ATOM     13  C   UNL     1     -10.499  10.189  19.432  0.00  0.00    +0.017 C 
ATOM     14  C   UNL     1     -12.436  10.925  18.010  0.00  0.00    +0.090 C 
ATOM     15  C   UNL     1     -11.465   8.732  17.632  0.00  0.00    +0.094 C 
ATOM     17  C   UNL     1     -12.731  10.425  20.504  0.00  0.00    +0.130 C 
ATOM     18  C   UNL     1     -11.807   8.144  20.055  0.00  0.00    +0.026 A 
ATOM     23  C   UNL     1     -11.766   6.826  20.320  0.00  0.00    +0.024 A 
ATOM     24  C   UNL     1     -13.690   8.454  21.604  0.00  0.00    +0.274 A 
ATOM     25  C   UNL     1     -13.610   6.990  21.838  0.00  0.00    +0.112 A 
ATOM     26  C   UNL     1     -12.695   6.226  21.239  0.00  0.00    +0.031 A 
ENDROOT
BRANCH   7  16
ATOM      4  O   UNL     1     -16.538   6.975  13.535  0.00  0.00    -0.276 OA
ATOM      9  N   UNL     1     -14.611   8.164  14.058  0.00  0.00    -0.302 N 
ATOM     16  C   UNL     1     -13.235   9.541  16.201  0.00  0.00    +0.060 C 
ATOM     19  C   UNL     1     -12.535   8.471  15.355  0.00  0.00    +0.038 C 
ATOM     20  C   UNL     1     -14.747   9.281  16.252  0.00  0.00    +0.038 C 
ATOM     21  C   UNL     1     -13.162   8.376  13.963  0.00  0.00    +0.109 C 
ATOM     22  C   UNL     1     -15.329   9.171  14.844  0.00  0.00    +0.109 C 
ATOM     27  C   UNL     1     -15.318   7.133  13.440  0.00  0.00    +0.212 C 
ATOM     28  C   UNL     1     -14.512   6.163  12.613  0.00  0.00    +0.109 C 
ENDBRANCH   7  16
BRANCH  25  10
ATOM     10  N   UNL     1     -14.504   6.365  22.726  0.00  0.00    -0.211 N 
ATOM     35  H   UNL     1     -14.032   5.725  23.381  0.00  0.00    +0.174 HD
BRANCH  10   2
ATOM      2  S   UNL     1     -15.947   5.769  22.075  0.00  0.00    +0.072 S 
ATOM      5  O   UNL     1     -17.015   6.728  22.293  0.00  0.00    -0.150 OA
ATOM      6  O   UNL     1     -15.702   5.239  20.747  0.00  0.00    -0.150 OA
BRANCH   2  29
ATOM      1 CL   UNL     1     -17.008   0.901  25.858  0.00  0.00    -0.084 Cl
ATOM     29  C   UNL     1     -16.247   4.393  23.144  0.00  0.00    +0.109 A 
ATOM     30  C   UNL     1     -15.441   4.213  24.254  0.00  0.00    +0.030 A 
ATOM     31  C   UNL     1     -17.282   3.523  22.850  0.00  0.00    +0.030 A 
ATOM     32  C   UNL     1     -15.678   3.128  25.098  0.00  0.00    +0.022 A 
ATOM     33  C   UNL     1     -17.518   2.437  23.694  0.00  0.00    +0.022 A 
ATOM     34  C   UNL     1     -16.716   2.240  24.818  0.00  0.00    +0.041 A 
ENDBRANCH   2  29
ENDBRANCH  10   2
ENDBRANCH  25  10
TORSDOF 4
ENDMDL
