MODEL 1
REMARK VINA RESULT:      -8.1      0.000      0.000
REMARK  Name = 7051765
REMARK  2 active torsions:
REMARK  status: ('A' for Active; 'I' for Inactive)
REMARK    1  A    between atoms: N_5  and  C_22
REMARK    2  A    between atoms: C_14  and  C_19
REMARK                            x       y       z     vdW  Elec       q    Type
REMARK                         _______ _______ _______ _____ _____    ______ ____
ROOT
ATOM      1  O   UNL     1      15.037  10.234  16.215  0.00  0.00    -0.268 OA
ATOM      2  O   UNL     1      17.473  10.536  20.466  0.00  0.00    -0.252 OA
ATOM      3  N   UNL     1      13.969  10.421  18.291  0.00  0.00    -0.311 N 
ATOM      4  N   UNL     1      15.276  10.851  21.121  0.00  0.00    -0.284 N 
ATOM      5  N   UNL     1      16.236   8.696  21.142  0.00  0.00    -0.269 N 
ATOM      7  C   UNL     1      14.148  12.553  19.701  0.00  0.00    +0.027 C 
ATOM      8  C   UNL     1      12.876  10.625  20.550  0.00  0.00    +0.054 C 
ATOM      9  C   UNL     1      12.799  12.124  20.259  0.00  0.00    +0.018 C 
ATOM     10  C   UNL     1      14.365  11.834  18.368  0.00  0.00    +0.130 C 
ATOM     11  C   UNL     1      15.275  12.256  20.708  0.00  0.00    +0.114 C 
ATOM     12  C   UNL     1      13.973  10.372  21.609  0.00  0.00    +0.119 C 
ATOM     13  C   UNL     1      13.169   9.815  19.281  0.00  0.00    +0.034 A 
ATOM     14  C   UNL     1      12.724   8.543  19.105  0.00  0.00    +0.004 A 
ATOM     15  C   UNL     1      14.353   9.749  17.117  0.00  0.00    +0.252 A 
ATOM     16  C   UNL     1      16.415  10.053  20.876  0.00  0.00    +0.306 C 
ATOM     17  C   UNL     1      13.102   7.819  17.907  0.00  0.00    +0.015 A 
ATOM     18  C   UNL     1      13.876   8.356  16.965  0.00  0.00    +0.071 A 
ATOM     30  H   UNL     1      15.561   8.423  21.845  0.00  0.00    +0.156 HD
ENDROOT
BRANCH  14  19
ATOM      6  N   UNL     1      11.303   5.830  21.273  0.00  0.00    -0.263 NA
ATOM     19  C   UNL     1      11.887   7.862  20.118  0.00  0.00    +0.002 A 
ATOM     20  C   UNL     1      10.939   8.567  20.842  0.00  0.00    +0.011 A 
ATOM     21  C   UNL     1      12.035   6.512  20.363  0.00  0.00    +0.119 A 
ATOM     23  C   UNL     1      10.168   7.901  21.787  0.00  0.00    +0.020 A 
ATOM     24  C   UNL     1      10.386   6.544  21.964  0.00  0.00    +0.111 A 
ENDBRANCH  14  19
BRANCH   5  22
ATOM     22  C   UNL     1      16.938   7.613  20.559  0.00  0.00    +0.035 A 
ATOM     25  C   UNL     1      18.201   7.271  21.035  0.00  0.00    +0.023 A 
ATOM     26  C   UNL     1      16.361   6.896  19.515  0.00  0.00    +0.023 A 
ATOM     27  C   UNL     1      18.892   6.204  20.463  0.00  0.00    +0.002 A 
ATOM     28  C   UNL     1      17.052   5.829  18.942  0.00  0.00    +0.002 A 
ATOM     29  C   UNL     1      18.318   5.482  19.416  0.00  0.00    +0.000 A 
ENDBRANCH   5  22
TORSDOF 2
ENDMDL
MODEL 2
REMARK VINA RESULT:      -7.8     13.195     15.720
REMARK  Name = 7051765
REMARK  2 active torsions:
REMARK  status: ('A' for Active; 'I' for Inactive)
REMARK    1  A    between atoms: N_5  and  C_22
REMARK    2  A    between atoms: C_14  and  C_19
REMARK                            x       y       z     vdW  Elec       q    Type
REMARK                         _______ _______ _______ _____ _____    ______ ____
ROOT
ATOM      1  O   UNL     1       9.115  10.222   3.244  0.00  0.00    -0.268 OA
ATOM      2  O   UNL     1      13.531   8.117   2.836  0.00  0.00    -0.252 OA
ATOM      3  N   UNL     1      10.267   9.303   5.064  0.00  0.00    -0.311 N 
ATOM      4  N   UNL     1      13.176   8.105   5.123  0.00  0.00    -0.284 N 
ATOM      5  N   UNL     1      12.570   6.244   3.806  0.00  0.00    -0.269 N 
ATOM      7  C   UNL     1      12.443  10.340   5.931  0.00  0.00    +0.027 C 
ATOM      8  C   UNL     1      11.552   8.301   6.984  0.00  0.00    +0.054 C 
ATOM      9  C   UNL     1      12.036   9.725   7.263  0.00  0.00    +0.018 C 
ATOM     10  C   UNL     1      11.197  10.440   5.050  0.00  0.00    +0.130 C 
ATOM     11  C   UNL     1      13.558   9.512   5.265  0.00  0.00    +0.114 C 
ATOM     12  C   UNL     1      12.713   7.483   6.374  0.00  0.00    +0.119 C 
ATOM     13  C   UNL     1      10.344   8.287   6.040  0.00  0.00    +0.034 A 
ATOM     14  C   UNL     1       9.387   7.323   6.089  0.00  0.00    +0.004 A 
ATOM     15  C   UNL     1       9.238   9.353   4.107  0.00  0.00    +0.252 A 
ATOM     16  C   UNL     1      13.119   7.526   3.837  0.00  0.00    +0.306 C 
ATOM     17  C   UNL     1       8.312   7.342   5.116  0.00  0.00    +0.015 A 
ATOM     18  C   UNL     1       8.225   8.275   4.167  0.00  0.00    +0.071 A 
ATOM     30  H   UNL     1      12.654   5.660   4.628  0.00  0.00    +0.156 HD
ENDROOT
BRANCH  14  19
ATOM      6  N   UNL     1       9.917   3.933   7.605  0.00  0.00    -0.263 NA
ATOM     19  C   UNL     1       9.427   6.235   7.090  0.00  0.00    +0.002 A 
ATOM     20  C   UNL     1       9.037   6.464   8.400  0.00  0.00    +0.011 A 
ATOM     21  C   UNL     1       9.856   4.970   6.740  0.00  0.00    +0.119 A 
ATOM     23  C   UNL     1       9.086   5.421   9.318  0.00  0.00    +0.020 A 
ATOM     24  C   UNL     1       9.529   4.186   8.875  0.00  0.00    +0.111 A 
ENDBRANCH  14  19
BRANCH   5  22
ATOM     22  C   UNL     1      11.924   5.619   2.712  0.00  0.00    +0.035 A 
ATOM     25  C   UNL     1      12.558   4.582   2.035  0.00  0.00    +0.023 A 
ATOM     26  C   UNL     1      10.657   6.045   2.322  0.00  0.00    +0.023 A 
ATOM     27  C   UNL     1      11.921   3.965   0.959  0.00  0.00    +0.002 A 
ATOM     28  C   UNL     1      10.020   5.428   1.246  0.00  0.00    +0.002 A 
ATOM     29  C   UNL     1      10.652   4.388   0.564  0.00  0.00    +0.000 A 
ENDBRANCH   5  22
TORSDOF 2
ENDMDL
MODEL 3
REMARK VINA RESULT:      -7.1      1.569      2.244
REMARK  Name = 7051765
REMARK  2 active torsions:
REMARK  status: ('A' for Active; 'I' for Inactive)
REMARK    1  A    between atoms: N_5  and  C_22
REMARK    2  A    between atoms: C_14  and  C_19
REMARK                            x       y       z     vdW  Elec       q    Type
REMARK                         _______ _______ _______ _____ _____    ______ ____
ROOT
ATOM      1  O   UNL     1      16.200  11.863  17.632  0.00  0.00    -0.268 OA
ATOM      2  O   UNL     1      18.520  10.302  21.666  0.00  0.00    -0.252 OA
ATOM      3  N   UNL     1      15.178  11.760  19.737  0.00  0.00    -0.311 N 
ATOM      4  N   UNL     1      16.484  11.019  22.501  0.00  0.00    -0.284 N 
ATOM      5  N   UNL     1      16.801   8.763  21.887  0.00  0.00    -0.269 N 
ATOM      7  C   UNL     1      15.914  13.287  21.658  0.00  0.00    +0.027 C 
ATOM      8  C   UNL     1      14.132  11.630  22.024  0.00  0.00    +0.054 C 
ATOM      9  C   UNL     1      14.485  13.112  22.153  0.00  0.00    +0.018 C 
ATOM     10  C   UNL     1      15.952  12.931  20.171  0.00  0.00    +0.130 C 
ATOM     11  C   UNL     1      16.888  12.427  22.484  0.00  0.00    +0.114 C 
ATOM     12  C   UNL     1      15.088  10.803  22.913  0.00  0.00    +0.119 C 
ATOM     13  C   UNL     1      14.216  11.151  20.569  0.00  0.00    +0.034 A 
ATOM     14  C   UNL     1      13.436  10.150  20.081  0.00  0.00    +0.004 A 
ATOM     15  C   UNL     1      15.386  11.358  18.406  0.00  0.00    +0.252 A 
ATOM     16  C   UNL     1      17.359  10.037  21.988  0.00  0.00    +0.306 C 
ATOM     17  C   UNL     1      13.625   9.708  18.713  0.00  0.00    +0.015 A 
ATOM     18  C   UNL     1      14.541  10.248  17.910  0.00  0.00    +0.071 A 
ATOM     30  H   UNL     1      16.060   8.505  22.527  0.00  0.00    +0.156 HD
ENDROOT
BRANCH  14  19
ATOM      6  N   UNL     1      10.458   9.650  22.307  0.00  0.00    -0.263 NA
ATOM     19  C   UNL     1      12.418   9.477  20.917  0.00  0.00    +0.002 A 
ATOM     20  C   UNL     1      12.446   8.103  21.097  0.00  0.00    +0.011 A 
ATOM     21  C   UNL     1      11.418  10.203  21.532  0.00  0.00    +0.119 A 
ATOM     23  C   UNL     1      11.475   7.498  21.887  0.00  0.00    +0.020 A 
ATOM     24  C   UNL     1      10.511   8.308  22.465  0.00  0.00    +0.111 A 
ENDBRANCH  14  19
BRANCH   5  22
ATOM     22  C   UNL     1      17.185   7.731  20.996  0.00  0.00    +0.035 A 
ATOM     25  C   UNL     1      16.323   7.344  19.974  0.00  0.00    +0.023 A 
ATOM     26  C   UNL     1      18.422   7.112  21.148  0.00  0.00    +0.023 A 
ATOM     27  C   UNL     1      16.702   6.330  19.096  0.00  0.00    +0.002 A 
ATOM     28  C   UNL     1      18.801   6.097  20.269  0.00  0.00    +0.002 A 
ATOM     29  C   UNL     1      17.940   5.706  19.243  0.00  0.00    +0.000 A 
ENDBRANCH   5  22
TORSDOF 2
ENDMDL
MODEL 4
REMARK VINA RESULT:      -6.9     26.210     28.988
REMARK  Name = 7051765
REMARK  2 active torsions:
REMARK  status: ('A' for Active; 'I' for Inactive)
REMARK    1  A    between atoms: N_5  and  C_22
REMARK    2  A    between atoms: C_14  and  C_19
REMARK                            x       y       z     vdW  Elec       q    Type
REMARK                         _______ _______ _______ _____ _____    ______ ____
ROOT
ATOM      1  O   UNL     1      -1.963 -10.712  16.688  0.00  0.00    -0.268 OA
ATOM      2  O   UNL     1      -5.109 -14.436  16.114  0.00  0.00    -0.252 OA
ATOM      3  N   UNL     1      -3.758 -10.650  15.184  0.00  0.00    -0.311 N 
ATOM      4  N   UNL     1      -6.033 -12.785  14.781  0.00  0.00    -0.284 N 
ATOM      5  N   UNL     1      -4.550 -14.375  13.866  0.00  0.00    -0.269 N 
ATOM      7  C   UNL     1      -6.186 -10.624  16.000  0.00  0.00    +0.027 C 
ATOM      8  C   UNL     1      -5.704 -10.640  13.587  0.00  0.00    +0.054 C 
ATOM      9  C   UNL     1      -6.467  -9.904  14.689  0.00  0.00    +0.018 C 
ATOM     10  C   UNL     1      -4.693 -10.494  16.306  0.00  0.00    +0.130 C 
ATOM     11  C   UNL     1      -6.636 -12.094  15.923  0.00  0.00    +0.114 C 
ATOM     12  C   UNL     1      -6.224 -12.092  13.496  0.00  0.00    +0.119 C 
ATOM     13  C   UNL     1      -4.192 -10.635  13.843  0.00  0.00    +0.034 A 
ATOM     14  C   UNL     1      -3.279 -10.656  12.836  0.00  0.00    +0.004 A 
ATOM     15  C   UNL     1      -2.397 -10.710  15.536  0.00  0.00    +0.252 A 
ATOM     16  C   UNL     1      -5.213 -13.913  15.002  0.00  0.00    +0.306 C 
ATOM     17  C   UNL     1      -1.867 -10.720  13.162  0.00  0.00    +0.015 A 
ATOM     18  C   UNL     1      -1.427 -10.760  14.419  0.00  0.00    +0.071 A 
ATOM     30  H   UNL     1      -4.972 -14.218  12.959  0.00  0.00    +0.156 HD
ENDROOT
BRANCH  14  19
ATOM      6  N   UNL     1      -4.197 -11.888   9.414  0.00  0.00    -0.263 NA
ATOM     19  C   UNL     1      -3.685 -10.646  11.414  0.00  0.00    +0.002 A 
ATOM     20  C   UNL     1      -3.932  -9.452  10.757  0.00  0.00    +0.011 A 
ATOM     21  C   UNL     1      -3.829 -11.827  10.713  0.00  0.00    +0.119 A 
ATOM     23  C   UNL     1      -4.314  -9.474   9.420  0.00  0.00    +0.020 A 
ATOM     24  C   UNL     1      -4.431 -10.707   8.799  0.00  0.00    +0.111 A 
ENDBRANCH  14  19
BRANCH   5  22
ATOM     22  C   UNL     1      -3.335 -15.102  13.823  0.00  0.00    +0.035 A 
ATOM     25  C   UNL     1      -2.144 -14.441  13.534  0.00  0.00    +0.023 A 
ATOM     26  C   UNL     1      -3.339 -16.471  14.073  0.00  0.00    +0.023 A 
ATOM     27  C   UNL     1      -0.948 -15.156  13.493  0.00  0.00    +0.002 A 
ATOM     28  C   UNL     1      -2.143 -17.186  14.033  0.00  0.00    +0.002 A 
ATOM     29  C   UNL     1      -0.946 -16.529  13.743  0.00  0.00    +0.000 A 
ENDBRANCH   5  22
TORSDOF 2
ENDMDL
MODEL 5
REMARK VINA RESULT:      -6.9     13.654     16.706
REMARK  Name = 7051765
REMARK  2 active torsions:
REMARK  status: ('A' for Active; 'I' for Inactive)
REMARK    1  A    between atoms: N_5  and  C_22
REMARK    2  A    between atoms: C_14  and  C_19
REMARK                            x       y       z     vdW  Elec       q    Type
REMARK                         _______ _______ _______ _____ _____    ______ ____
ROOT
ATOM      1  O   UNL     1       7.195   9.214   4.344  0.00  0.00    -0.268 OA
ATOM      2  O   UNL     1      11.220  10.054   7.025  0.00  0.00    -0.252 OA
ATOM      3  N   UNL     1       8.721   7.534   4.922  0.00  0.00    -0.311 N 
ATOM      4  N   UNL     1      11.238   7.751   6.798  0.00  0.00    -0.284 N 
ATOM      5  N   UNL     1      12.411   9.115   5.272  0.00  0.00    -0.269 N 
ATOM      7  C   UNL     1       9.018   6.775   7.351  0.00  0.00    +0.027 C 
ATOM      8  C   UNL     1      10.394   5.769   5.575  0.00  0.00    +0.054 C 
ATOM      9  C   UNL     1       9.446   5.452   6.733  0.00  0.00    +0.018 C 
ATOM     10  C   UNL     1       8.223   7.556   6.304  0.00  0.00    +0.130 C 
ATOM     11  C   UNL     1      10.241   7.564   7.855  0.00  0.00    +0.114 C 
ATOM     12  C   UNL     1      11.636   6.504   6.126  0.00  0.00    +0.119 C 
ATOM     13  C   UNL     1       9.709   6.621   4.499  0.00  0.00    +0.034 A 
ATOM     14  C   UNL     1      10.049   6.552   3.185  0.00  0.00    +0.004 A 
ATOM     15  C   UNL     1       8.073   8.409   4.032  0.00  0.00    +0.252 A 
ATOM     16  C   UNL     1      11.598   9.058   6.404  0.00  0.00    +0.306 C 
ATOM     17  C   UNL     1       9.402   7.441   2.239  0.00  0.00    +0.015 A 
ATOM     18  C   UNL     1       8.482   8.331   2.612  0.00  0.00    +0.071 A 
ATOM     30  H   UNL     1      13.022   8.333   5.072  0.00  0.00    +0.156 HD
ENDROOT
BRANCH  14  19
ATOM      6  N   UNL     1      13.342   5.261   1.935  0.00  0.00    -0.263 NA
ATOM     19  C   UNL     1      11.083   5.615   2.694  0.00  0.00    +0.002 A 
ATOM     20  C   UNL     1      10.799   4.268   2.535  0.00  0.00    +0.011 A 
ATOM     21  C   UNL     1      12.352   6.063   2.387  0.00  0.00    +0.119 A 
ATOM     23  C   UNL     1      11.791   3.412   2.073  0.00  0.00    +0.020 A 
ATOM     24  C   UNL     1      13.035   3.952   1.789  0.00  0.00    +0.111 A 
ENDBRANCH  14  19
BRANCH   5  22
ATOM     22  C   UNL     1      12.525  10.190   4.357  0.00  0.00    +0.035 A 
ATOM     25  C   UNL     1      13.541  11.128   4.515  0.00  0.00    +0.023 A 
ATOM     26  C   UNL     1      11.621  10.301   3.305  0.00  0.00    +0.023 A 
ATOM     27  C   UNL     1      13.655  12.186   3.613  0.00  0.00    +0.002 A 
ATOM     28  C   UNL     1      11.734  11.358   2.403  0.00  0.00    +0.002 A 
ATOM     29  C   UNL     1      12.751  12.301   2.557  0.00  0.00    +0.000 A 
ENDBRANCH   5  22
TORSDOF 2
ENDMDL
MODEL 6
REMARK VINA RESULT:      -6.8     13.728     16.493
REMARK  Name = 7051765
REMARK  2 active torsions:
REMARK  status: ('A' for Active; 'I' for Inactive)
REMARK    1  A    between atoms: N_5  and  C_22
REMARK    2  A    between atoms: C_14  and  C_19
REMARK                            x       y       z     vdW  Elec       q    Type
REMARK                         _______ _______ _______ _____ _____    ______ ____
ROOT
ATOM      1  O   UNL     1       9.824  10.868   4.727  0.00  0.00    -0.268 OA
ATOM      2  O   UNL     1      12.176   7.748   7.697  0.00  0.00    -0.252 OA
ATOM      3  N   UNL     1       9.591   8.542   4.582  0.00  0.00    -0.311 N 
ATOM      4  N   UNL     1      10.795   6.343   6.483  0.00  0.00    -0.284 N 
ATOM      5  N   UNL     1      13.005   6.761   5.771  0.00  0.00    -0.269 N 
ATOM      7  C   UNL     1       8.458   7.193   6.442  0.00  0.00    +0.027 C 
ATOM      8  C   UNL     1       9.378   6.035   4.474  0.00  0.00    +0.054 C 
ATOM      9  C   UNL     1       8.121   6.213   5.327  0.00  0.00    +0.018 C 
ATOM     10  C   UNL     1       8.780   8.546   5.807  0.00  0.00    +0.130 C 
ATOM     11  C   UNL     1       9.623   6.665   7.300  0.00  0.00    +0.114 C 
ATOM     12  C   UNL     1      10.505   5.447   5.352  0.00  0.00    +0.119 C 
ATOM     13  C   UNL     1       9.831   7.361   3.850  0.00  0.00    +0.034 A 
ATOM     14  C   UNL     1      10.480   7.425   2.657  0.00  0.00    +0.004 A 
ATOM     15  C   UNL     1      10.019   9.805   4.136  0.00  0.00    +0.252 A 
ATOM     16  C   UNL     1      12.015   7.011   6.721  0.00  0.00    +0.306 C 
ATOM     17  C   UNL     1      10.938   8.711   2.168  0.00  0.00    +0.015 A 
ATOM     18  C   UNL     1      10.746   9.841   2.848  0.00  0.00    +0.071 A 
ATOM     30  H   UNL     1      12.992   5.877   5.278  0.00  0.00    +0.156 HD
ENDROOT
BRANCH  14  19
ATOM      6  N   UNL     1      10.049   4.667   0.151  0.00  0.00    -0.263 NA
ATOM     19  C   UNL     1      10.760   6.214   1.856  0.00  0.00    +0.002 A 
ATOM     20  C   UNL     1      11.939   5.506   2.031  0.00  0.00    +0.011 A 
ATOM     21  C   UNL     1       9.855   5.764   0.916  0.00  0.00    +0.119 A 
ATOM     23  C   UNL     1      12.175   4.372   1.262  0.00  0.00    +0.020 A 
ATOM     24  C   UNL     1      11.208   3.997   0.345  0.00  0.00    +0.111 A 
ENDBRANCH  14  19
BRANCH   5  22
ATOM     22  C   UNL     1      14.091   7.603   5.428  0.00  0.00    +0.035 A 
ATOM     25  C   UNL     1      15.205   7.668   6.260  0.00  0.00    +0.023 A 
ATOM     26  C   UNL     1      14.037   8.358   4.259  0.00  0.00    +0.023 A 
ATOM     27  C   UNL     1      16.275   8.496   5.921  0.00  0.00    +0.002 A 
ATOM     28  C   UNL     1      15.107   9.186   3.921  0.00  0.00    +0.002 A 
ATOM     29  C   UNL     1      16.226   9.255   4.752  0.00  0.00    +0.000 A 
ENDBRANCH   5  22
TORSDOF 2
ENDMDL
MODEL 7
REMARK VINA RESULT:      -6.7     13.064     16.133
REMARK  Name = 7051765
REMARK  2 active torsions:
REMARK  status: ('A' for Active; 'I' for Inactive)
REMARK    1  A    between atoms: N_5  and  C_22
REMARK    2  A    between atoms: C_14  and  C_19
REMARK                            x       y       z     vdW  Elec       q    Type
REMARK                         _______ _______ _______ _____ _____    ______ ____
ROOT
ATOM      1  O   UNL     1      21.677  -7.311  23.673  0.00  0.00    -0.268 OA
ATOM      2  O   UNL     1      19.642  -6.509  28.067  0.00  0.00    -0.252 OA
ATOM      3  N   UNL     1      20.823  -5.231  24.326  0.00  0.00    -0.311 N 
ATOM      4  N   UNL     1      19.679  -4.391  27.134  0.00  0.00    -0.284 N 
ATOM      5  N   UNL     1      17.776  -5.768  26.908  0.00  0.00    -0.269 N 
ATOM      7  C   UNL     1      21.918  -3.861  26.193  0.00  0.00    +0.027 C 
ATOM      8  C   UNL     1      19.890  -3.018  25.082  0.00  0.00    +0.054 C 
ATOM      9  C   UNL     1      21.328  -2.663  25.462  0.00  0.00    +0.018 C 
ATOM     10  C   UNL     1      21.975  -5.036  25.215  0.00  0.00    +0.130 C 
ATOM     11  C   UNL     1      21.095  -4.194  27.451  0.00  0.00    +0.114 C 
ATOM     12  C   UNL     1      19.079  -3.285  26.370  0.00  0.00    +0.119 C 
ATOM     13  C   UNL     1      19.832  -4.241  24.159  0.00  0.00    +0.034 A 
ATOM     14  C   UNL     1      18.853  -4.414  23.232  0.00  0.00    +0.004 A 
ATOM     15  C   UNL     1      20.831  -6.422  23.578  0.00  0.00    +0.252 A 
ATOM     16  C   UNL     1      19.067  -5.631  27.417  0.00  0.00    +0.306 C 
ATOM     17  C   UNL     1      18.830  -5.631  22.445  0.00  0.00    +0.015 A 
ATOM     18  C   UNL     1      19.738  -6.595  22.596  0.00  0.00    +0.071 A 
ATOM     30  H   UNL     1      17.213  -4.935  26.783  0.00  0.00    +0.156 HD
ENDROOT
BRANCH  14  19
ATOM      6  N   UNL     1      17.172  -1.182  22.335  0.00  0.00    -0.263 NA
ATOM     19  C   UNL     1      17.790  -3.406  23.024  0.00  0.00    +0.002 A 
ATOM     20  C   UNL     1      16.466  -3.707  23.301  0.00  0.00    +0.011 A 
ATOM     21  C   UNL     1      18.095  -2.147  22.547  0.00  0.00    +0.119 A 
ATOM     23  C   UNL     1      15.488  -2.741  23.094  0.00  0.00    +0.020 A 
ATOM     24  C   UNL     1      15.889  -1.505  22.615  0.00  0.00    +0.111 A 
ENDBRANCH  14  19
BRANCH   5  22
ATOM     22  C   UNL     1      17.113  -6.974  26.573  0.00  0.00    +0.035 A 
ATOM     25  C   UNL     1      16.258  -7.572  27.494  0.00  0.00    +0.023 A 
ATOM     26  C   UNL     1      17.321  -7.552  25.324  0.00  0.00    +0.023 A 
ATOM     27  C   UNL     1      15.605  -8.758  27.164  0.00  0.00    +0.002 A 
ATOM     28  C   UNL     1      16.667  -8.738  24.993  0.00  0.00    +0.002 A 
ATOM     29  C   UNL     1      15.809  -9.342  25.914  0.00  0.00    +0.000 A 
ENDBRANCH   5  22
TORSDOF 2
ENDMDL
MODEL 8
REMARK VINA RESULT:      -6.7     27.357     29.895
REMARK  Name = 7051765
REMARK  2 active torsions:
REMARK  status: ('A' for Active; 'I' for Inactive)
REMARK    1  A    between atoms: N_5  and  C_22
REMARK    2  A    between atoms: C_14  and  C_19
REMARK                            x       y       z     vdW  Elec       q    Type
REMARK                         _______ _______ _______ _____ _____    ______ ____
ROOT
ATOM      1  O   UNL     1      -7.904 -14.608  17.255  0.00  0.00    -0.268 OA
ATOM      2  O   UNL     1      -8.522  -9.754  17.648  0.00  0.00    -0.252 OA
ATOM      3  N   UNL     1      -6.134 -13.079  17.134  0.00  0.00    -0.311 N 
ATOM      4  N   UNL     1      -6.218  -9.965  17.572  0.00  0.00    -0.284 N 
ATOM      5  N   UNL     1      -7.455  -9.595  15.597  0.00  0.00    -0.269 N 
ATOM      7  C   UNL     1      -5.420 -11.696  19.169  0.00  0.00    +0.027 C 
ATOM      8  C   UNL     1      -4.271 -11.390  17.013  0.00  0.00    +0.054 C 
ATOM      9  C   UNL     1      -4.053 -11.683  18.499  0.00  0.00    +0.018 C 
ATOM     10  C   UNL     1      -6.228 -12.854  18.583  0.00  0.00    +0.130 C 
ATOM     11  C   UNL     1      -6.131 -10.342  18.985  0.00  0.00    +0.114 C 
ATOM     12  C   UNL     1      -4.929 -10.000  16.864  0.00  0.00    +0.119 C 
ATOM     13  C   UNL     1      -5.142 -12.461  16.346  0.00  0.00    +0.034 A 
ATOM     14  C   UNL     1      -5.015 -12.795  15.034  0.00  0.00    +0.004 A 
ATOM     15  C   UNL     1      -7.030 -14.028  16.611  0.00  0.00    +0.252 A 
ATOM     16  C   UNL     1      -7.485  -9.770  16.980  0.00  0.00    +0.306 C 
ATOM     17  C   UNL     1      -5.923 -13.769  14.460  0.00  0.00    +0.015 A 
ATOM     18  C   UNL     1      -6.886 -14.352  15.174  0.00  0.00    +0.071 A 
ATOM     30  H   UNL     1      -6.625  -9.195  15.176  0.00  0.00    +0.156 HD
ENDROOT
BRANCH  14  19
ATOM      6  N   UNL     1      -1.739 -12.173  13.315  0.00  0.00    -0.263 NA
ATOM     19  C   UNL     1      -3.993 -12.171  14.166  0.00  0.00    +0.002 A 
ATOM     20  C   UNL     1      -4.297 -11.050  13.410  0.00  0.00    +0.011 A 
ATOM     21  C   UNL     1      -2.718 -12.694  14.088  0.00  0.00    +0.119 A 
ATOM     23  C   UNL     1      -3.316 -10.486  12.602  0.00  0.00    +0.020 A 
ATOM     24  C   UNL     1      -2.064 -11.079  12.590  0.00  0.00    +0.111 A 
ENDBRANCH  14  19
BRANCH   5  22
ATOM     22  C   UNL     1      -8.494  -9.878  14.678  0.00  0.00    +0.035 A 
ATOM     25  C   UNL     1      -9.557  -8.990  14.542  0.00  0.00    +0.023 A 
ATOM     26  C   UNL     1      -8.445 -11.042  13.916  0.00  0.00    +0.023 A 
ATOM     27  C   UNL     1     -10.581  -9.268  13.636  0.00  0.00    +0.002 A 
ATOM     28  C   UNL     1      -9.468 -11.320  13.010  0.00  0.00    +0.002 A 
ATOM     29  C   UNL     1     -10.536 -10.432  12.870  0.00  0.00    +0.000 A 
ENDBRANCH   5  22
TORSDOF 2
ENDMDL
MODEL 9
REMARK VINA RESULT:      -6.6     13.615     16.747
REMARK  Name = 7051765
REMARK  2 active torsions:
REMARK  status: ('A' for Active; 'I' for Inactive)
REMARK    1  A    between atoms: N_5  and  C_22
REMARK    2  A    between atoms: C_14  and  C_19
REMARK                            x       y       z     vdW  Elec       q    Type
REMARK                         _______ _______ _______ _____ _____    ______ ____
ROOT
ATOM      1  O   UNL     1      19.302  -8.888  25.405  0.00  0.00    -0.268 OA
ATOM      2  O   UNL     1      19.757  -6.065  29.394  0.00  0.00    -0.252 OA
ATOM      3  N   UNL     1      19.839  -6.611  25.306  0.00  0.00    -0.311 N 
ATOM      4  N   UNL     1      20.406  -4.639  27.691  0.00  0.00    -0.284 N 
ATOM      5  N   UNL     1      18.165  -4.687  28.426  0.00  0.00    -0.269 N 
ATOM      7  C   UNL     1      22.071  -5.723  26.195  0.00  0.00    +0.027 C 
ATOM      8  C   UNL     1      20.415  -4.160  25.260  0.00  0.00    +0.054 C 
ATOM      9  C   UNL     1      21.873  -4.614  25.171  0.00  0.00    +0.018 C 
ATOM     10  C   UNL     1      21.193  -6.908  25.792  0.00  0.00    +0.130 C 
ATOM     11  C   UNL     1      21.749  -5.219  27.615  0.00  0.00    +0.114 C 
ATOM     12  C   UNL     1      20.145  -3.605  26.677  0.00  0.00    +0.119 C 
ATOM     13  C   UNL     1      19.445  -5.305  24.947  0.00  0.00    +0.034 A 
ATOM     14  C   UNL     1      18.225  -5.098  24.384  0.00  0.00    +0.004 A 
ATOM     15  C   UNL     1      19.004  -7.727  25.124  0.00  0.00    +0.252 A 
ATOM     16  C   UNL     1      19.454  -5.199  28.570  0.00  0.00    +0.306 C 
ATOM     17  C   UNL     1      17.337  -6.226  24.184  0.00  0.00    +0.015 A 
ATOM     18  C   UNL     1      17.671  -7.468  24.534  0.00  0.00    +0.071 A 
ATOM     30  H   UNL     1      18.054  -3.740  28.086  0.00  0.00    +0.156 HD
ENDROOT
BRANCH  14  19
ATOM      6  N   UNL     1      16.521  -1.760  24.556  0.00  0.00    -0.263 NA
ATOM     19  C   UNL     1      17.764  -3.747  23.997  0.00  0.00    +0.002 A 
ATOM     20  C   UNL     1      18.117  -3.203  22.772  0.00  0.00    +0.011 A 
ATOM     21  C   UNL     1      16.975  -3.000  24.848  0.00  0.00    +0.119 A 
ATOM     23  C   UNL     1      17.670  -1.930  22.436  0.00  0.00    +0.020 A 
ATOM     24  C   UNL     1      16.881  -1.256  23.354  0.00  0.00    +0.111 A 
ENDBRANCH  14  19
BRANCH   5  22
ATOM     22  C   UNL     1      16.948  -5.335  28.750  0.00  0.00    +0.035 A 
ATOM     25  C   UNL     1      16.289  -5.016  29.933  0.00  0.00    +0.023 A 
ATOM     26  C   UNL     1      16.419  -6.285  27.881  0.00  0.00    +0.023 A 
ATOM     27  C   UNL     1      15.090  -5.653  30.251  0.00  0.00    +0.002 A 
ATOM     28  C   UNL     1      15.220  -6.922  28.199  0.00  0.00    +0.002 A 
ATOM     29  C   UNL     1      14.555  -6.606  29.385  0.00  0.00    +0.000 A 
ENDBRANCH   5  22
TORSDOF 2
ENDMDL
MODEL 10
REMARK VINA RESULT:      -6.4     30.458     34.191
REMARK  Name = 7051765
REMARK  2 active torsions:
REMARK  status: ('A' for Active; 'I' for Inactive)
REMARK    1  A    between atoms: N_5  and  C_22
REMARK    2  A    between atoms: C_14  and  C_19
REMARK                            x       y       z     vdW  Elec       q    Type
REMARK                         _______ _______ _______ _____ _____    ______ ____
ROOT
ATOM      1  O   UNL     1      -7.182  -8.571  44.039  0.00  0.00    -0.268 OA
ATOM      2  O   UNL     1      -5.260  -9.032  39.546  0.00  0.00    -0.252 OA
ATOM      3  N   UNL     1      -8.318  -7.940  42.091  0.00  0.00    -0.311 N 
ATOM      4  N   UNL     1      -7.420  -8.328  39.101  0.00  0.00    -0.284 N 
ATOM      5  N   UNL     1      -5.665  -6.764  39.295  0.00  0.00    -0.269 N 
ATOM      7  C   UNL     1      -9.083  -9.674  40.368  0.00  0.00    +0.027 C 
ATOM      8  C   UNL     1      -9.492  -7.281  39.963  0.00  0.00    +0.054 C 
ATOM      9  C   UNL     1     -10.162  -8.654  40.034  0.00  0.00    +0.018 C 
ATOM     10  C   UNL     1      -8.537  -9.354  41.760  0.00  0.00    +0.130 C 
ATOM     11  C   UNL     1      -7.977  -9.669  39.297  0.00  0.00    +0.114 C 
ATOM     12  C   UNL     1      -8.432  -7.294  38.839  0.00  0.00    +0.119 C 
ATOM     13  C   UNL     1      -8.841  -6.898  41.298  0.00  0.00    +0.034 A 
ATOM     14  C   UNL     1      -8.721  -5.608  41.711  0.00  0.00    +0.004 A 
ATOM     15  C   UNL     1      -7.645  -7.700  43.302  0.00  0.00    +0.252 A 
ATOM     16  C   UNL     1      -6.045  -8.105  39.334  0.00  0.00    +0.306 C 
ATOM     17  C   UNL     1      -8.030  -5.324  42.954  0.00  0.00    +0.015 A 
ATOM     18  C   UNL     1      -7.505  -6.285  43.713  0.00  0.00    +0.071 A 
ATOM     30  H   UNL     1      -6.198  -6.124  38.720  0.00  0.00    +0.156 HD
ENDROOT
BRANCH  14  19
ATOM      6  N   UNL     1     -11.105  -3.055  40.344  0.00  0.00    -0.263 NA
ATOM     19  C   UNL     1      -9.248  -4.481  40.911  0.00  0.00    +0.002 A 
ATOM     20  C   UNL     1      -8.434  -3.806  40.016  0.00  0.00    +0.011 A 
ATOM     21  C   UNL     1     -10.561  -4.076  41.043  0.00  0.00    +0.119 A 
ATOM     23  C   UNL     1      -8.957  -2.750  39.279  0.00  0.00    +0.020 A 
ATOM     24  C   UNL     1     -10.287  -2.416  39.478  0.00  0.00    +0.111 A 
ENDBRANCH  14  19
BRANCH   5  22
ATOM     22  C   UNL     1      -4.558  -6.172  39.951  0.00  0.00    +0.035 A 
ATOM     25  C   UNL     1      -3.429  -5.816  39.218  0.00  0.00    +0.023 A 
ATOM     26  C   UNL     1      -4.607  -5.948  41.324  0.00  0.00    +0.023 A 
ATOM     27  C   UNL     1      -2.340  -5.231  39.863  0.00  0.00    +0.002 A 
ATOM     28  C   UNL     1      -3.517  -5.363  41.969  0.00  0.00    +0.002 A 
ATOM     29  C   UNL     1      -2.384  -5.005  41.239  0.00  0.00    +0.000 A 
ENDBRANCH   5  22
TORSDOF 2
ENDMDL
