REMARK  Name = 75366999
REMARK  9 active torsions:
REMARK  status: ('A' for Active; 'I' for Inactive)
REMARK    1  A    between atoms: O_3  and  C_12
REMARK    2  A    between atoms: O_6  and  C_21
REMARK    3  A    between atoms: O_6  and  C_25
REMARK    4  A    between atoms: N_7  and  C_16
REMARK    5  A    between atoms: N_9  and  C_22
REMARK    6  A    between atoms: C_10  and  C_15
REMARK    7  A    between atoms: C_11  and  C_16
REMARK    8  A    between atoms: C_15  and  C_17
REMARK    9  A    between atoms: C_20  and  C_21
REMARK                            x       y       z     vdW  Elec       q    Type
REMARK                         _______ _______ _______ _____ _____    ______ ____
ROOT
ATOM      2  O   UNL     1       3.384  -1.050   0.091  0.00  0.00    -0.369 OA
ATOM     10  C   UNL     1       3.890  -0.187  -0.930  0.00  0.00    +0.125 C 
ATOM     11  C   UNL     1       3.918  -0.823   1.402  0.00  0.00    +0.164 C 
ATOM     12  C   UNL     1       5.450  -0.901   1.401  0.00  0.00    +0.145 C 
ATOM     13  C   UNL     1       5.408  -0.322  -1.046  0.00  0.00    +0.034 C 
ATOM     14  C   UNL     1       6.076  -0.050   0.299  0.00  0.00    +0.036 C 
ENDROOT
BRANCH  12   3
ATOM      3  O   UNL     1       5.842  -2.259   1.179  0.00  0.00    -0.389 OA
ATOM     34  H   UNL     1       6.812  -2.296   1.229  0.00  0.00    +0.210 HD
ENDBRANCH  12   3
BRANCH  10  15
ATOM     15  C   UNL     1       3.210  -0.576  -2.237  0.00  0.00    +0.090 C 
BRANCH  15  17
ATOM      4  O   UNL     1      -0.252   0.426  -2.254  0.00  0.00    -0.356 OA
ATOM      8  N   UNL     1       1.101   0.674  -2.449  0.00  0.00    -0.083 NA
ATOM     17  C   UNL     1       1.712  -0.473  -2.138  0.00  0.00    +0.086 A 
ATOM     18  C   UNL     1       0.804  -1.470  -1.744  0.00  0.00    +0.074 A 
ATOM     20  C   UNL     1      -0.416  -0.854  -1.834  0.00  0.00    +0.175 A 
BRANCH  20  21
ATOM     21  C   UNL     1      -1.795  -1.287  -1.577  0.00  0.00    +0.306 C 
BRANCH  21   6
ATOM      6  O   UNL     1      -1.942  -1.695  -0.214  0.00  0.00    -0.484 OA
BRANCH   6  25
ATOM     25  C   UNL     1      -3.166  -2.186   0.146  0.00  0.00    +0.121 A 
ATOM     28  C   UNL     1      -4.190  -2.268  -0.797  0.00  0.00    +0.045 A 
ATOM     29  C   UNL     1      -3.390  -2.604   1.458  0.00  0.00    +0.045 A 
ATOM     31  C   UNL     1      -5.439  -2.769  -0.429  0.00  0.00    +0.004 A 
ATOM     32  C   UNL     1      -4.639  -3.105   1.825  0.00  0.00    +0.004 A 
ATOM     33  C   UNL     1      -5.663  -3.187   0.882  0.00  0.00    +0.000 A 
ENDBRANCH   6  25
ENDBRANCH  21   6
ENDBRANCH  20  21
ENDBRANCH  15  17
ENDBRANCH  10  15
BRANCH  11  16
ATOM     16  C   UNL     1       3.388   0.481   1.994  0.00  0.00    +0.140 C 
BRANCH  16   7
ATOM      5  O   UNL     1       1.738   2.397   0.647  0.00  0.00    -0.253 OA
ATOM      7  N   UNL     1       1.957   0.512   1.970  0.00  0.00    -0.297 N 
ATOM      9  N   UNL     1      -0.158   1.263   1.439  0.00  0.00    -0.269 N 
ATOM     19  C   UNL     1       1.212   1.487   1.284  0.00  0.00    +0.304 C 
ATOM     35  H   UNL     1       1.455  -0.183   2.514  0.00  0.00    +0.150 HD
ATOM     36  H   UNL     1      -0.428   0.458   2.000  0.00  0.00    +0.156 HD
BRANCH   9  22
ATOM      1  F   UNL     1      -4.349   4.230  -0.649  0.00  0.00    -0.205 F 
ATOM     22  C   UNL     1      -1.228   2.019   0.906  0.00  0.00    +0.035 A 
ATOM     23  C   UNL     1      -2.546   1.645   1.168  0.00  0.00    +0.026 A 
ATOM     24  C   UNL     1      -0.964   3.140   0.119  0.00  0.00    +0.026 A 
ATOM     26  C   UNL     1      -3.600   2.392   0.642  0.00  0.00    +0.040 A 
ATOM     27  C   UNL     1      -2.019   3.887  -0.407  0.00  0.00    +0.040 A 
ATOM     30  C   UNL     1      -3.337   3.513  -0.145  0.00  0.00    +0.124 A 
ENDBRANCH   9  22
ENDBRANCH  16   7
ENDBRANCH  11  16
TORSDOF 9
