MODEL 1
REMARK VINA RESULT:      -7.4      0.000      0.000
REMARK  Name = 51136856
REMARK  5 active torsions:
REMARK  status: ('A' for Active; 'I' for Inactive)
REMARK    1  A    between atoms: N_2  and  C_9
REMARK    2  A    between atoms: N_3  and  C_19
REMARK    3  A    between atoms: N_7  and  C_28
REMARK    4  A    between atoms: C_10  and  C_18
REMARK    5  A    between atoms: C_20  and  C_25
REMARK                            x       y       z     vdW  Elec       q    Type
REMARK                         _______ _______ _______ _____ _____    ______ ____
ROOT
ATOM      1  O   UNL     1      21.142   6.006  22.180  0.00  0.00    -0.336 OA
ATOM      4  N   UNL     1      20.117   4.980  20.473  0.00  0.00    -0.190 NA
ATOM      5  N   UNL     1      19.934   6.685  21.986  0.00  0.00    -0.056 NA
ATOM     18  C   UNL     1      21.172   5.017  21.247  0.00  0.00    +0.245 A 
ATOM     20  C   UNL     1      19.387   6.022  20.964  0.00  0.00    +0.204 A 
ENDROOT
BRANCH  20  25
ATOM      6  N   UNL     1      14.461   7.335  18.736  0.00  0.00    -0.313 N 
ATOM      7  N   UNL     1      11.914   7.773  17.521  0.00  0.00    -0.302 NA
ATOM      8  N   UNL     1      16.491   6.121  18.632  0.00  0.00    -0.240 NA
ATOM     21  C   UNL     1      14.329   7.310  17.274  0.00  0.00    +0.122 C 
ATOM     22  C   UNL     1      13.233   7.064  19.489  0.00  0.00    +0.122 C 
ATOM     23  C   UNL     1      13.144   8.172  16.828  0.00  0.00    +0.103 C 
ATOM     24  C   UNL     1      12.083   7.931  18.971  0.00  0.00    +0.103 C 
ATOM     25  C   UNL     1      18.112   6.375  20.408  0.00  0.00    +0.041 A 
ATOM     26  C   UNL     1      15.702   7.000  19.290  0.00  0.00    +0.121 A 
ATOM     27  C   UNL     1      17.273   7.276  21.055  0.00  0.00    +0.016 A 
ATOM     28  C   UNL     1      10.779   8.565  17.048  0.00  0.00    +0.105 C 
ATOM     29  C   UNL     1      16.043   7.599  20.491  0.00  0.00    +0.044 A 
ATOM     30  C   UNL     1      17.679   5.830  19.210  0.00  0.00    +0.124 A 
ENDBRANCH  20  25
BRANCH  18  10
ATOM      2  N   UNL     1      23.628   4.852  21.611  0.00  0.00    -0.288 NA
ATOM     10  C   UNL     1      22.396   4.125  21.249  0.00  0.00    +0.146 C 
ATOM     11  C   UNL     1      24.511   3.876  22.249  0.00  0.00    +0.085 C 
ATOM     14  C   UNL     1      22.297   2.985  22.279  0.00  0.00    +0.030 C 
ATOM     15  C   UNL     1      23.548   3.114  23.137  0.00  0.00    +0.017 C 
BRANCH   2   9
ATOM      3  N   UNL     1      26.579   6.889  19.328  0.00  0.00    -0.305 NA
ATOM      9  C   UNL     1      24.266   5.507  20.471  0.00  0.00    +0.060 C 
ATOM     12  C   UNL     1      25.551   4.769  20.087  0.00  0.00    +0.034 C 
ATOM     13  C   UNL     1      24.580   6.973  20.785  0.00  0.00    +0.034 C 
ATOM     16  C   UNL     1      26.286   5.497  18.958  0.00  0.00    +0.085 C 
ATOM     17  C   UNL     1      25.346   7.629  19.634  0.00  0.00    +0.085 C 
ATOM     19  C   UNL     1      27.324   7.556  18.261  0.00  0.00    +0.104 C 
ENDBRANCH   2   9
ENDBRANCH  18  10
TORSDOF 3
ENDMDL
MODEL 2
REMARK VINA RESULT:      -7.3      2.387     10.331
REMARK  Name = 51136856
REMARK  5 active torsions:
REMARK  status: ('A' for Active; 'I' for Inactive)
REMARK    1  A    between atoms: N_2  and  C_9
REMARK    2  A    between atoms: N_3  and  C_19
REMARK    3  A    between atoms: N_7  and  C_28
REMARK    4  A    between atoms: C_10  and  C_18
REMARK    5  A    between atoms: C_20  and  C_25
REMARK                            x       y       z     vdW  Elec       q    Type
REMARK                         _______ _______ _______ _____ _____    ______ ____
ROOT
ATOM      1  O   UNL     1      14.455   6.809  19.194  0.00  0.00    -0.336 OA
ATOM      4  N   UNL     1      15.641   7.634  20.906  0.00  0.00    -0.190 NA
ATOM      5  N   UNL     1      15.715   6.204  19.123  0.00  0.00    -0.056 NA
ATOM     18  C   UNL     1      14.496   7.637  20.271  0.00  0.00    +0.245 A 
ATOM     20  C   UNL     1      16.356   6.741  20.165  0.00  0.00    +0.204 A 
ENDROOT
BRANCH  20  25
ATOM      6  N   UNL     1      21.613   5.506  21.504  0.00  0.00    -0.313 N 
ATOM      7  N   UNL     1      24.245   4.894  22.428  0.00  0.00    -0.302 NA
ATOM      8  N   UNL     1      19.636   6.741  21.918  0.00  0.00    -0.240 NA
ATOM     21  C   UNL     1      22.439   6.553  22.119  0.00  0.00    +0.122 C 
ATOM     22  C   UNL     1      21.963   4.129  21.863  0.00  0.00    +0.122 C 
ATOM     23  C   UNL     1      23.926   6.239  21.935  0.00  0.00    +0.103 C 
ATOM     24  C   UNL     1      23.465   3.894  21.689  0.00  0.00    +0.103 C 
ATOM     25  C   UNL     1      17.713   6.406  20.492  0.00  0.00    +0.041 A 
ATOM     26  C   UNL     1      20.290   5.823  21.173  0.00  0.00    +0.121 A 
ATOM     27  C   UNL     1      18.419   5.468  19.748  0.00  0.00    +0.016 A 
ATOM     28  C   UNL     1      25.677   4.627  22.298  0.00  0.00    +0.105 C 
ATOM     29  C   UNL     1      19.733   5.165  20.089  0.00  0.00    +0.044 A 
ATOM     30  C   UNL     1      18.361   7.010  21.558  0.00  0.00    +0.124 A 
ENDBRANCH  20  25
BRANCH  18  10
ATOM      2  N   UNL     1      12.231   8.312  19.491  0.00  0.00    -0.288 NA
ATOM     10  C   UNL     1      13.234   8.420  20.570  0.00  0.00    +0.146 C 
ATOM     11  C   UNL     1      10.922   8.453  20.129  0.00  0.00    +0.085 C 
ATOM     14  C   UNL     1      12.508   7.916  21.831  0.00  0.00    +0.030 C 
ATOM     15  C   UNL     1      11.088   7.609  21.376  0.00  0.00    +0.017 C 
BRANCH   2   9
ATOM      3  N   UNL     1      14.114  10.390  16.297  0.00  0.00    -0.305 NA
ATOM      9  C   UNL     1      12.430   9.288  18.422  0.00  0.00    +0.060 C 
ATOM     12  C   UNL     1      12.628   8.573  17.083  0.00  0.00    +0.034 C 
ATOM     13  C   UNL     1      13.634  10.187  18.717  0.00  0.00    +0.034 C 
ATOM     16  C   UNL     1      12.937   9.574  15.967  0.00  0.00    +0.085 C 
ATOM     17  C   UNL     1      13.910  11.136  17.548  0.00  0.00    +0.085 C 
ATOM     19  C   UNL     1      14.425  11.307  15.201  0.00  0.00    +0.104 C 
ENDBRANCH   2   9
ENDBRANCH  18  10
TORSDOF 3
ENDMDL
MODEL 3
REMARK VINA RESULT:      -7.3      2.320      4.393
REMARK  Name = 51136856
REMARK  5 active torsions:
REMARK  status: ('A' for Active; 'I' for Inactive)
REMARK    1  A    between atoms: N_2  and  C_9
REMARK    2  A    between atoms: N_3  and  C_19
REMARK    3  A    between atoms: N_7  and  C_28
REMARK    4  A    between atoms: C_10  and  C_18
REMARK    5  A    between atoms: C_20  and  C_25
REMARK                            x       y       z     vdW  Elec       q    Type
REMARK                         _______ _______ _______ _____ _____    ______ ____
ROOT
ATOM      1  O   UNL     1      22.763   6.288  20.614  0.00  0.00    -0.336 OA
ATOM      4  N   UNL     1      21.074   5.008  21.338  0.00  0.00    -0.190 NA
ATOM      5  N   UNL     1      21.588   6.989  20.317  0.00  0.00    -0.056 NA
ATOM     18  C   UNL     1      22.371   5.133  21.212  0.00  0.00    +0.245 A 
ATOM     20  C   UNL     1      20.637   6.170  20.774  0.00  0.00    +0.204 A 
ENDROOT
BRANCH  20  25
ATOM      6  N   UNL     1      15.230   7.445  20.483  0.00  0.00    -0.313 N 
ATOM      7  N   UNL     1      12.518   8.335  20.375  0.00  0.00    -0.302 NA
ATOM      8  N   UNL     1      17.358   7.784  21.463  0.00  0.00    -0.240 NA
ATOM     21  C   UNL     1      14.554   7.899  21.706  0.00  0.00    +0.122 C 
ATOM     22  C   UNL     1      14.674   7.953  19.226  0.00  0.00    +0.122 C 
ATOM     23  C   UNL     1      13.041   7.697  21.589  0.00  0.00    +0.103 C 
ATOM     24  C   UNL     1      13.157   7.751  19.189  0.00  0.00    +0.103 C 
ATOM     25  C   UNL     1      19.239   6.483  20.681  0.00  0.00    +0.041 A 
ATOM     26  C   UNL     1      16.591   7.129  20.563  0.00  0.00    +0.121 A 
ATOM     27  C   UNL     1      18.418   5.830  19.769  0.00  0.00    +0.016 A 
ATOM     28  C   UNL     1      11.065   8.183  20.302  0.00  0.00    +0.105 C 
ATOM     29  C   UNL     1      17.067   6.154  19.702  0.00  0.00    +0.044 A 
ATOM     30  C   UNL     1      18.666   7.444  21.499  0.00  0.00    +0.124 A 
ENDBRANCH  20  25
BRANCH  18  10
ATOM      2  N   UNL     1      22.954   2.894  22.129  0.00  0.00    -0.288 NA
ATOM     10  C   UNL     1      23.474   4.186  21.638  0.00  0.00    +0.146 C 
ATOM     11  C   UNL     1      23.981   1.896  21.834  0.00  0.00    +0.085 C 
ATOM     14  C   UNL     1      24.416   3.813  20.479  0.00  0.00    +0.030 C 
ATOM     15  C   UNL     1      24.410   2.291  20.435  0.00  0.00    +0.017 C 
BRANCH   2   9
ATOM      3  N   UNL     1      23.418   2.707  26.350  0.00  0.00    -0.305 NA
ATOM      9  C   UNL     1      22.602   2.917  23.547  0.00  0.00    +0.060 C 
ATOM     12  C   UNL     1      23.363   4.037  24.263  0.00  0.00    +0.034 C 
ATOM     13  C   UNL     1      22.908   1.572  24.211  0.00  0.00    +0.034 C 
ATOM     16  C   UNL     1      23.083   4.015  25.768  0.00  0.00    +0.085 C 
ATOM     17  C   UNL     1      22.644   1.630  25.717  0.00  0.00    +0.085 C 
ATOM     19  C   UNL     1      23.193   2.718  27.795  0.00  0.00    +0.104 C 
ENDBRANCH   2   9
ENDBRANCH  18  10
TORSDOF 3
ENDMDL
MODEL 4
REMARK VINA RESULT:      -7.1      3.388     10.574
REMARK  Name = 51136856
REMARK  5 active torsions:
REMARK  status: ('A' for Active; 'I' for Inactive)
REMARK    1  A    between atoms: N_2  and  C_9
REMARK    2  A    between atoms: N_3  and  C_19
REMARK    3  A    between atoms: N_7  and  C_28
REMARK    4  A    between atoms: C_10  and  C_18
REMARK    5  A    between atoms: C_20  and  C_25
REMARK                            x       y       z     vdW  Elec       q    Type
REMARK                         _______ _______ _______ _____ _____    ______ ____
ROOT
ATOM      1  O   UNL     1      14.270   6.879  19.719  0.00  0.00    -0.336 OA
ATOM      4  N   UNL     1      15.570   7.196  21.516  0.00  0.00    -0.190 NA
ATOM      5  N   UNL     1      15.541   6.407  19.369  0.00  0.00    -0.056 NA
ATOM     18  C   UNL     1      14.375   7.327  20.998  0.00  0.00    +0.245 A 
ATOM     20  C   UNL     1      16.251   6.628  20.479  0.00  0.00    +0.204 A 
ENDROOT
BRANCH  20  25
ATOM      6  N   UNL     1      21.653   5.392  20.962  0.00  0.00    -0.313 N 
ATOM      7  N   UNL     1      24.397   4.770  21.454  0.00  0.00    -0.302 NA
ATOM      8  N   UNL     1      19.759   6.600  21.711  0.00  0.00    -0.240 NA
ATOM     21  C   UNL     1      22.561   6.425  21.475  0.00  0.00    +0.122 C 
ATOM     22  C   UNL     1      22.057   4.007  21.221  0.00  0.00    +0.122 C 
ATOM     23  C   UNL     1      24.003   6.128  21.057  0.00  0.00    +0.103 C 
ATOM     24  C   UNL     1      23.516   3.787  20.813  0.00  0.00    +0.103 C 
ATOM     25  C   UNL     1      17.642   6.294  20.585  0.00  0.00    +0.041 A 
ATOM     26  C   UNL     1      20.295   5.709  20.846  0.00  0.00    +0.121 A 
ATOM     27  C   UNL     1      18.228   5.382  19.714  0.00  0.00    +0.016 A 
ATOM     28  C   UNL     1      25.793   4.517  21.099  0.00  0.00    +0.105 C 
ATOM     29  C   UNL     1      19.580   5.079  19.840  0.00  0.00    +0.044 A 
ATOM     30  C   UNL     1      18.444   6.870  21.558  0.00  0.00    +0.124 A 
ENDBRANCH  20  25
BRANCH  18  10
ATOM      2  N   UNL     1      12.660   9.129  20.951  0.00  0.00    -0.288 NA
ATOM     10  C   UNL     1      13.116   7.894  21.620  0.00  0.00    +0.146 C 
ATOM     11  C   UNL     1      11.206   9.172  21.108  0.00  0.00    +0.085 C 
ATOM     14  C   UNL     1      11.918   6.931  21.520  0.00  0.00    +0.030 C 
ATOM     15  C   UNL     1      10.818   7.732  20.838  0.00  0.00    +0.017 C 
BRANCH   2   9
ATOM      3  N   UNL     1      13.114  13.132  22.306  0.00  0.00    -0.305 NA
ATOM      9  C   UNL     1      13.304  10.334  21.468  0.00  0.00    +0.060 C 
ATOM     12  C   UNL     1      12.664  10.748  22.797  0.00  0.00    +0.034 C 
ATOM     13  C   UNL     1      13.207  11.484  20.462  0.00  0.00    +0.034 C 
ATOM     16  C   UNL     1      13.259  12.065  23.305  0.00  0.00    +0.085 C 
ATOM     17  C   UNL     1      13.783  12.776  21.046  0.00  0.00    +0.085 C 
ATOM     19  C   UNL     1      13.641  14.394  22.825  0.00  0.00    +0.104 C 
ENDBRANCH   2   9
ENDBRANCH  18  10
TORSDOF 3
ENDMDL
MODEL 5
REMARK VINA RESULT:      -7.1      1.980      4.163
REMARK  Name = 51136856
REMARK  5 active torsions:
REMARK  status: ('A' for Active; 'I' for Inactive)
REMARK    1  A    between atoms: N_2  and  C_9
REMARK    2  A    between atoms: N_3  and  C_19
REMARK    3  A    between atoms: N_7  and  C_28
REMARK    4  A    between atoms: C_10  and  C_18
REMARK    5  A    between atoms: C_20  and  C_25
REMARK                            x       y       z     vdW  Elec       q    Type
REMARK                         _______ _______ _______ _____ _____    ______ ____
ROOT
ATOM      1  O   UNL     1      22.926   6.205  22.458  0.00  0.00    -0.336 OA
ATOM      4  N   UNL     1      21.724   5.157  20.886  0.00  0.00    -0.190 NA
ATOM      5  N   UNL     1      21.673   6.830  22.445  0.00  0.00    -0.056 NA
ATOM     18  C   UNL     1      22.872   5.233  21.510  0.00  0.00    +0.245 A 
ATOM     20  C   UNL     1      21.021   6.156  21.493  0.00  0.00    +0.204 A 
ENDROOT
BRANCH  20  25
ATOM      6  N   UNL     1      15.776   7.253  19.999  0.00  0.00    -0.313 N 
ATOM      7  N   UNL     1      13.049   7.572  19.215  0.00  0.00    -0.302 NA
ATOM      8  N   UNL     1      17.734   5.941  19.769  0.00  0.00    -0.240 NA
ATOM     21  C   UNL     1      15.366   6.948  18.623  0.00  0.00    +0.122 C 
ATOM     22  C   UNL     1      14.712   7.199  21.005  0.00  0.00    +0.122 C 
ATOM     23  C   UNL     1      14.128   7.763  18.239  0.00  0.00    +0.103 C 
ATOM     24  C   UNL     1      13.495   8.005  20.544  0.00  0.00    +0.103 C 
ATOM     25  C   UNL     1      19.668   6.457  21.124  0.00  0.00    +0.041 A 
ATOM     26  C   UNL     1      17.097   6.971  20.369  0.00  0.00    +0.121 A 
ATOM     27  C   UNL     1      18.980   7.510  21.718  0.00  0.00    +0.016 A 
ATOM     28  C   UNL     1      11.854   8.312  18.808  0.00  0.00    +0.105 C 
ATOM     29  C   UNL     1      17.669   7.778  21.339  0.00  0.00    +0.044 A 
ATOM     30  C   UNL     1      19.006   5.709  20.163  0.00  0.00    +0.124 A 
ENDBRANCH  20  25
BRANCH  18  10
ATOM      2  N   UNL     1      23.860   2.950  21.436  0.00  0.00    -0.288 NA
ATOM     10  C   UNL     1      24.123   4.399  21.326  0.00  0.00    +0.146 C 
ATOM     11  C   UNL     1      24.854   2.285  20.593  0.00  0.00    +0.085 C 
ATOM     14  C   UNL     1      24.755   4.577  19.933  0.00  0.00    +0.030 C 
ATOM     15  C   UNL     1      24.865   3.170  19.363  0.00  0.00    +0.017 C 
BRANCH   2   9
ATOM      3  N   UNL     1      23.007   0.529  24.824  0.00  0.00    -0.305 NA
ATOM      9  C   UNL     1      23.893   2.463  22.813  0.00  0.00    +0.060 C 
ATOM     12  C   UNL     1      24.421   1.026  22.854  0.00  0.00    +0.034 C 
ATOM     13  C   UNL     1      22.503   2.526  23.451  0.00  0.00    +0.034 C 
ATOM     16  C   UNL     1      24.370   0.463  24.276  0.00  0.00    +0.085 C 
ATOM     17  C   UNL     1      22.513   1.914  24.854  0.00  0.00    +0.085 C 
ATOM     19  C   UNL     1      22.965  -0.057  26.163  0.00  0.00    +0.104 C 
ENDBRANCH   2   9
ENDBRANCH  18  10
TORSDOF 3
ENDMDL
MODEL 6
REMARK VINA RESULT:      -6.8      8.685     10.839
REMARK  Name = 51136856
REMARK  5 active torsions:
REMARK  status: ('A' for Active; 'I' for Inactive)
REMARK    1  A    between atoms: N_2  and  C_9
REMARK    2  A    between atoms: N_3  and  C_19
REMARK    3  A    between atoms: N_7  and  C_28
REMARK    4  A    between atoms: C_10  and  C_18
REMARK    5  A    between atoms: C_20  and  C_25
REMARK                            x       y       z     vdW  Elec       q    Type
REMARK                         _______ _______ _______ _____ _____    ______ ____
ROOT
ATOM      1  O   UNL     1      12.401   7.259  18.436  0.00  0.00    -0.336 OA
ATOM      4  N   UNL     1      13.164   9.332  18.809  0.00  0.00    -0.190 NA
ATOM      5  N   UNL     1      12.744   7.780  17.182  0.00  0.00    -0.056 NA
ATOM     18  C   UNL     1      12.679   8.237  19.338  0.00  0.00    +0.245 A 
ATOM     20  C   UNL     1      13.185   9.004  17.485  0.00  0.00    +0.204 A 
ENDROOT
BRANCH  20  25
ATOM      6  N   UNL     1      14.923  12.554  13.570  0.00  0.00    -0.313 N 
ATOM      7  N   UNL     1      15.578  14.440  11.529  0.00  0.00    -0.302 NA
ATOM      8  N   UNL     1      13.315  11.000  14.351  0.00  0.00    -0.240 NA
ATOM     21  C   UNL     1      14.561  12.281  12.173  0.00  0.00    +0.122 C 
ATOM     22  C   UNL     1      15.119  13.965  13.911  0.00  0.00    +0.122 C 
ATOM     23  C   UNL     1      15.516  13.006  11.221  0.00  0.00    +0.103 C 
ATOM     24  C   UNL     1      16.055  14.636  12.903  0.00  0.00    +0.103 C 
ATOM     25  C   UNL     1      13.652   9.925  16.489  0.00  0.00    +0.041 A 
ATOM     26  C   UNL     1      14.479  11.658  14.551  0.00  0.00    +0.121 A 
ATOM     27  C   UNL     1      14.845  10.619  16.659  0.00  0.00    +0.016 A 
ATOM     28  C   UNL     1      16.450  15.130  10.579  0.00  0.00    +0.105 C 
ATOM     29  C   UNL     1      15.273  11.505  15.675  0.00  0.00    +0.044 A 
ATOM     30  C   UNL     1      12.930  10.148  15.328  0.00  0.00    +0.124 A 
ENDBRANCH  20  25
BRANCH  18  10
ATOM      2  N   UNL     1      11.289   8.724  21.344  0.00  0.00    -0.288 NA
ATOM     10  C   UNL     1      12.393   7.916  20.790  0.00  0.00    +0.146 C 
ATOM     11  C   UNL     1      10.662   7.910  22.385  0.00  0.00    +0.085 C 
ATOM     14  C   UNL     1      11.952   6.455  20.999  0.00  0.00    +0.030 C 
ATOM     15  C   UNL     1      10.620   6.543  21.732  0.00  0.00    +0.017 C 
BRANCH   2   9
ATOM      3  N   UNL     1      12.737  11.657  24.058  0.00  0.00    -0.305 NA
ATOM      9  C   UNL     1      11.725  10.023  21.850  0.00  0.00    +0.060 C 
ATOM     12  C   UNL     1      13.179   9.945  22.325  0.00  0.00    +0.034 C 
ATOM     13  C   UNL     1      10.826  10.496  22.996  0.00  0.00    +0.034 C 
ATOM     16  C   UNL     1      13.623  11.270  22.951  0.00  0.00    +0.085 C 
ATOM     17  C   UNL     1      11.347  11.802  23.601  0.00  0.00    +0.085 C 
ATOM     19  C   UNL     1      13.203  12.898  24.677  0.00  0.00    +0.104 C 
ENDBRANCH   2   9
ENDBRANCH  18  10
TORSDOF 3
ENDMDL
MODEL 7
REMARK VINA RESULT:      -6.8     27.955     31.870
REMARK  Name = 51136856
REMARK  5 active torsions:
REMARK  status: ('A' for Active; 'I' for Inactive)
REMARK    1  A    between atoms: N_2  and  C_9
REMARK    2  A    between atoms: N_3  and  C_19
REMARK    3  A    between atoms: N_7  and  C_28
REMARK    4  A    between atoms: C_10  and  C_18
REMARK    5  A    between atoms: C_20  and  C_25
REMARK                            x       y       z     vdW  Elec       q    Type
REMARK                         _______ _______ _______ _____ _____    ______ ____
ROOT
ATOM      1  O   UNL     1      -4.823 -10.652  17.361  0.00  0.00    -0.336 OA
ATOM      4  N   UNL     1      -5.797 -10.269  15.381  0.00  0.00    -0.190 NA
ATOM      5  N   UNL     1      -6.111 -10.183  17.645  0.00  0.00    -0.056 NA
ATOM     18  C   UNL     1      -4.719 -10.671  16.006  0.00  0.00    +0.245 A 
ATOM     20  C   UNL     1      -6.622  -9.980  16.428  0.00  0.00    +0.204 A 
ENDROOT
BRANCH  20  25
ATOM      6  N   UNL     1     -11.782  -8.096  15.543  0.00  0.00    -0.313 N 
ATOM      7  N   UNL     1     -14.464  -7.324  14.939  0.00  0.00    -0.302 NA
ATOM      8  N   UNL     1      -9.815  -9.127  14.721  0.00  0.00    -0.240 NA
ATOM     21  C   UNL     1     -12.119  -7.591  14.206  0.00  0.00    +0.122 C 
ATOM     22  C   UNL     1     -12.897  -8.659  16.309  0.00  0.00    +0.122 C 
ATOM     23  C   UNL     1     -13.334  -6.663  14.274  0.00  0.00    +0.103 C 
ATOM     24  C   UNL     1     -14.088  -7.697  16.308  0.00  0.00    +0.103 C 
ATOM     25  C   UNL     1      -7.954  -9.487  16.223  0.00  0.00    +0.041 A 
ATOM     26  C   UNL     1     -10.483  -8.572  15.757  0.00  0.00    +0.121 A 
ATOM     27  C   UNL     1      -8.673  -8.908  17.263  0.00  0.00    +0.016 A 
ATOM     28  C   UNL     1     -15.635  -6.448  14.949  0.00  0.00    +0.105 C 
ATOM     29  C   UNL     1      -9.962  -8.440  17.034  0.00  0.00    +0.044 A 
ATOM     30  C   UNL     1      -8.565  -9.572  14.981  0.00  0.00    +0.124 A 
ENDBRANCH  20  25
BRANCH  18  10
ATOM      2  N   UNL     1      -3.099 -10.548  14.122  0.00  0.00    -0.288 NA
ATOM     10  C   UNL     1      -3.400 -11.149  15.436  0.00  0.00    +0.146 C 
ATOM     11  C   UNL     1      -1.641 -10.487  14.020  0.00  0.00    +0.085 C 
ATOM     14  C   UNL     1      -2.199 -10.771  16.323  0.00  0.00    +0.030 C 
ATOM     15  C   UNL     1      -1.249 -10.015  15.406  0.00  0.00    +0.017 C 
BRANCH   2   9
ATOM      3  N   UNL     1      -3.642 -12.056  10.185  0.00  0.00    -0.305 NA
ATOM      9  C   UNL     1      -3.698 -11.277  13.006  0.00  0.00    +0.060 C 
ATOM     12  C   UNL     1      -2.714 -12.318  12.464  0.00  0.00    +0.034 C 
ATOM     13  C   UNL     1      -4.113 -10.320  11.885  0.00  0.00    +0.034 C 
ATOM     16  C   UNL     1      -3.285 -13.024  11.232  0.00  0.00    +0.085 C 
ATOM     17  C   UNL     1      -4.638 -11.090  10.671  0.00  0.00    +0.085 C 
ATOM     19  C   UNL     1      -4.139 -12.748   8.996  0.00  0.00    +0.104 C 
ENDBRANCH   2   9
ENDBRANCH  18  10
TORSDOF 3
ENDMDL
MODEL 8
REMARK VINA RESULT:      -6.7     16.669     20.418
REMARK  Name = 51136856
REMARK  5 active torsions:
REMARK  status: ('A' for Active; 'I' for Inactive)
REMARK    1  A    between atoms: N_2  and  C_9
REMARK    2  A    between atoms: N_3  and  C_19
REMARK    3  A    between atoms: N_7  and  C_28
REMARK    4  A    between atoms: C_10  and  C_18
REMARK    5  A    between atoms: C_20  and  C_25
REMARK                            x       y       z     vdW  Elec       q    Type
REMARK                         _______ _______ _______ _____ _____    ______ ____
ROOT
ATOM      1  O   UNL     1      11.253   3.341   2.779  0.00  0.00    -0.336 OA
ATOM      4  N   UNL     1      12.196   5.369   2.653  0.00  0.00    -0.190 NA
ATOM      5  N   UNL     1      10.594   4.136   3.724  0.00  0.00    -0.056 NA
ATOM     18  C   UNL     1      12.181   4.143   2.194  0.00  0.00    +0.245 A 
ATOM     20  C   UNL     1      11.205   5.316   3.590  0.00  0.00    +0.204 A 
ENDROOT
BRANCH  20  25
ATOM      6  N   UNL     1       9.909   9.746   6.695  0.00  0.00    -0.313 N 
ATOM      7  N   UNL     1       9.485  12.068   8.303  0.00  0.00    -0.302 NA
ATOM      8  N   UNL     1      11.353   7.928   6.233  0.00  0.00    -0.240 NA
ATOM     21  C   UNL     1      10.296   9.741   8.112  0.00  0.00    +0.122 C 
ATOM     22  C   UNL     1       9.817  11.067   6.067  0.00  0.00    +0.122 C 
ATOM     23  C   UNL     1       9.439  10.730   8.906  0.00  0.00    +0.103 C 
ATOM     24  C   UNL     1       8.977  12.014   6.927  0.00  0.00    +0.103 C 
ATOM     25  C   UNL     1      10.851   6.463   4.377  0.00  0.00    +0.041 A 
ATOM     26  C   UNL     1      10.241   8.630   5.919  0.00  0.00    +0.121 A 
ATOM     27  C   UNL     1       9.715   7.209   4.086  0.00  0.00    +0.016 A 
ATOM     28  C   UNL     1       8.707  13.016   9.101  0.00  0.00    +0.105 C 
ATOM     29  C   UNL     1       9.397   8.315   4.867  0.00  0.00    +0.044 A 
ATOM     30  C   UNL     1      11.631   6.860   5.452  0.00  0.00    +0.124 A 
ENDBRANCH  20  25
BRANCH  18  10
ATOM      2  N   UNL     1      12.923   4.203  -0.181  0.00  0.00    -0.288 NA
ATOM     10  C   UNL     1      13.039   3.510   1.118  0.00  0.00    +0.146 C 
ATOM     11  C   UNL     1      14.202   4.015  -0.865  0.00  0.00    +0.085 C 
ATOM     14  C   UNL     1      14.542   3.557   1.454  0.00  0.00    +0.030 C 
ATOM     15  C   UNL     1      15.195   4.237   0.259  0.00  0.00    +0.017 C 
BRANCH   2   9
ATOM      3  N   UNL     1      10.605   3.245  -3.612  0.00  0.00    -0.305 NA
ATOM      9  C   UNL     1      11.796   3.733  -0.984  0.00  0.00    +0.060 C 
ATOM     12  C   UNL     1      12.230   2.565  -1.873  0.00  0.00    +0.034 C 
ATOM     13  C   UNL     1      11.229   4.864  -1.847  0.00  0.00    +0.034 C 
ATOM     16  C   UNL     1      11.090   2.124  -2.794  0.00  0.00    +0.085 C 
ATOM     17  C   UNL     1      10.122   4.348  -2.769  0.00  0.00    +0.085 C 
ATOM     19  C   UNL     1       9.551   2.797  -4.521  0.00  0.00    +0.104 C 
ENDBRANCH   2   9
ENDBRANCH  18  10
TORSDOF 3
ENDMDL
MODEL 9
REMARK VINA RESULT:      -6.7     29.900     32.726
REMARK  Name = 51136856
REMARK  5 active torsions:
REMARK  status: ('A' for Active; 'I' for Inactive)
REMARK    1  A    between atoms: N_2  and  C_9
REMARK    2  A    between atoms: N_3  and  C_19
REMARK    3  A    between atoms: N_7  and  C_28
REMARK    4  A    between atoms: C_10  and  C_18
REMARK    5  A    between atoms: C_20  and  C_25
REMARK                            x       y       z     vdW  Elec       q    Type
REMARK                         _______ _______ _______ _____ _____    ______ ____
ROOT
ATOM      1  O   UNL     1      -9.322 -10.337  18.748  0.00  0.00    -0.336 OA
ATOM      4  N   UNL     1      -8.627  -9.768  16.696  0.00  0.00    -0.190 NA
ATOM      5  N   UNL     1     -10.294  -9.471  18.234  0.00  0.00    -0.056 NA
ATOM     18  C   UNL     1      -8.376 -10.458  17.780  0.00  0.00    +0.245 A 
ATOM     20  C   UNL     1      -9.813  -9.179  17.022  0.00  0.00    +0.204 A 
ENDROOT
BRANCH  20  25
ATOM      6  N   UNL     1     -12.457  -5.848  13.436  0.00  0.00    -0.313 N 
ATOM      7  N   UNL     1     -13.961  -4.329  11.542  0.00  0.00    -0.302 NA
ATOM      8  N   UNL     1     -11.609  -7.987  13.992  0.00  0.00    -0.240 NA
ATOM     21  C   UNL     1     -12.332  -6.130  12.001  0.00  0.00    +0.122 C 
ATOM     22  C   UNL     1     -13.698  -5.185  13.846  0.00  0.00    +0.122 C 
ATOM     23  C   UNL     1     -12.650  -4.879  11.178  0.00  0.00    +0.103 C 
ATOM     24  C   UNL     1     -13.974  -3.965  12.964  0.00  0.00    +0.103 C 
ATOM     25  C   UNL     1     -10.493  -8.301  16.113  0.00  0.00    +0.041 A 
ATOM     26  C   UNL     1     -11.792  -6.692  14.333  0.00  0.00    +0.121 A 
ATOM     27  C   UNL     1     -10.699  -6.963  16.428  0.00  0.00    +0.016 A 
ATOM     28  C   UNL     1     -14.278  -3.167  10.712  0.00  0.00    +0.105 C 
ATOM     29  C   UNL     1     -11.361  -6.136  15.526  0.00  0.00    +0.044 A 
ATOM     30  C   UNL     1     -10.963  -8.761  14.893  0.00  0.00    +0.124 A 
ENDBRANCH  20  25
BRANCH  18  10
ATOM      2  N   UNL     1      -5.900 -10.681  17.905  0.00  0.00    -0.288 NA
ATOM     10  C   UNL     1      -7.199 -11.357  18.095  0.00  0.00    +0.146 C 
ATOM     11  C   UNL     1      -4.969 -11.303  18.846  0.00  0.00    +0.085 C 
ATOM     14  C   UNL     1      -7.185 -11.824  19.563  0.00  0.00    +0.030 C 
ATOM     15  C   UNL     1      -5.817 -11.422  20.096  0.00  0.00    +0.017 C 
BRANCH   2   9
ATOM      3  N   UNL     1      -3.706 -12.005  14.514  0.00  0.00    -0.305 NA
ATOM      9  C   UNL     1      -5.415 -10.745  16.528  0.00  0.00    +0.060 C 
ATOM     12  C   UNL     1      -5.746 -12.107  15.913  0.00  0.00    +0.034 C 
ATOM     13  C   UNL     1      -3.905 -10.497  16.466  0.00  0.00    +0.034 C 
ATOM     16  C   UNL     1      -5.159 -12.230  14.504  0.00  0.00    +0.085 C 
ATOM     17  C   UNL     1      -3.378 -10.672  15.040  0.00  0.00    +0.085 C 
ATOM     19  C   UNL     1      -3.154 -12.175  13.171  0.00  0.00    +0.104 C 
ENDBRANCH   2   9
ENDBRANCH  18  10
TORSDOF 3
ENDMDL
MODEL 10
REMARK VINA RESULT:      -6.6     29.724     32.430
REMARK  Name = 51136856
REMARK  5 active torsions:
REMARK  status: ('A' for Active; 'I' for Inactive)
REMARK    1  A    between atoms: N_2  and  C_9
REMARK    2  A    between atoms: N_3  and  C_19
REMARK    3  A    between atoms: N_7  and  C_28
REMARK    4  A    between atoms: C_10  and  C_18
REMARK    5  A    between atoms: C_20  and  C_25
REMARK                            x       y       z     vdW  Elec       q    Type
REMARK                         _______ _______ _______ _____ _____    ______ ____
ROOT
ATOM      1  O   UNL     1      -3.660 -10.728  14.400  0.00  0.00    -0.336 OA
ATOM      4  N   UNL     1      -5.685  -9.942  13.855  0.00  0.00    -0.190 NA
ATOM      5  N   UNL     1      -3.676 -10.629  13.003  0.00  0.00    -0.056 NA
ATOM     18  C   UNL     1      -4.880 -10.305  14.822  0.00  0.00    +0.245 A 
ATOM     20  C   UNL     1      -4.902 -10.158  12.759  0.00  0.00    +0.204 A 
ENDROOT
BRANCH  20  25
ATOM      6  N   UNL     1      -6.766  -9.226   7.601  0.00  0.00    -0.313 N 
ATOM      7  N   UNL     1      -7.906  -8.906   5.002  0.00  0.00    -0.302 NA
ATOM      8  N   UNL     1      -6.385 -10.722   9.395  0.00  0.00    -0.240 NA
ATOM     21  C   UNL     1      -6.690 -10.320   6.624  0.00  0.00    +0.122 C 
ATOM     22  C   UNL     1      -7.847  -8.259   7.387  0.00  0.00    +0.122 C 
ATOM     23  C   UNL     1      -6.734  -9.768   5.197  0.00  0.00    +0.103 C 
ATOM     24  C   UNL     1      -7.855  -7.775   5.935  0.00  0.00    +0.103 C 
ATOM     25  C   UNL     1      -5.377  -9.894  11.431  0.00  0.00    +0.041 A 
ATOM     26  C   UNL     1      -6.299  -9.469   8.898  0.00  0.00    +0.121 A 
ATOM     27  C   UNL     1      -5.304  -8.618  10.884  0.00  0.00    +0.016 A 
ATOM     28  C   UNL     1      -7.967  -8.430   3.620  0.00  0.00    +0.105 C 
ATOM     29  C   UNL     1      -5.772  -8.393   9.593  0.00  0.00    +0.044 A 
ATOM     30  C   UNL     1      -5.921 -10.904  10.652  0.00  0.00    +0.124 A 
ENDBRANCH  20  25
BRANCH  18  10
ATOM      2  N   UNL     1      -6.136 -11.306  16.723  0.00  0.00    -0.288 NA
ATOM     10  C   UNL     1      -5.119 -10.316  16.317  0.00  0.00    +0.146 C 
ATOM     11  C   UNL     1      -5.787 -11.723  18.081  0.00  0.00    +0.085 C 
ATOM     14  C   UNL     1      -3.859 -10.699  17.116  0.00  0.00    +0.030 C 
ATOM     15  C   UNL     1      -4.282 -11.874  17.987  0.00  0.00    +0.017 C 
BRANCH   2   9
ATOM      3  N   UNL     1      -9.852  -9.654  17.959  0.00  0.00    -0.305 NA
ATOM      9  C   UNL     1      -7.502 -10.794  16.639  0.00  0.00    +0.060 C 
ATOM     12  C   UNL     1      -7.550  -9.336  17.104  0.00  0.00    +0.034 C 
ATOM     13  C   UNL     1      -8.459 -11.643  17.481  0.00  0.00    +0.034 C 
ATOM     16  C   UNL     1      -8.989  -8.813  17.118  0.00  0.00    +0.085 C 
ATOM     17  C   UNL     1      -9.867 -11.044  17.482  0.00  0.00    +0.085 C 
ATOM     19  C   UNL     1     -11.210  -9.113  18.002  0.00  0.00    +0.104 C 
ENDBRANCH   2   9
ENDBRANCH  18  10
TORSDOF 3
ENDMDL
