MODEL 1
REMARK VINA RESULT:      -8.1      0.000      0.000
REMARK  Name = 26741937
REMARK  8 active torsions:
REMARK  status: ('A' for Active; 'I' for Inactive)
REMARK    1  A    between atoms: O_1  and  C_9
REMARK    2  A    between atoms: O_4  and  C_23
REMARK    3  A    between atoms: O_4  and  C_29
REMARK    4  A    between atoms: N_6  and  C_8
REMARK    5  A    between atoms: N_7  and  C_17
REMARK    6  A    between atoms: C_15  and  C_16
REMARK    7  A    between atoms: C_17  and  C_20
REMARK    8  A    between atoms: C_29  and  C_30
REMARK                            x       y       z     vdW  Elec       q    Type
REMARK                         _______ _______ _______ _____ _____    ______ ____
ROOT
ATOM      2  O   UNL     1      14.699  10.039  21.792  0.00  0.00    -0.253 OA
ATOM      5  N   UNL     1      12.409   9.757  21.532  0.00  0.00    -0.284 N 
ATOM      7  N   UNL     1      13.306  10.789  23.459  0.00  0.00    -0.295 N 
ATOM      8  C   UNL     1      12.762   7.515  20.465  0.00  0.00    +0.119 C 
ATOM      9  C   UNL     1      11.975   6.858  21.614  0.00  0.00    +0.136 C 
ATOM     10  C   UNL     1      10.555   7.391  21.840  0.00  0.00    +0.035 C 
ATOM     11  C   UNL     1      12.574   9.027  20.275  0.00  0.00    +0.134 C 
ATOM     12  C   UNL     1      10.512   8.657  22.701  0.00  0.00    +0.022 C 
ATOM     13  C   UNL     1      11.025   9.904  21.995  0.00  0.00    +0.109 C 
ATOM     14  C   UNL     1      13.553  10.189  22.229  0.00  0.00    +0.303 C 
ATOM     38  H   UNL     1      12.377  10.796  23.857  0.00  0.00    +0.151 HD
ENDROOT
BRANCH   8   6
ATOM      3  O   UNL     1      14.670   7.082  18.362  0.00  0.00    -0.270 OA
ATOM      6  N   UNL     1      14.172   7.208  20.624  0.00  0.00    -0.305 N 
ATOM     15  C   UNL     1      15.011   7.015  19.540  0.00  0.00    +0.244 C 
ATOM     36  H   UNL     1      14.522   7.127  21.571  0.00  0.00    +0.149 HD
BRANCH  15  16
ATOM     16  C   UNL     1      16.421   6.681  19.870  0.00  0.00    +0.037 A 
ATOM     18  C   UNL     1      17.165   5.873  19.011  0.00  0.00    +0.016 A 
ATOM     19  C   UNL     1      16.999   7.174  21.041  0.00  0.00    +0.016 A 
ATOM     21  C   UNL     1      18.488   5.558  19.321  0.00  0.00    +0.046 A 
ATOM     22  C   UNL     1      18.322   6.857  21.352  0.00  0.00    +0.046 A 
ATOM     23  C   UNL     1      19.066   6.049  20.491  0.00  0.00    +0.121 A 
BRANCH  23   4
ATOM      4  O   UNL     1      20.357   5.742  20.794  0.00  0.00    -0.487 OA
BRANCH   4  29
ATOM     29  C   UNL     1      20.796   4.416  20.495  0.00  0.00    +0.264 C 
BRANCH  29  30
ATOM     30  C   UNL     1      21.822   4.000  21.507  0.00  0.00    -0.010 A 
ATOM     31  C   UNL     1      22.681   2.936  21.234  0.00  0.00    +0.007 A 
ATOM     32  C   UNL     1      21.917   4.678  22.722  0.00  0.00    +0.007 A 
ATOM     33  C   UNL     1      23.634   2.549  22.175  0.00  0.00    +0.000 A 
ATOM     34  C   UNL     1      22.870   4.292  23.664  0.00  0.00    +0.000 A 
ATOM     35  C   UNL     1      23.729   3.227  23.390  0.00  0.00    +0.000 A 
ENDBRANCH  29  30
ENDBRANCH   4  29
ENDBRANCH  23   4
ENDBRANCH  15  16
ENDBRANCH   8   6
BRANCH   9   1
ATOM      1  O   UNL     1      11.881   5.462  21.301  0.00  0.00    -0.390 OA
ATOM     37  H   UNL     1      11.265   5.059  21.937  0.00  0.00    +0.210 HD
ENDBRANCH   9   1
BRANCH   7  17
ATOM     17  C   UNL     1      14.372  11.275  24.306  0.00  0.00    +0.141 C 
BRANCH  17  20
ATOM     20  C   UNL     1      13.912  12.383  25.209  0.00  0.00    -0.030 A 
ATOM     24  C   UNL     1      12.602  12.854  25.122  0.00  0.00    +0.005 A 
ATOM     25  C   UNL     1      14.794  12.941  26.134  0.00  0.00    +0.005 A 
ATOM     26  C   UNL     1      12.174  13.884  25.961  0.00  0.00    +0.000 A 
ATOM     27  C   UNL     1      14.367  13.970  26.972  0.00  0.00    +0.000 A 
ATOM     28  C   UNL     1      13.057  14.442  26.886  0.00  0.00    +0.000 A 
ENDBRANCH  17  20
ENDBRANCH   7  17
TORSDOF 8
ENDMDL
MODEL 2
REMARK VINA RESULT:      -7.8     27.828     32.186
REMARK  Name = 26741937
REMARK  8 active torsions:
REMARK  status: ('A' for Active; 'I' for Inactive)
REMARK    1  A    between atoms: O_1  and  C_9
REMARK    2  A    between atoms: O_4  and  C_23
REMARK    3  A    between atoms: O_4  and  C_29
REMARK    4  A    between atoms: N_6  and  C_8
REMARK    5  A    between atoms: N_7  and  C_17
REMARK    6  A    between atoms: C_15  and  C_16
REMARK    7  A    between atoms: C_17  and  C_20
REMARK    8  A    between atoms: C_29  and  C_30
REMARK                            x       y       z     vdW  Elec       q    Type
REMARK                         _______ _______ _______ _____ _____    ______ ____
ROOT
ATOM      2  O   UNL     1     -16.563   4.335  26.479  0.00  0.00    -0.253 OA
ATOM      5  N   UNL     1     -18.282   2.776  26.544  0.00  0.00    -0.284 N 
ATOM      7  N   UNL     1     -16.587   2.802  28.190  0.00  0.00    -0.295 N 
ATOM      8  C   UNL     1     -18.243   2.564  24.046  0.00  0.00    +0.119 C 
ATOM      9  C   UNL     1     -17.870   1.077  24.190  0.00  0.00    +0.136 C 
ATOM     10  C   UNL     1     -18.836   0.225  25.022  0.00  0.00    +0.035 C 
ATOM     11  C   UNL     1     -18.848   3.247  25.281  0.00  0.00    +0.134 C 
ATOM     12  C   UNL     1     -18.574   0.308  26.529  0.00  0.00    +0.022 C 
ATOM     13  C   UNL     1     -18.974   1.637  27.155  0.00  0.00    +0.109 C 
ATOM     14  C   UNL     1     -17.107   3.375  27.035  0.00  0.00    +0.303 C 
ATOM     38  H   UNL     1     -16.972   1.945  28.565  0.00  0.00    +0.151 HD
ENDROOT
BRANCH   8   6
ATOM      3  O   UNL     1     -18.195   4.681  22.105  0.00  0.00    -0.270 OA
ATOM      6  N   UNL     1     -17.076   3.300  23.594  0.00  0.00    -0.305 N 
ATOM     15  C   UNL     1     -17.160   4.307  22.649  0.00  0.00    +0.244 C 
ATOM     36  H   UNL     1     -16.182   3.038  23.995  0.00  0.00    +0.149 HD
BRANCH  15  16
ATOM     16  C   UNL     1     -15.871   4.946  22.273  0.00  0.00    +0.037 A 
ATOM     18  C   UNL     1     -15.845   5.940  21.296  0.00  0.00    +0.016 A 
ATOM     19  C   UNL     1     -14.688   4.548  22.897  0.00  0.00    +0.016 A 
ATOM     21  C   UNL     1     -14.635   6.538  20.942  0.00  0.00    +0.046 A 
ATOM     22  C   UNL     1     -13.478   5.145  22.542  0.00  0.00    +0.046 A 
ATOM     23  C   UNL     1     -13.453   6.141  21.565  0.00  0.00    +0.121 A 
BRANCH  23   4
ATOM      4  O   UNL     1     -12.272   6.724  21.219  0.00  0.00    -0.487 OA
BRANCH   4  29
ATOM     29  C   UNL     1     -12.275   8.141  21.043  0.00  0.00    +0.264 C 
BRANCH  29  30
ATOM     30  C   UNL     1     -11.519   8.480  19.792  0.00  0.00    -0.010 A 
ATOM     31  C   UNL     1     -10.817   9.681  19.704  0.00  0.00    +0.007 A 
ATOM     32  C   UNL     1     -11.520   7.593  18.716  0.00  0.00    +0.007 A 
ATOM     33  C   UNL     1     -10.115   9.997  18.541  0.00  0.00    +0.000 A 
ATOM     34  C   UNL     1     -10.818   7.907  17.552  0.00  0.00    +0.000 A 
ATOM     35  C   UNL     1     -10.116   9.110  17.465  0.00  0.00    +0.000 A 
ENDBRANCH  29  30
ENDBRANCH   4  29
ENDBRANCH  23   4
ENDBRANCH  15  16
ENDBRANCH   8   6
BRANCH   9   1
ATOM      1  O   UNL     1     -17.829   0.533  22.864  0.00  0.00    -0.390 OA
ATOM     37  H   UNL     1     -17.643  -0.418  22.941  0.00  0.00    +0.210 HD
ENDBRANCH   9   1
BRANCH   7  17
ATOM     17  C   UNL     1     -15.377   3.289  28.815  0.00  0.00    +0.141 C 
BRANCH  17  20
ATOM     20  C   UNL     1     -15.127   2.633  30.142  0.00  0.00    -0.030 A 
ATOM     24  C   UNL     1     -15.175   1.243  30.253  0.00  0.00    +0.005 A 
ATOM     25  C   UNL     1     -14.848   3.413  31.264  0.00  0.00    +0.005 A 
ATOM     26  C   UNL     1     -14.941   0.634  31.487  0.00  0.00    +0.000 A 
ATOM     27  C   UNL     1     -14.615   2.804  32.496  0.00  0.00    +0.000 A 
ATOM     28  C   UNL     1     -14.662   1.414  32.608  0.00  0.00    +0.000 A 
ENDBRANCH  17  20
ENDBRANCH   7  17
TORSDOF 8
ENDMDL
MODEL 3
REMARK VINA RESULT:      -7.8     29.364     32.111
REMARK  Name = 26741937
REMARK  8 active torsions:
REMARK  status: ('A' for Active; 'I' for Inactive)
REMARK    1  A    between atoms: O_1  and  C_9
REMARK    2  A    between atoms: O_4  and  C_23
REMARK    3  A    between atoms: O_4  and  C_29
REMARK    4  A    between atoms: N_6  and  C_8
REMARK    5  A    between atoms: N_7  and  C_17
REMARK    6  A    between atoms: C_15  and  C_16
REMARK    7  A    between atoms: C_17  and  C_20
REMARK    8  A    between atoms: C_29  and  C_30
REMARK                            x       y       z     vdW  Elec       q    Type
REMARK                         _______ _______ _______ _____ _____    ______ ____
ROOT
ATOM      2  O   UNL     1     -16.575   5.889  30.325  0.00  0.00    -0.253 OA
ATOM      5  N   UNL     1     -15.845   4.402  31.950  0.00  0.00    -0.284 N 
ATOM      7  N   UNL     1     -15.394   6.715  32.114  0.00  0.00    -0.295 N 
ATOM      8  C   UNL     1     -15.337   2.675  30.203  0.00  0.00    +0.119 C 
ATOM      9  C   UNL     1     -13.853   2.716  30.613  0.00  0.00    +0.136 C 
ATOM     10  C   UNL     1     -13.560   2.429  32.090  0.00  0.00    +0.035 C 
ATOM     11  C   UNL     1     -16.346   3.244  31.211  0.00  0.00    +0.134 C 
ATOM     12  C   UNL     1     -13.712   3.660  32.989  0.00  0.00    +0.022 C 
ATOM     13  C   UNL     1     -15.156   4.093  33.207  0.00  0.00    +0.109 C 
ATOM     14  C   UNL     1     -15.984   5.685  31.390  0.00  0.00    +0.303 C 
ATOM     38  H   UNL     1     -14.812   6.519  32.918  0.00  0.00    +0.151 HD
ENDROOT
BRANCH   8   6
ATOM      3  O   UNL     1     -17.212   1.997  28.136  0.00  0.00    -0.270 OA
ATOM      6  N   UNL     1     -15.490   3.338  28.921  0.00  0.00    -0.305 N 
ATOM     15  C   UNL     1     -16.429   2.932  27.989  0.00  0.00    +0.244 C 
ATOM     36  H   UNL     1     -14.868   4.114  28.726  0.00  0.00    +0.149 HD
BRANCH  15  16
ATOM     16  C   UNL     1     -16.441   3.696  26.714  0.00  0.00    +0.037 A 
ATOM     18  C   UNL     1     -15.753   3.209  25.603  0.00  0.00    +0.016 A 
ATOM     19  C   UNL     1     -17.141   4.900  26.630  0.00  0.00    +0.016 A 
ATOM     21  C   UNL     1     -15.764   3.927  24.407  0.00  0.00    +0.046 A 
ATOM     22  C   UNL     1     -17.151   5.618  25.434  0.00  0.00    +0.046 A 
ATOM     23  C   UNL     1     -16.462   5.131  24.323  0.00  0.00    +0.121 A 
BRANCH  23   4
ATOM      4  O   UNL     1     -16.473   5.832  23.156  0.00  0.00    -0.487 OA
BRANCH   4  29
ATOM     29  C   UNL     1     -15.962   5.172  21.998  0.00  0.00    +0.264 C 
BRANCH  29  30
ATOM     30  C   UNL     1     -14.740   5.899  21.519  0.00  0.00    -0.010 A 
ATOM     31  C   UNL     1     -14.872   7.032  20.717  0.00  0.00    +0.007 A 
ATOM     32  C   UNL     1     -13.472   5.441  21.875  0.00  0.00    +0.007 A 
ATOM     33  C   UNL     1     -13.736   7.708  20.272  0.00  0.00    +0.000 A 
ATOM     34  C   UNL     1     -12.336   6.115  21.430  0.00  0.00    +0.000 A 
ATOM     35  C   UNL     1     -12.468   7.250  20.628  0.00  0.00    +0.000 A 
ENDBRANCH  29  30
ENDBRANCH   4  29
ENDBRANCH  23   4
ENDBRANCH  15  16
ENDBRANCH   8   6
BRANCH   9   1
ATOM      1  O   UNL     1     -13.183   1.722  29.826  0.00  0.00    -0.390 OA
ATOM     37  H   UNL     1     -12.799   1.071  30.439  0.00  0.00    +0.210 HD
ENDBRANCH   9   1
BRANCH   7  17
ATOM     17  C   UNL     1     -15.433   8.091  31.670  0.00  0.00    +0.141 C 
BRANCH  17  20
ATOM     20  C   UNL     1     -14.059   8.685  31.558  0.00  0.00    -0.030 A 
ATOM     24  C   UNL     1     -13.847   9.804  30.751  0.00  0.00    +0.005 A 
ATOM     25  C   UNL     1     -12.995   8.118  32.258  0.00  0.00    +0.005 A 
ATOM     26  C   UNL     1     -12.570  10.356  30.648  0.00  0.00    +0.000 A 
ATOM     27  C   UNL     1     -11.719   8.669  32.154  0.00  0.00    +0.000 A 
ATOM     28  C   UNL     1     -11.506   9.788  31.349  0.00  0.00    +0.000 A 
ENDBRANCH  17  20
ENDBRANCH   7  17
TORSDOF 8
ENDMDL
MODEL 4
REMARK VINA RESULT:      -7.7     28.933     32.128
REMARK  Name = 26741937
REMARK  8 active torsions:
REMARK  status: ('A' for Active; 'I' for Inactive)
REMARK    1  A    between atoms: O_1  and  C_9
REMARK    2  A    between atoms: O_4  and  C_23
REMARK    3  A    between atoms: O_4  and  C_29
REMARK    4  A    between atoms: N_6  and  C_8
REMARK    5  A    between atoms: N_7  and  C_17
REMARK    6  A    between atoms: C_15  and  C_16
REMARK    7  A    between atoms: C_17  and  C_20
REMARK    8  A    between atoms: C_29  and  C_30
REMARK                            x       y       z     vdW  Elec       q    Type
REMARK                         _______ _______ _______ _____ _____    ______ ____
ROOT
ATOM      2  O   UNL     1      -7.815 -10.038  12.379  0.00  0.00    -0.253 OA
ATOM      5  N   UNL     1      -5.793 -11.017  11.796  0.00  0.00    -0.284 N 
ATOM      7  N   UNL     1      -6.179 -10.212  13.983  0.00  0.00    -0.295 N 
ATOM      8  C   UNL     1      -5.874  -9.939   9.532  0.00  0.00    +0.119 C 
ATOM      9  C   UNL     1      -4.575  -9.178   9.862  0.00  0.00    +0.136 C 
ATOM     10  C   UNL     1      -3.377 -10.047  10.261  0.00  0.00    +0.035 C 
ATOM     11  C   UNL     1      -6.192 -11.168  10.397  0.00  0.00    +0.134 C 
ATOM     12  C   UNL     1      -3.376 -10.437  11.742  0.00  0.00    +0.022 C 
ATOM     13  C   UNL     1      -4.433 -11.469  12.112  0.00  0.00    +0.109 C 
ATOM     14  C   UNL     1      -6.678 -10.400  12.699  0.00  0.00    +0.303 C 
ATOM     38  H   UNL     1      -5.210 -10.402  14.198  0.00  0.00    +0.151 HD
ENDROOT
BRANCH   8   6
ATOM      3  O   UNL     1      -7.142  -8.701   7.273  0.00  0.00    -0.270 OA
ATOM      6  N   UNL     1      -6.986  -9.007   9.566  0.00  0.00    -0.305 N 
ATOM     15  C   UNL     1      -7.528  -8.464   8.414  0.00  0.00    +0.244 C 
ATOM     36  H   UNL     1      -7.351  -8.758  10.478  0.00  0.00    +0.149 HD
BRANCH  15  16
ATOM     16  C   UNL     1      -8.645  -7.506   8.619  0.00  0.00    +0.037 A 
ATOM     18  C   UNL     1      -9.852  -7.947   9.161  0.00  0.00    +0.016 A 
ATOM     19  C   UNL     1      -8.486  -6.164   8.267  0.00  0.00    +0.016 A 
ATOM     21  C   UNL     1     -10.901  -7.048   9.352  0.00  0.00    +0.046 A 
ATOM     22  C   UNL     1      -9.536  -5.265   8.457  0.00  0.00    +0.046 A 
ATOM     23  C   UNL     1     -10.743  -5.708   8.999  0.00  0.00    +0.121 A 
BRANCH  23   4
ATOM      4  O   UNL     1     -11.767  -4.830   9.185  0.00  0.00    -0.487 OA
BRANCH   4  29
ATOM     29  C   UNL     1     -11.534  -3.740  10.078  0.00  0.00    +0.264 C 
BRANCH  29  30
ATOM     30  C   UNL     1     -12.633  -3.700  11.098  0.00  0.00    -0.010 A 
ATOM     31  C   UNL     1     -12.413  -4.197  12.382  0.00  0.00    +0.007 A 
ATOM     32  C   UNL     1     -13.876  -3.165  10.761  0.00  0.00    +0.007 A 
ATOM     33  C   UNL     1     -13.436  -4.160  13.330  0.00  0.00    +0.000 A 
ATOM     34  C   UNL     1     -14.899  -3.127  11.709  0.00  0.00    +0.000 A 
ATOM     35  C   UNL     1     -14.679  -3.625  12.993  0.00  0.00    +0.000 A 
ENDBRANCH  29  30
ENDBRANCH   4  29
ENDBRANCH  23   4
ENDBRANCH  15  16
ENDBRANCH   8   6
BRANCH   9   1
ATOM      1  O   UNL     1      -4.219  -8.444   8.683  0.00  0.00    -0.390 OA
ATOM     37  H   UNL     1      -3.250  -8.361   8.670  0.00  0.00    +0.210 HD
ENDBRANCH   9   1
BRANCH   7  17
ATOM     17  C   UNL     1      -6.957  -9.581  15.026  0.00  0.00    +0.141 C 
BRANCH  17  20
ATOM     20  C   UNL     1      -6.484  -9.975  16.396  0.00  0.00    -0.030 A 
ATOM     24  C   UNL     1      -7.372  -9.957  17.472  0.00  0.00    +0.005 A 
ATOM     25  C   UNL     1      -5.158 -10.358  16.593  0.00  0.00    +0.005 A 
ATOM     26  C   UNL     1      -6.932 -10.323  18.745  0.00  0.00    +0.000 A 
ATOM     27  C   UNL     1      -4.719 -10.724  17.864  0.00  0.00    +0.000 A 
ATOM     28  C   UNL     1      -5.605 -10.707  18.941  0.00  0.00    +0.000 A 
ENDBRANCH  17  20
ENDBRANCH   7  17
TORSDOF 8
ENDMDL
MODEL 5
REMARK VINA RESULT:      -7.5     28.740     31.211
REMARK  Name = 26741937
REMARK  8 active torsions:
REMARK  status: ('A' for Active; 'I' for Inactive)
REMARK    1  A    between atoms: O_1  and  C_9
REMARK    2  A    between atoms: O_4  and  C_23
REMARK    3  A    between atoms: O_4  and  C_29
REMARK    4  A    between atoms: N_6  and  C_8
REMARK    5  A    between atoms: N_7  and  C_17
REMARK    6  A    between atoms: C_15  and  C_16
REMARK    7  A    between atoms: C_17  and  C_20
REMARK    8  A    between atoms: C_29  and  C_30
REMARK                            x       y       z     vdW  Elec       q    Type
REMARK                         _______ _______ _______ _____ _____    ______ ____
ROOT
ATOM      2  O   UNL     1      -8.028 -10.851  15.951  0.00  0.00    -0.253 OA
ATOM      5  N   UNL     1      -6.910 -11.918  17.683  0.00  0.00    -0.284 N 
ATOM      7  N   UNL     1      -8.410 -10.142  18.103  0.00  0.00    -0.295 N 
ATOM      8  C   UNL     1      -4.840 -12.120  16.281  0.00  0.00    +0.119 C 
ATOM      9  C   UNL     1      -4.080 -11.251  17.301  0.00  0.00    +0.136 C 
ATOM     10  C   UNL     1      -4.086 -11.760  18.747  0.00  0.00    +0.035 C 
ATOM     11  C   UNL     1      -6.149 -12.762  16.762  0.00  0.00    +0.134 C 
ATOM     12  C   UNL     1      -5.340 -11.357  19.527  0.00  0.00    +0.022 C 
ATOM     13  C   UNL     1      -6.599 -12.103  19.105  0.00  0.00    +0.109 C 
ATOM     14  C   UNL     1      -7.803 -10.964  17.161  0.00  0.00    +0.303 C 
ATOM     38  H   UNL     1      -8.127 -10.165  19.073  0.00  0.00    +0.151 HD
ENDROOT
BRANCH   8   6
ATOM      3  O   UNL     1      -3.158 -11.971  13.958  0.00  0.00    -0.270 OA
ATOM      6  N   UNL     1      -5.083 -11.336  15.084  0.00  0.00    -0.305 N 
ATOM     15  C   UNL     1      -4.205 -11.333  14.014  0.00  0.00    +0.244 C 
ATOM     36  H   UNL     1      -5.927 -10.775  15.064  0.00  0.00    +0.149 HD
BRANCH  15  16
ATOM     16  C   UNL     1      -4.583 -10.457  12.874  0.00  0.00    +0.037 A 
ATOM     18  C   UNL     1      -5.811  -9.796  12.880  0.00  0.00    +0.016 A 
ATOM     19  C   UNL     1      -3.710 -10.299  11.797  0.00  0.00    +0.016 A 
ATOM     21  C   UNL     1      -6.167  -8.976  11.809  0.00  0.00    +0.046 A 
ATOM     22  C   UNL     1      -4.066  -9.479  10.726  0.00  0.00    +0.046 A 
ATOM     23  C   UNL     1      -5.295  -8.818  10.733  0.00  0.00    +0.121 A 
BRANCH  23   4
ATOM      4  O   UNL     1      -5.642  -8.017   9.688  0.00  0.00    -0.487 OA
BRANCH   4  29
ATOM     29  C   UNL     1      -6.546  -8.561   8.726  0.00  0.00    +0.264 C 
BRANCH  29  30
ATOM     30  C   UNL     1      -7.825  -7.777   8.759  0.00  0.00    -0.010 A 
ATOM     31  C   UNL     1      -8.967  -8.327   9.340  0.00  0.00    +0.007 A 
ATOM     32  C   UNL     1      -7.871  -6.497   8.207  0.00  0.00    +0.007 A 
ATOM     33  C   UNL     1     -10.155  -7.598   9.369  0.00  0.00    +0.000 A 
ATOM     34  C   UNL     1      -9.060  -5.767   8.236  0.00  0.00    +0.000 A 
ATOM     35  C   UNL     1     -10.202  -6.318   8.817  0.00  0.00    +0.000 A 
ENDBRANCH  29  30
ENDBRANCH   4  29
ENDBRANCH  23   4
ENDBRANCH  15  16
ENDBRANCH   8   6
BRANCH   9   1
ATOM      1  O   UNL     1      -2.718 -11.192  16.856  0.00  0.00    -0.390 OA
ATOM     37  H   UNL     1      -2.685 -11.573  15.961  0.00  0.00    +0.210 HD
ENDBRANCH   9   1
BRANCH   7  17
ATOM     17  C   UNL     1      -9.343  -9.102  17.731  0.00  0.00    +0.141 C 
BRANCH  17  20
ATOM     20  C   UNL     1     -10.728  -9.381  18.239  0.00  0.00    -0.030 A 
ATOM     24  C   UNL     1     -10.907  -9.948  19.501  0.00  0.00    +0.005 A 
ATOM     25  C   UNL     1     -11.836  -9.074  17.449  0.00  0.00    +0.005 A 
ATOM     26  C   UNL     1     -12.194 -10.207  19.973  0.00  0.00    +0.000 A 
ATOM     27  C   UNL     1     -13.122  -9.333  17.921  0.00  0.00    +0.000 A 
ATOM     28  C   UNL     1     -13.302  -9.900  19.183  0.00  0.00    +0.000 A 
ENDBRANCH  17  20
ENDBRANCH   7  17
TORSDOF 8
ENDMDL
MODEL 6
REMARK VINA RESULT:      -7.5     15.983     18.729
REMARK  Name = 26741937
REMARK  8 active torsions:
REMARK  status: ('A' for Active; 'I' for Inactive)
REMARK    1  A    between atoms: O_1  and  C_9
REMARK    2  A    between atoms: O_4  and  C_23
REMARK    3  A    between atoms: O_4  and  C_29
REMARK    4  A    between atoms: N_6  and  C_8
REMARK    5  A    between atoms: N_7  and  C_17
REMARK    6  A    between atoms: C_15  and  C_16
REMARK    7  A    between atoms: C_17  and  C_20
REMARK    8  A    between atoms: C_29  and  C_30
REMARK                            x       y       z     vdW  Elec       q    Type
REMARK                         _______ _______ _______ _____ _____    ______ ____
ROOT
ATOM      2  O   UNL     1      12.730   7.631   3.463  0.00  0.00    -0.253 OA
ATOM      5  N   UNL     1      12.088   5.937   2.012  0.00  0.00    -0.284 N 
ATOM      7  N   UNL     1      10.923   6.329   4.030  0.00  0.00    -0.295 N 
ATOM      8  C   UNL     1      14.485   5.418   1.488  0.00  0.00    +0.119 C 
ATOM      9  C   UNL     1      14.291   4.002   2.063  0.00  0.00    +0.136 C 
ATOM     10  C   UNL     1      13.166   3.175   1.431  0.00  0.00    +0.035 C 
ATOM     11  C   UNL     1      13.213   6.190   1.112  0.00  0.00    +0.134 C 
ATOM     12  C   UNL     1      11.787   3.470   2.027  0.00  0.00    +0.022 C 
ATOM     13  C   UNL     1      11.215   4.823   1.626  0.00  0.00    +0.109 C 
ATOM     14  C   UNL     1      11.965   6.702   3.187  0.00  0.00    +0.303 C 
ATOM     38  H   UNL     1      10.382   5.494   3.850  0.00  0.00    +0.151 HD
ENDROOT
BRANCH   8   6
ATOM      3  O   UNL     1      15.896   7.853   0.914  0.00  0.00    -0.270 OA
ATOM      6  N   UNL     1      15.282   6.198   2.418  0.00  0.00    -0.305 N 
ATOM     15  C   UNL     1      15.926   7.363   2.040  0.00  0.00    +0.244 C 
ATOM     36  H   UNL     1      15.359   5.847   3.366  0.00  0.00    +0.149 HD
BRANCH  15  16
ATOM     16  C   UNL     1      16.724   8.031   3.101  0.00  0.00    +0.037 A 
ATOM     18  C   UNL     1      16.380   7.862   4.442  0.00  0.00    +0.016 A 
ATOM     19  C   UNL     1      17.816   8.827   2.755  0.00  0.00    +0.016 A 
ATOM     21  C   UNL     1      17.128   8.490   5.438  0.00  0.00    +0.046 A 
ATOM     22  C   UNL     1      18.563   9.456   3.751  0.00  0.00    +0.046 A 
ATOM     23  C   UNL     1      18.219   9.286   5.092  0.00  0.00    +0.121 A 
BRANCH  23   4
ATOM      4  O   UNL     1      18.949   9.899   6.065  0.00  0.00    -0.487 OA
BRANCH   4  29
ATOM     29  C   UNL     1      19.750   9.063   6.899  0.00  0.00    +0.264 C 
BRANCH  29  30
ATOM     30  C   UNL     1      20.974   8.643   6.140  0.00  0.00    -0.010 A 
ATOM     31  C   UNL     1      22.060   9.511   6.030  0.00  0.00    +0.007 A 
ATOM     32  C   UNL     1      21.025   7.384   5.543  0.00  0.00    +0.007 A 
ATOM     33  C   UNL     1      23.198   9.120   5.324  0.00  0.00    +0.000 A 
ATOM     34  C   UNL     1      22.162   6.992   4.836  0.00  0.00    +0.000 A 
ATOM     35  C   UNL     1      23.249   7.861   4.727  0.00  0.00    +0.000 A 
ENDBRANCH  29  30
ENDBRANCH   4  29
ENDBRANCH  23   4
ENDBRANCH  15  16
ENDBRANCH   8   6
BRANCH   9   1
ATOM      1  O   UNL     1      15.526   3.303   1.857  0.00  0.00    -0.390 OA
ATOM     37  H   UNL     1      15.309   2.391   1.600  0.00  0.00    +0.210 HD
ENDBRANCH   9   1
BRANCH   7  17
ATOM     17  C   UNL     1      10.668   7.003   5.283  0.00  0.00    +0.141 C 
BRANCH  17  20
ATOM     20  C   UNL     1      10.340   6.037   6.384  0.00  0.00    -0.030 A 
ATOM     24  C   UNL     1      10.413   6.446   7.716  0.00  0.00    +0.005 A 
ATOM     25  C   UNL     1       9.963   4.730   6.076  0.00  0.00    +0.005 A 
ATOM     26  C   UNL     1      10.108   5.548   8.739  0.00  0.00    +0.000 A 
ATOM     27  C   UNL     1       9.659   3.832   7.099  0.00  0.00    +0.000 A 
ATOM     28  C   UNL     1       9.731   4.241   8.430  0.00  0.00    +0.000 A 
ENDBRANCH  17  20
ENDBRANCH   7  17
TORSDOF 8
ENDMDL
MODEL 7
REMARK VINA RESULT:      -7.4     28.676     30.853
REMARK  Name = 26741937
REMARK  8 active torsions:
REMARK  status: ('A' for Active; 'I' for Inactive)
REMARK    1  A    between atoms: O_1  and  C_9
REMARK    2  A    between atoms: O_4  and  C_23
REMARK    3  A    between atoms: O_4  and  C_29
REMARK    4  A    between atoms: N_6  and  C_8
REMARK    5  A    between atoms: N_7  and  C_17
REMARK    6  A    between atoms: C_15  and  C_16
REMARK    7  A    between atoms: C_17  and  C_20
REMARK    8  A    between atoms: C_29  and  C_30
REMARK                            x       y       z     vdW  Elec       q    Type
REMARK                         _______ _______ _______ _____ _____    ______ ____
ROOT
ATOM      2  O   UNL     1      -7.803 -10.643  15.848  0.00  0.00    -0.253 OA
ATOM      5  N   UNL     1      -6.994 -11.625  17.789  0.00  0.00    -0.284 N 
ATOM      7  N   UNL     1      -8.320  -9.671  17.865  0.00  0.00    -0.295 N 
ATOM      8  C   UNL     1      -4.828 -12.185  16.655  0.00  0.00    +0.119 C 
ATOM      9  C   UNL     1      -4.083 -11.293  17.667  0.00  0.00    +0.136 C 
ATOM     10  C   UNL     1      -4.294 -11.641  19.145  0.00  0.00    +0.035 C 
ATOM     11  C   UNL     1      -6.243 -12.636  17.045  0.00  0.00    +0.134 C 
ATOM     12  C   UNL     1      -5.568 -11.032  19.736  0.00  0.00    +0.022 C 
ATOM     13  C   UNL     1      -6.853 -11.687  19.248  0.00  0.00    +0.109 C 
ATOM     14  C   UNL     1      -7.716 -10.647  17.080  0.00  0.00    +0.303 C 
ATOM     38  H   UNL     1      -8.142  -9.619  18.859  0.00  0.00    +0.151 HD
ENDROOT
BRANCH   8   6
ATOM      3  O   UNL     1      -2.880 -12.413  14.557  0.00  0.00    -0.270 OA
ATOM      6  N   UNL     1      -4.858 -11.514  15.369  0.00  0.00    -0.305 N 
ATOM     15  C   UNL     1      -3.865 -11.692  14.422  0.00  0.00    +0.244 C 
ATOM     36  H   UNL     1      -5.639 -10.893  15.191  0.00  0.00    +0.149 HD
BRANCH  15  16
ATOM     16  C   UNL     1      -4.027 -10.913  13.166  0.00  0.00    +0.037 A 
ATOM     18  C   UNL     1      -2.968 -10.817  12.264  0.00  0.00    +0.016 A 
ATOM     19  C   UNL     1      -5.238 -10.277  12.891  0.00  0.00    +0.016 A 
ATOM     21  C   UNL     1      -3.119 -10.085  11.086  0.00  0.00    +0.046 A 
ATOM     22  C   UNL     1      -5.389  -9.544  11.714  0.00  0.00    +0.046 A 
ATOM     23  C   UNL     1      -4.329  -9.449  10.812  0.00  0.00    +0.121 A 
BRANCH  23   4
ATOM      4  O   UNL     1      -4.477  -8.734   9.662  0.00  0.00    -0.487 OA
BRANCH   4  29
ATOM     29  C   UNL     1      -5.773  -8.730   9.063  0.00  0.00    +0.264 C 
BRANCH  29  30
ATOM     30  C   UNL     1      -5.734  -9.548   7.806  0.00  0.00    -0.010 A 
ATOM     31  C   UNL     1      -4.869 -10.637   7.708  0.00  0.00    +0.007 A 
ATOM     32  C   UNL     1      -6.563  -9.217   6.734  0.00  0.00    +0.007 A 
ATOM     33  C   UNL     1      -4.833 -11.397   6.539  0.00  0.00    +0.000 A 
ATOM     34  C   UNL     1      -6.527  -9.976   5.565  0.00  0.00    +0.000 A 
ATOM     35  C   UNL     1      -5.662 -11.066   5.467  0.00  0.00    +0.000 A 
ENDBRANCH  29  30
ENDBRANCH   4  29
ENDBRANCH  23   4
ENDBRANCH  15  16
ENDBRANCH   8   6
BRANCH   9   1
ATOM      1  O   UNL     1      -2.685 -11.422  17.375  0.00  0.00    -0.390 OA
ATOM     37  H   UNL     1      -2.364 -10.551  17.085  0.00  0.00    +0.210 HD
ENDBRANCH   9   1
BRANCH   7  17
ATOM     17  C   UNL     1      -9.087  -8.588  17.291  0.00  0.00    +0.141 C 
BRANCH  17  20
ATOM     20  C   UNL     1     -10.565  -8.792  17.463  0.00  0.00    -0.030 A 
ATOM     24  C   UNL     1     -11.044  -9.547  18.535  0.00  0.00    +0.005 A 
ATOM     25  C   UNL     1     -11.457  -8.230  16.552  0.00  0.00    +0.005 A 
ATOM     26  C   UNL     1     -12.417  -9.737  18.694  0.00  0.00    +0.000 A 
ATOM     27  C   UNL     1     -12.829  -8.420  16.711  0.00  0.00    +0.000 A 
ATOM     28  C   UNL     1     -13.310  -9.173  17.783  0.00  0.00    +0.000 A 
ENDBRANCH  17  20
ENDBRANCH   7  17
TORSDOF 8
ENDMDL
MODEL 8
REMARK VINA RESULT:      -7.4     28.196     31.318
REMARK  Name = 26741937
REMARK  8 active torsions:
REMARK  status: ('A' for Active; 'I' for Inactive)
REMARK    1  A    between atoms: O_1  and  C_9
REMARK    2  A    between atoms: O_4  and  C_23
REMARK    3  A    between atoms: O_4  and  C_29
REMARK    4  A    between atoms: N_6  and  C_8
REMARK    5  A    between atoms: N_7  and  C_17
REMARK    6  A    between atoms: C_15  and  C_16
REMARK    7  A    between atoms: C_17  and  C_20
REMARK    8  A    between atoms: C_29  and  C_30
REMARK                            x       y       z     vdW  Elec       q    Type
REMARK                         _______ _______ _______ _____ _____    ______ ____
ROOT
ATOM      2  O   UNL     1     -10.391 -11.333  15.610  0.00  0.00    -0.253 OA
ATOM      5  N   UNL     1     -12.001 -11.417  17.280  0.00  0.00    -0.284 N 
ATOM      7  N   UNL     1     -12.292 -10.066  15.364  0.00  0.00    -0.295 N 
ATOM      8  C   UNL     1     -10.225 -11.527  19.048  0.00  0.00    +0.119 C 
ATOM      9  C   UNL     1     -10.740 -10.197  19.630  0.00  0.00    +0.136 C 
ATOM     10  C   UNL     1     -12.221 -10.171  20.024  0.00  0.00    +0.035 C 
ATOM     11  C   UNL     1     -11.181 -12.290  18.120  0.00  0.00    +0.134 C 
ATOM     12  C   UNL     1     -13.157  -9.874  18.849  0.00  0.00    +0.022 C 
ATOM     13  C   UNL     1     -13.290 -11.023  17.858  0.00  0.00    +0.109 C 
ATOM     14  C   UNL     1     -11.486 -10.967  16.050  0.00  0.00    +0.303 C 
ATOM     38  H   UNL     1     -13.126  -9.685  15.790  0.00  0.00    +0.151 HD
ENDROOT
BRANCH   8   6
ATOM      3  O   UNL     1      -7.595 -11.884  20.145  0.00  0.00    -0.270 OA
ATOM      6  N   UNL     1      -8.963 -11.287  18.371  0.00  0.00    -0.305 N 
ATOM     15  C   UNL     1      -7.744 -11.491  18.992  0.00  0.00    +0.244 C 
ATOM     36  H   UNL     1      -9.009 -10.950  17.416  0.00  0.00    +0.149 HD
BRANCH  15  16
ATOM     16  C   UNL     1      -6.544 -11.173  18.173  0.00  0.00    +0.037 A 
ATOM     18  C   UNL     1      -6.616 -10.195  17.181  0.00  0.00    +0.016 A 
ATOM     19  C   UNL     1      -5.348 -11.856  18.396  0.00  0.00    +0.016 A 
ATOM     21  C   UNL     1      -5.490  -9.899  16.412  0.00  0.00    +0.046 A 
ATOM     22  C   UNL     1      -4.223 -11.560  17.626  0.00  0.00    +0.046 A 
ATOM     23  C   UNL     1      -4.295 -10.581  16.634  0.00  0.00    +0.121 A 
BRANCH  23   4
ATOM      4  O   UNL     1      -3.197 -10.292  15.883  0.00  0.00    -0.487 OA
BRANCH   4  29
ATOM     29  C   UNL     1      -2.768 -11.284  14.950  0.00  0.00    +0.264 C 
BRANCH  29  30
ATOM     30  C   UNL     1      -2.952 -10.758  13.557  0.00  0.00    -0.010 A 
ATOM     31  C   UNL     1      -4.235 -10.589  13.038  0.00  0.00    +0.007 A 
ATOM     32  C   UNL     1      -1.839 -10.439  12.781  0.00  0.00    +0.007 A 
ATOM     33  C   UNL     1      -4.406 -10.101  11.743  0.00  0.00    +0.000 A 
ATOM     34  C   UNL     1      -2.008  -9.951  11.485  0.00  0.00    +0.000 A 
ATOM     35  C   UNL     1      -3.292  -9.782  10.967  0.00  0.00    +0.000 A 
ENDBRANCH  29  30
ENDBRANCH   4  29
ENDBRANCH  23   4
ENDBRANCH  15  16
ENDBRANCH   8   6
BRANCH   9   1
ATOM      1  O   UNL     1      -9.962  -9.936  20.806  0.00  0.00    -0.390 OA
ATOM     37  H   UNL     1      -9.354  -9.205  20.600  0.00  0.00    +0.210 HD
ENDBRANCH   9   1
BRANCH   7  17
ATOM     17  C   UNL     1     -11.903  -9.498  14.093  0.00  0.00    +0.141 C 
BRANCH  17  20
ATOM     20  C   UNL     1     -12.035  -8.002  14.081  0.00  0.00    -0.030 A 
ATOM     24  C   UNL     1     -11.643  -7.259  15.195  0.00  0.00    +0.005 A 
ATOM     25  C   UNL     1     -12.552  -7.356  12.959  0.00  0.00    +0.005 A 
ATOM     26  C   UNL     1     -11.767  -5.870  15.184  0.00  0.00    +0.000 A 
ATOM     27  C   UNL     1     -12.675  -5.968  12.948  0.00  0.00    +0.000 A 
ATOM     28  C   UNL     1     -12.282  -5.224  14.061  0.00  0.00    +0.000 A 
ENDBRANCH  17  20
ENDBRANCH   7  17
TORSDOF 8
ENDMDL
MODEL 9
REMARK VINA RESULT:      -7.4     28.191     32.506
REMARK  Name = 26741937
REMARK  8 active torsions:
REMARK  status: ('A' for Active; 'I' for Inactive)
REMARK    1  A    between atoms: O_1  and  C_9
REMARK    2  A    between atoms: O_4  and  C_23
REMARK    3  A    between atoms: O_4  and  C_29
REMARK    4  A    between atoms: N_6  and  C_8
REMARK    5  A    between atoms: N_7  and  C_17
REMARK    6  A    between atoms: C_15  and  C_16
REMARK    7  A    between atoms: C_17  and  C_20
REMARK    8  A    between atoms: C_29  and  C_30
REMARK                            x       y       z     vdW  Elec       q    Type
REMARK                         _______ _______ _______ _____ _____    ______ ____
ROOT
ATOM      2  O   UNL     1      -6.881  -9.202  16.242  0.00  0.00    -0.253 OA
ATOM      5  N   UNL     1      -6.474 -11.034  17.609  0.00  0.00    -0.284 N 
ATOM      7  N   UNL     1      -5.728 -10.987  15.367  0.00  0.00    -0.295 N 
ATOM      8  C   UNL     1      -8.734 -10.800  18.670  0.00  0.00    +0.119 C 
ATOM      9  C   UNL     1      -9.112 -12.198  18.144  0.00  0.00    +0.136 C 
ATOM     10  C   UNL     1      -8.178 -13.341  18.559  0.00  0.00    +0.035 C 
ATOM     11  C   UNL     1      -7.237 -10.462  18.717  0.00  0.00    +0.134 C 
ATOM     12  C   UNL     1      -6.945 -13.474  17.662  0.00  0.00    +0.022 C 
ATOM     13  C   UNL     1      -5.916 -12.368  17.855  0.00  0.00    +0.109 C 
ATOM     14  C   UNL     1      -6.391 -10.326  16.395  0.00  0.00    +0.303 C 
ATOM     38  H   UNL     1      -5.440 -11.951  15.469  0.00  0.00    +0.151 HD
ENDROOT
BRANCH   8   6
ATOM      3  O   UNL     1     -11.358  -9.762  19.204  0.00  0.00    -0.270 OA
ATOM      6  N   UNL     1      -9.444  -9.799  17.895  0.00  0.00    -0.305 N 
ATOM     15  C   UNL     1     -10.713  -9.364  18.238  0.00  0.00    +0.244 C 
ATOM     36  H   UNL     1      -8.974  -9.431  17.076  0.00  0.00    +0.149 HD
BRANCH  15  16
ATOM     16  C   UNL     1     -11.315  -8.355  17.328  0.00  0.00    +0.037 A 
ATOM     18  C   UNL     1     -10.585  -7.226  16.959  0.00  0.00    +0.016 A 
ATOM     19  C   UNL     1     -12.611  -8.537  16.845  0.00  0.00    +0.016 A 
ATOM     21  C   UNL     1     -11.151  -6.278  16.106  0.00  0.00    +0.046 A 
ATOM     22  C   UNL     1     -13.178  -7.589  15.994  0.00  0.00    +0.046 A 
ATOM     23  C   UNL     1     -12.447  -6.459  15.624  0.00  0.00    +0.121 A 
BRANCH  23   4
ATOM      4  O   UNL     1     -12.999  -5.534  14.792  0.00  0.00    -0.487 OA
BRANCH   4  29
ATOM     29  C   UNL     1     -12.153  -4.981  13.784  0.00  0.00    +0.264 C 
BRANCH  29  30
ATOM     30  C   UNL     1     -13.001  -4.276  12.766  0.00  0.00    -0.010 A 
ATOM     31  C   UNL     1     -12.525  -4.088  11.469  0.00  0.00    +0.007 A 
ATOM     32  C   UNL     1     -14.267  -3.809  13.118  0.00  0.00    +0.007 A 
ATOM     33  C   UNL     1     -13.313  -3.432  10.524  0.00  0.00    +0.000 A 
ATOM     34  C   UNL     1     -15.057  -3.153  12.173  0.00  0.00    +0.000 A 
ATOM     35  C   UNL     1     -14.579  -2.965  10.876  0.00  0.00    +0.000 A 
ENDBRANCH  29  30
ENDBRANCH   4  29
ENDBRANCH  23   4
ENDBRANCH  15  16
ENDBRANCH   8   6
BRANCH   9   1
ATOM      1  O   UNL     1     -10.421 -12.487  18.651  0.00  0.00    -0.390 OA
ATOM     37  H   UNL     1     -11.026 -12.538  17.891  0.00  0.00    +0.210 HD
ENDBRANCH   9   1
BRANCH   7  17
ATOM     17  C   UNL     1      -5.568 -10.404  14.054  0.00  0.00    +0.141 C 
BRANCH  17  20
ATOM     20  C   UNL     1      -4.174 -10.581  13.526  0.00  0.00    -0.030 A 
ATOM     24  C   UNL     1      -3.945 -10.589  12.150  0.00  0.00    +0.005 A 
ATOM     25  C   UNL     1      -3.108 -10.740  14.411  0.00  0.00    +0.005 A 
ATOM     26  C   UNL     1      -2.649 -10.754  11.660  0.00  0.00    +0.000 A 
ATOM     27  C   UNL     1      -1.813 -10.904  13.921  0.00  0.00    +0.000 A 
ATOM     28  C   UNL     1      -1.583 -10.911  12.546  0.00  0.00    +0.000 A 
ENDBRANCH  17  20
ENDBRANCH   7  17
TORSDOF 8
ENDMDL
MODEL 10
REMARK VINA RESULT:      -7.3      2.780      5.413
REMARK  Name = 26741937
REMARK  8 active torsions:
REMARK  status: ('A' for Active; 'I' for Inactive)
REMARK    1  A    between atoms: O_1  and  C_9
REMARK    2  A    between atoms: O_4  and  C_23
REMARK    3  A    between atoms: O_4  and  C_29
REMARK    4  A    between atoms: N_6  and  C_8
REMARK    5  A    between atoms: N_7  and  C_17
REMARK    6  A    between atoms: C_15  and  C_16
REMARK    7  A    between atoms: C_17  and  C_20
REMARK    8  A    between atoms: C_29  and  C_30
REMARK                            x       y       z     vdW  Elec       q    Type
REMARK                         _______ _______ _______ _____ _____    ______ ____
ROOT
ATOM      2  O   UNL     1      14.230   6.950  19.007  0.00  0.00    -0.253 OA
ATOM      5  N   UNL     1      12.633   8.240  20.089  0.00  0.00    -0.284 N 
ATOM      7  N   UNL     1      13.302   8.721  17.875  0.00  0.00    -0.295 N 
ATOM      8  C   UNL     1      13.883   8.049  22.255  0.00  0.00    +0.119 C 
ATOM      9  C   UNL     1      14.070   9.578  22.268  0.00  0.00    +0.136 C 
ATOM     10  C   UNL     1      12.783  10.407  22.190  0.00  0.00    +0.035 C 
ATOM     11  C   UNL     1      12.781   7.496  21.339  0.00  0.00    +0.134 C 
ATOM     12  C   UNL     1      12.275  10.607  20.759  0.00  0.00    +0.022 C 
ATOM     13  C   UNL     1      11.679   9.354  20.132  0.00  0.00    +0.109 C 
ATOM     14  C   UNL     1      13.441   7.900  18.989  0.00  0.00    +0.303 C 
ATOM     38  H   UNL     1      12.744   9.564  17.916  0.00  0.00    +0.151 HD
ENDROOT
BRANCH   8   6
ATOM      3  O   UNL     1      16.126   9.285  20.954  0.00  0.00    -0.270 OA
ATOM      6  N   UNL     1      15.153   7.422  21.936  0.00  0.00    -0.305 N 
ATOM     15  C   UNL     1      16.175   8.109  21.304  0.00  0.00    +0.244 C 
ATOM     36  H   UNL     1      15.262   6.447  22.188  0.00  0.00    +0.149 HD
BRANCH  15  16
ATOM     16  C   UNL     1      17.403   7.319  21.023  0.00  0.00    +0.037 A 
ATOM     18  C   UNL     1      17.396   6.355  20.016  0.00  0.00    +0.016 A 
ATOM     19  C   UNL     1      18.561   7.542  21.769  0.00  0.00    +0.016 A 
ATOM     21  C   UNL     1      18.548   5.613  19.753  0.00  0.00    +0.046 A 
ATOM     22  C   UNL     1      19.712   6.799  21.507  0.00  0.00    +0.046 A 
ATOM     23  C   UNL     1      19.705   5.835  20.499  0.00  0.00    +0.121 A 
BRANCH  23   4
ATOM      4  O   UNL     1      20.829   5.110  20.243  0.00  0.00    -0.487 OA
BRANCH   4  29
ATOM     29  C   UNL     1      21.486   4.515  21.361  0.00  0.00    +0.264 C 
BRANCH  29  30
ATOM     30  C   UNL     1      22.803   3.952  20.913  0.00  0.00    -0.010 A 
ATOM     31  C   UNL     1      23.742   4.779  20.297  0.00  0.00    +0.007 A 
ATOM     32  C   UNL     1      23.087   2.601  21.110  0.00  0.00    +0.007 A 
ATOM     33  C   UNL     1      24.966   4.255  19.879  0.00  0.00    +0.000 A 
ATOM     34  C   UNL     1      24.310   2.077  20.693  0.00  0.00    +0.000 A 
ATOM     35  C   UNL     1      25.249   2.904  20.077  0.00  0.00    +0.000 A 
ENDBRANCH  29  30
ENDBRANCH   4  29
ENDBRANCH  23   4
ENDBRANCH  15  16
ENDBRANCH   8   6
BRANCH   9   1
ATOM      1  O   UNL     1      14.732   9.900  23.498  0.00  0.00    -0.390 OA
ATOM     37  H   UNL     1      14.105  10.400  24.048  0.00  0.00    +0.210 HD
ENDBRANCH   9   1
BRANCH   7  17
ATOM     17  C   UNL     1      14.069   8.517  16.667  0.00  0.00    +0.141 C 
BRANCH  17  20
ATOM     20  C   UNL     1      14.660   9.798  16.153  0.00  0.00    -0.030 A 
ATOM     24  C   UNL     1      15.172   9.858  14.856  0.00  0.00    +0.005 A 
ATOM     25  C   UNL     1      14.698  10.926  16.971  0.00  0.00    +0.005 A 
ATOM     26  C   UNL     1      15.721  11.049  14.379  0.00  0.00    +0.000 A 
ATOM     27  C   UNL     1      15.247  12.115  16.494  0.00  0.00    +0.000 A 
ATOM     28  C   UNL     1      15.759  12.178  15.198  0.00  0.00    +0.000 A 
ENDBRANCH  17  20
ENDBRANCH   7  17
TORSDOF 8
ENDMDL
