MODEL 1
REMARK VINA RESULT:      -7.3      0.000      0.000
REMARK  Name = 45784038
REMARK  13 active torsions:
REMARK  status: ('A' for Active; 'I' for Inactive)
REMARK    1  A    between atoms: O_3  and  C_26
REMARK    2  A    between atoms: O_3  and  C_29
REMARK    3  A    between atoms: N_4  and  C_15
REMARK    4  A    between atoms: N_4  and  C_21
REMARK    5  A    between atoms: C_8  and  C_12
REMARK    6  A    between atoms: C_9  and  C_15
REMARK    7  A    between atoms: C_11  and  C_16
REMARK    8  A    between atoms: C_12  and  C_17
REMARK    9  A    between atoms: C_12  and  C_18
REMARK   10  A    between atoms: C_13  and  C_19
REMARK   11  A    between atoms: C_16  and  C_20
REMARK   12  A    between atoms: C_21  and  C_22
REMARK   13  A    between atoms: C_23  and  C_26
REMARK                            x       y       z     vdW  Elec       q    Type
REMARK                         _______ _______ _______ _____ _____    ______ ____
ROOT
ATOM      8  C   UNL     1     -13.436   7.882  21.411  0.00  0.00    +0.000 C 
ATOM      9  C   UNL     1     -14.111   9.120  22.053  0.00  0.00    +0.029 C 
ATOM     10  C   UNL     1     -14.489   6.819  21.063  0.00  0.00    +0.012 C 
ATOM     11  C   UNL     1     -15.282   6.356  22.301  0.00  0.00    +0.024 C 
ATOM     13  C   UNL     1     -15.754   7.528  23.137  0.00  0.00    -0.073 C 
ATOM     14  C   UNL     1     -15.228   8.759  23.003  0.00  0.00    -0.023 C 
ATOM     19  C   UNL     1     -16.877   7.263  24.100  0.00  0.00    +0.039 C 
ENDROOT
BRANCH   8  12
ATOM     12  C   UNL     1     -12.642   8.254  20.155  0.00  0.00    -0.013 C 
ATOM     17  C   UNL     1     -11.290   7.545  20.151  0.00  0.00    +0.007 C 
ATOM     18  C   UNL     1     -13.436   7.910  18.900  0.00  0.00    +0.007 C 
ENDBRANCH   8  12
BRANCH   9  15
ATOM     15  C   UNL     1     -13.082   9.994  22.782  0.00  0.00    +0.089 C 
BRANCH  15   4
ATOM      4  N   UNL     1     -13.515  10.268  24.141  0.00  0.00    -0.311 NA
ATOM     35  H   UNL     1     -14.532  10.306  24.184  0.00  0.00    +0.122 HD
BRANCH   4  21
ATOM     21  C   UNL     1     -12.967  11.532  24.621  0.00  0.00    +0.117 C 
BRANCH  21  22
ATOM      7  N   UNL     1     -11.957  12.085  28.227  0.00  0.00    -0.263 NA
ATOM     22  C   UNL     1     -12.254  11.369  25.938  0.00  0.00    -0.016 A 
ATOM     24  C   UNL     1     -11.272  10.400  26.106  0.00  0.00    +0.008 A 
ATOM     25  C   UNL     1     -12.558  12.179  27.020  0.00  0.00    +0.115 A 
ATOM     27  C   UNL     1     -10.631  10.272  27.333  0.00  0.00    +0.020 A 
ATOM     28  C   UNL     1     -11.006  11.132  28.353  0.00  0.00    +0.111 A 
ENDBRANCH  21  22
ENDBRANCH   4  21
ENDBRANCH  15   4
ENDBRANCH   9  15
BRANCH  11  16
ATOM     16  C   UNL     1     -14.462   5.374  23.146  0.00  0.00    +0.105 C 
BRANCH  16  20
ATOM      2  O   UNL     1     -15.397   3.979  24.917  0.00  0.00    -0.421 OA
ATOM      5  N   UNL     1     -15.946   3.324  22.849  0.00  0.00    -0.112 NA
ATOM      6  N   UNL     1     -16.538   2.453  23.745  0.00  0.00    -0.109 NA
ATOM     20  C   UNL     1     -15.290   4.198  23.577  0.00  0.00    +0.218 A 
ATOM     23  C   UNL     1     -16.190   2.874  24.938  0.00  0.00    +0.254 A 
BRANCH  23  26
ATOM     26  C   UNL     1     -16.534   2.329  26.258  0.00  0.00    +0.326 C 
BRANCH  26   3
ATOM      3  O   UNL     1     -15.991   3.155  27.292  0.00  0.00    -0.483 OA
BRANCH   3  29
ATOM      1  F   UNL     1     -14.893   0.685  32.077  0.00  0.00    -0.205 F 
ATOM     29  C   UNL     1     -15.719   2.541  28.481  0.00  0.00    +0.121 A 
ATOM     30  C   UNL     1     -16.159   1.237  28.711  0.00  0.00    +0.048 A 
ATOM     31  C   UNL     1     -14.999   3.217  29.467  0.00  0.00    +0.048 A 
ATOM     32  C   UNL     1     -15.879   0.610  29.926  0.00  0.00    +0.042 A 
ATOM     33  C   UNL     1     -14.721   2.590  30.682  0.00  0.00    +0.042 A 
ATOM     34  C   UNL     1     -15.161   1.287  30.911  0.00  0.00    +0.124 A 
ENDBRANCH   3  29
ENDBRANCH  26   3
ENDBRANCH  23  26
ENDBRANCH  16  20
ENDBRANCH  11  16
TORSDOF 10
ENDMDL
MODEL 2
REMARK VINA RESULT:      -7.2     19.777     23.230
REMARK  Name = 45784038
REMARK  13 active torsions:
REMARK  status: ('A' for Active; 'I' for Inactive)
REMARK    1  A    between atoms: O_3  and  C_26
REMARK    2  A    between atoms: O_3  and  C_29
REMARK    3  A    between atoms: N_4  and  C_15
REMARK    4  A    between atoms: N_4  and  C_21
REMARK    5  A    between atoms: C_8  and  C_12
REMARK    6  A    between atoms: C_9  and  C_15
REMARK    7  A    between atoms: C_11  and  C_16
REMARK    8  A    between atoms: C_12  and  C_17
REMARK    9  A    between atoms: C_12  and  C_18
REMARK   10  A    between atoms: C_13  and  C_19
REMARK   11  A    between atoms: C_16  and  C_20
REMARK   12  A    between atoms: C_21  and  C_22
REMARK   13  A    between atoms: C_23  and  C_26
REMARK                            x       y       z     vdW  Elec       q    Type
REMARK                         _______ _______ _______ _____ _____    ______ ____
ROOT
ATOM      8  C   UNL     1      -7.412 -11.266  17.173  0.00  0.00    +0.000 C 
ATOM      9  C   UNL     1      -7.571 -11.660  18.663  0.00  0.00    +0.029 C 
ATOM     10  C   UNL     1      -6.289 -12.086  16.519  0.00  0.00    +0.012 C 
ATOM     11  C   UNL     1      -4.934 -11.885  17.224  0.00  0.00    +0.024 C 
ATOM     13  C   UNL     1      -5.062 -11.992  18.730  0.00  0.00    -0.073 C 
ATOM     14  C   UNL     1      -6.250 -11.902  19.355  0.00  0.00    -0.023 C 
ATOM     19  C   UNL     1      -3.797 -12.252  19.500  0.00  0.00    +0.039 C 
ENDROOT
BRANCH   8  12
ATOM     12  C   UNL     1      -8.716 -11.458  16.392  0.00  0.00    -0.013 C 
ATOM     17  C   UNL     1      -8.629 -10.767  15.034  0.00  0.00    +0.007 C 
ATOM     18  C   UNL     1      -9.023 -12.942  16.224  0.00  0.00    +0.007 C 
ENDBRANCH   8  12
BRANCH   9  15
ATOM     15  C   UNL     1      -8.363 -10.597  19.434  0.00  0.00    +0.089 C 
BRANCH  15   4
ATOM      4  N   UNL     1      -9.519 -11.190  20.083  0.00  0.00    -0.311 NA
ATOM     35  H   UNL     1      -9.766 -12.066  19.627  0.00  0.00    +0.122 HD
BRANCH   4  21
ATOM     21  C   UNL     1     -10.665 -10.288  20.042  0.00  0.00    +0.117 C 
BRANCH  21  22
ATOM      7  N   UNL     1     -12.506 -11.195  16.861  0.00  0.00    -0.263 NA
ATOM     22  C   UNL     1     -11.243 -10.181  18.656  0.00  0.00    -0.016 A 
ATOM     24  C   UNL     1     -11.074  -9.030  17.896  0.00  0.00    +0.008 A 
ATOM     25  C   UNL     1     -11.961 -11.226  18.098  0.00  0.00    +0.115 A 
ATOM     27  C   UNL     1     -11.619  -8.959  16.619  0.00  0.00    +0.020 A 
ATOM     28  C   UNL     1     -12.320 -10.059  16.151  0.00  0.00    +0.111 A 
ENDBRANCH  21  22
ENDBRANCH   4  21
ENDBRANCH  15   4
ENDBRANCH   9  15
BRANCH  11  16
ATOM     16  C   UNL     1      -4.295 -10.551  16.822  0.00  0.00    +0.105 C 
BRANCH  16  20
ATOM      2  O   UNL     1      -3.286 -11.049  14.657  0.00  0.00    -0.421 OA
ATOM      5  N   UNL     1      -1.806 -10.712  16.300  0.00  0.00    -0.112 NA
ATOM      6  N   UNL     1      -1.103 -10.981  15.140  0.00  0.00    -0.109 NA
ATOM     20  C   UNL     1      -3.075 -10.762  15.971  0.00  0.00    +0.218 A 
ATOM     23  C   UNL     1      -2.007 -11.171  14.208  0.00  0.00    +0.254 A 
BRANCH  23  26
ATOM     26  C   UNL     1      -1.829 -11.486  12.785  0.00  0.00    +0.326 C 
BRANCH  26   3
ATOM      3  O   UNL     1      -1.908 -10.294  11.999  0.00  0.00    -0.483 OA
BRANCH   3  29
ATOM      1  F   UNL     1      -5.473 -10.351   7.817  0.00  0.00    -0.205 F 
ATOM     29  C   UNL     1      -2.794 -10.307  10.960  0.00  0.00    +0.121 A 
ATOM     30  C   UNL     1      -3.082  -9.129  10.272  0.00  0.00    +0.048 A 
ATOM     31  C   UNL     1      -3.413 -11.501  10.586  0.00  0.00    +0.048 A 
ATOM     32  C   UNL     1      -3.986  -9.143   9.210  0.00  0.00    +0.042 A 
ATOM     33  C   UNL     1      -4.318 -11.515   9.525  0.00  0.00    +0.042 A 
ATOM     34  C   UNL     1      -4.604 -10.337   8.837  0.00  0.00    +0.124 A 
ENDBRANCH   3  29
ENDBRANCH  26   3
ENDBRANCH  23  26
ENDBRANCH  16  20
ENDBRANCH  11  16
TORSDOF 10
ENDMDL
MODEL 3
REMARK VINA RESULT:      -7.2     20.004     23.243
REMARK  Name = 45784038
REMARK  13 active torsions:
REMARK  status: ('A' for Active; 'I' for Inactive)
REMARK    1  A    between atoms: O_3  and  C_26
REMARK    2  A    between atoms: O_3  and  C_29
REMARK    3  A    between atoms: N_4  and  C_15
REMARK    4  A    between atoms: N_4  and  C_21
REMARK    5  A    between atoms: C_8  and  C_12
REMARK    6  A    between atoms: C_9  and  C_15
REMARK    7  A    between atoms: C_11  and  C_16
REMARK    8  A    between atoms: C_12  and  C_17
REMARK    9  A    between atoms: C_12  and  C_18
REMARK   10  A    between atoms: C_13  and  C_19
REMARK   11  A    between atoms: C_16  and  C_20
REMARK   12  A    between atoms: C_21  and  C_22
REMARK   13  A    between atoms: C_23  and  C_26
REMARK                            x       y       z     vdW  Elec       q    Type
REMARK                         _______ _______ _______ _____ _____    ______ ____
ROOT
ATOM      8  C   UNL     1      -3.885 -12.122  13.421  0.00  0.00    +0.000 C 
ATOM      9  C   UNL     1      -2.367 -11.815  13.394  0.00  0.00    +0.029 C 
ATOM     10  C   UNL     1      -4.462 -12.101  11.997  0.00  0.00    +0.012 C 
ATOM     11  C   UNL     1      -4.251 -10.740  11.304  0.00  0.00    +0.024 C 
ATOM     13  C   UNL     1      -2.831 -10.240  11.466  0.00  0.00    -0.073 C 
ATOM     14  C   UNL     1      -1.998 -10.741  12.397  0.00  0.00    -0.023 C 
ATOM     19  C   UNL     1      -2.372  -9.181  10.504  0.00  0.00    +0.039 C 
ENDROOT
BRANCH   8  12
ATOM     12  C   UNL     1      -4.180 -13.475  14.078  0.00  0.00    -0.013 C 
ATOM     17  C   UNL     1      -5.652 -13.565  14.471  0.00  0.00    +0.007 C 
ATOM     18  C   UNL     1      -3.799 -14.616  13.142  0.00  0.00    +0.007 C 
ENDBRANCH   8  12
BRANCH   9  15
ATOM     15  C   UNL     1      -1.858 -11.417  14.785  0.00  0.00    +0.089 C 
BRANCH  15   4
ATOM      4  N   UNL     1      -2.706 -10.391  15.366  0.00  0.00    -0.311 NA
ATOM     35  H   UNL     1      -2.199  -9.510  15.425  0.00  0.00    +0.122 HD
BRANCH   4  21
ATOM     21  C   UNL     1      -3.158 -10.777  16.698  0.00  0.00    +0.117 C 
BRANCH  21  22
ATOM      7  N   UNL     1      -6.526 -10.419  18.389  0.00  0.00    -0.263 NA
ATOM     22  C   UNL     1      -4.614 -10.455  16.911  0.00  0.00    -0.016 A 
ATOM     24  C   UNL     1      -5.385  -9.918  15.887  0.00  0.00    +0.008 A 
ATOM     25  C   UNL     1      -5.226 -10.684  18.132  0.00  0.00    +0.115 A 
ATOM     27  C   UNL     1      -6.727  -9.631  16.112  0.00  0.00    +0.020 A 
ATOM     28  C   UNL     1      -7.245  -9.898  17.369  0.00  0.00    +0.111 A 
ENDBRANCH  21  22
ENDBRANCH   4  21
ENDBRANCH  15   4
ENDBRANCH   9  15
BRANCH  11  16
ATOM     16  C   UNL     1      -5.260  -9.702  11.807  0.00  0.00    +0.105 C 
BRANCH  16  20
ATOM      2  O   UNL     1      -7.436  -9.131  10.862  0.00  0.00    -0.421 OA
ATOM      5  N   UNL     1      -5.705  -8.668   9.522  0.00  0.00    -0.112 NA
ATOM      6  N   UNL     1      -6.865  -8.296   8.866  0.00  0.00    -0.109 NA
ATOM     20  C   UNL     1      -6.086  -9.149  10.682  0.00  0.00    +0.218 A 
ATOM     23  C   UNL     1      -7.849  -8.585   9.686  0.00  0.00    +0.254 A 
BRANCH  23  26
ATOM     26  C   UNL     1      -9.295  -8.401   9.511  0.00  0.00    +0.326 C 
BRANCH  26   3
ATOM      3  O   UNL     1      -9.552  -7.332   8.597  0.00  0.00    -0.483 OA
BRANCH   3  29
ATOM      1  F   UNL     1     -12.559  -3.148  10.509  0.00  0.00    -0.205 F 
ATOM     29  C   UNL     1     -10.299  -6.291   9.072  0.00  0.00    +0.121 A 
ATOM     30  C   UNL     1      -9.980  -4.982   8.714  0.00  0.00    +0.048 A 
ATOM     31  C   UNL     1     -11.382  -6.539   9.917  0.00  0.00    +0.048 A 
ATOM     32  C   UNL     1     -10.744  -3.919   9.199  0.00  0.00    +0.042 A 
ATOM     33  C   UNL     1     -12.145  -5.477  10.402  0.00  0.00    +0.042 A 
ATOM     34  C   UNL     1     -11.826  -4.167  10.043  0.00  0.00    +0.124 A 
ENDBRANCH   3  29
ENDBRANCH  26   3
ENDBRANCH  23  26
ENDBRANCH  16  20
ENDBRANCH  11  16
TORSDOF 10
ENDMDL
MODEL 4
REMARK VINA RESULT:      -7.0     30.587     34.055
REMARK  Name = 45784038
REMARK  13 active torsions:
REMARK  status: ('A' for Active; 'I' for Inactive)
REMARK    1  A    between atoms: O_3  and  C_26
REMARK    2  A    between atoms: O_3  and  C_29
REMARK    3  A    between atoms: N_4  and  C_15
REMARK    4  A    between atoms: N_4  and  C_21
REMARK    5  A    between atoms: C_8  and  C_12
REMARK    6  A    between atoms: C_9  and  C_15
REMARK    7  A    between atoms: C_11  and  C_16
REMARK    8  A    between atoms: C_12  and  C_17
REMARK    9  A    between atoms: C_12  and  C_18
REMARK   10  A    between atoms: C_13  and  C_19
REMARK   11  A    between atoms: C_16  and  C_20
REMARK   12  A    between atoms: C_21  and  C_22
REMARK   13  A    between atoms: C_23  and  C_26
REMARK                            x       y       z     vdW  Elec       q    Type
REMARK                         _______ _______ _______ _____ _____    ______ ____
ROOT
ATOM      8  C   UNL     1       8.881   8.638   5.381  0.00  0.00    +0.000 C 
ATOM      9  C   UNL     1       8.636   8.415   6.895  0.00  0.00    +0.029 C 
ATOM     10  C   UNL     1       8.608   7.345   4.598  0.00  0.00    +0.012 C 
ATOM     11  C   UNL     1       9.499   6.180   5.069  0.00  0.00    +0.024 C 
ATOM     13  C   UNL     1       9.521   6.064   6.580  0.00  0.00    -0.073 C 
ATOM     14  C   UNL     1       9.119   7.068   7.380  0.00  0.00    -0.023 C 
ATOM     19  C   UNL     1       9.972   4.749   7.151  0.00  0.00    +0.039 C 
ENDROOT
BRANCH   8  12
ATOM     12  C   UNL     1       8.013   9.773   4.826  0.00  0.00    -0.013 C 
ATOM     17  C   UNL     1       8.888  10.935   4.365  0.00  0.00    +0.007 C 
ATOM     18  C   UNL     1       7.141   9.266   3.683  0.00  0.00    +0.007 C 
ENDBRANCH   8  12
BRANCH   9  15
ATOM     15  C   UNL     1       9.289   9.523   7.730  0.00  0.00    +0.089 C 
BRANCH  15   4
ATOM      4  N   UNL     1      10.645   9.155   8.098  0.00  0.00    -0.311 NA
ATOM     35  H   UNL     1      10.783   9.278   9.099  0.00  0.00    +0.122 HD
BRANCH   4  21
ATOM     21  C   UNL     1      11.622   9.964   7.376  0.00  0.00    +0.117 C 
BRANCH  21  22
ATOM      7  N   UNL     1      15.140   9.138   6.249  0.00  0.00    -0.263 NA
ATOM     22  C   UNL     1      12.844   9.167   7.004  0.00  0.00    -0.016 A 
ATOM     24  C   UNL     1      12.838   7.778   7.061  0.00  0.00    +0.008 A 
ATOM     25  C   UNL     1      14.010   9.794   6.596  0.00  0.00    +0.115 A 
ATOM     27  C   UNL     1      13.981   7.068   6.711  0.00  0.00    +0.020 A 
ATOM     28  C   UNL     1      15.096   7.789   6.316  0.00  0.00    +0.111 A 
ENDBRANCH  21  22
ENDBRANCH   4  21
ENDBRANCH  15   4
ENDBRANCH   9  15
BRANCH  11  16
ATOM     16  C   UNL     1      10.919   6.307   4.508  0.00  0.00    +0.105 C 
BRANCH  16  20
ATOM      2  O   UNL     1      12.213   5.420   2.639  0.00  0.00    -0.421 OA
ATOM      5  N   UNL     1      10.711   3.988   3.474  0.00  0.00    -0.112 NA
ATOM      6  N   UNL     1      11.367   3.360   2.431  0.00  0.00    -0.109 NA
ATOM     20  C   UNL     1      11.237   5.187   3.560  0.00  0.00    +0.218 A 
ATOM     23  C   UNL     1      12.234   4.233   1.975  0.00  0.00    +0.254 A 
BRANCH  23  26
ATOM     26  C   UNL     1      13.198   4.105   0.875  0.00  0.00    +0.326 C 
BRANCH  26   3
ATOM      3  O   UNL     1      12.759   4.856  -0.261  0.00  0.00    -0.483 OA
BRANCH   3  29
ATOM      1  F   UNL     1       9.807   2.124  -4.006  0.00  0.00    -0.205 F 
ATOM     29  C   UNL     1      12.025   4.177  -1.191  0.00  0.00    +0.121 A 
ATOM     30  C   UNL     1      10.898   4.770  -1.760  0.00  0.00    +0.048 A 
ATOM     31  C   UNL     1      12.402   2.889  -1.574  0.00  0.00    +0.048 A 
ATOM     32  C   UNL     1      10.149   4.077  -2.711  0.00  0.00    +0.042 A 
ATOM     33  C   UNL     1      11.652   2.196  -2.525  0.00  0.00    +0.042 A 
ATOM     34  C   UNL     1      10.526   2.790  -3.093  0.00  0.00    +0.124 A 
ENDBRANCH   3  29
ENDBRANCH  26   3
ENDBRANCH  23  26
ENDBRANCH  16  20
ENDBRANCH  11  16
TORSDOF 10
ENDMDL
MODEL 5
REMARK VINA RESULT:      -7.0     30.400     34.353
REMARK  Name = 45784038
REMARK  13 active torsions:
REMARK  status: ('A' for Active; 'I' for Inactive)
REMARK    1  A    between atoms: O_3  and  C_26
REMARK    2  A    between atoms: O_3  and  C_29
REMARK    3  A    between atoms: N_4  and  C_15
REMARK    4  A    between atoms: N_4  and  C_21
REMARK    5  A    between atoms: C_8  and  C_12
REMARK    6  A    between atoms: C_9  and  C_15
REMARK    7  A    between atoms: C_11  and  C_16
REMARK    8  A    between atoms: C_12  and  C_17
REMARK    9  A    between atoms: C_12  and  C_18
REMARK   10  A    between atoms: C_13  and  C_19
REMARK   11  A    between atoms: C_16  and  C_20
REMARK   12  A    between atoms: C_21  and  C_22
REMARK   13  A    between atoms: C_23  and  C_26
REMARK                            x       y       z     vdW  Elec       q    Type
REMARK                         _______ _______ _______ _____ _____    ______ ____
ROOT
ATOM      8  C   UNL     1       8.868   8.364   3.541  0.00  0.00    +0.000 C 
ATOM      9  C   UNL     1       8.070   7.654   4.663  0.00  0.00    +0.029 C 
ATOM     10  C   UNL     1       9.353   7.344   2.500  0.00  0.00    +0.012 C 
ATOM     11  C   UNL     1      10.250   6.257   3.125  0.00  0.00    +0.024 C 
ATOM     13  C   UNL     1       9.650   5.694   4.397  0.00  0.00    -0.073 C 
ATOM     14  C   UNL     1       8.667   6.326   5.064  0.00  0.00    -0.023 C 
ATOM     19  C   UNL     1      10.173   4.363   4.861  0.00  0.00    +0.039 C 
ENDROOT
BRANCH   8  12
ATOM     12  C   UNL     1       8.035   9.450   2.851  0.00  0.00    -0.013 C 
ATOM     17  C   UNL     1       8.663  10.823   3.074  0.00  0.00    +0.007 C 
ATOM     18  C   UNL     1       7.901   9.153   1.362  0.00  0.00    +0.007 C 
ENDBRANCH   8  12
BRANCH   9  15
ATOM     15  C   UNL     1       7.941   8.550   5.902  0.00  0.00    +0.089 C 
BRANCH  15   4
ATOM      4  N   UNL     1       8.278   7.811   7.106  0.00  0.00    -0.311 NA
ATOM     35  H   UNL     1       7.439   7.633   7.655  0.00  0.00    +0.122 HD
BRANCH   4  21
ATOM     21  C   UNL     1       9.239   8.547   7.921  0.00  0.00    +0.117 C 
BRANCH  21  22
ATOM      7  N   UNL     1      12.802   9.127   6.782  0.00  0.00    -0.263 NA
ATOM     22  C   UNL     1      10.658   8.271   7.500  0.00  0.00    -0.016 A 
ATOM     24  C   UNL     1      11.146   6.972   7.433  0.00  0.00    +0.008 A 
ATOM     25  C   UNL     1      11.518   9.305   7.168  0.00  0.00    +0.115 A 
ATOM     27  C   UNL     1      12.460   6.747   7.040  0.00  0.00    +0.020 A 
ATOM     28  C   UNL     1      13.241   7.849   6.728  0.00  0.00    +0.111 A 
ENDBRANCH  21  22
ENDBRANCH   4  21
ENDBRANCH  15   4
ENDBRANCH   9  15
BRANCH  11  16
ATOM     16  C   UNL     1      11.667   6.787   3.375  0.00  0.00    +0.105 C 
BRANCH  16  20
ATOM      2  O   UNL     1      12.244   4.887   1.956  0.00  0.00    -0.421 OA
ATOM      5  N   UNL     1      13.987   6.170   2.522  0.00  0.00    -0.112 NA
ATOM      6  N   UNL     1      14.455   5.142   1.724  0.00  0.00    -0.109 NA
ATOM     20  C   UNL     1      12.693   5.982   2.630  0.00  0.00    +0.218 A 
ATOM     23  C   UNL     1      13.403   4.419   1.418  0.00  0.00    +0.254 A 
BRANCH  23  26
ATOM     26  C   UNL     1      13.310   3.207   0.594  0.00  0.00    +0.326 C 
BRANCH  26   3
ATOM      3  O   UNL     1      13.441   3.538  -0.792  0.00  0.00    -0.483 OA
BRANCH   3  29
ATOM      1  F   UNL     1       8.837   3.384  -3.789  0.00  0.00    -0.205 F 
ATOM     29  C   UNL     1      12.297   3.499  -1.537  0.00  0.00    +0.121 A 
ATOM     30  C   UNL     1      11.972   2.351  -2.258  0.00  0.00    +0.048 A 
ATOM     31  C   UNL     1      11.453   4.610  -1.577  0.00  0.00    +0.048 A 
ATOM     32  C   UNL     1      10.803   2.311  -3.018  0.00  0.00    +0.042 A 
ATOM     33  C   UNL     1      10.284   4.570  -2.339  0.00  0.00    +0.042 A 
ATOM     34  C   UNL     1       9.960   3.421  -3.059  0.00  0.00    +0.124 A 
ENDBRANCH   3  29
ENDBRANCH  26   3
ENDBRANCH  23  26
ENDBRANCH  16  20
ENDBRANCH  11  16
TORSDOF 10
ENDMDL
MODEL 6
REMARK VINA RESULT:      -7.0     20.961     24.181
REMARK  Name = 45784038
REMARK  13 active torsions:
REMARK  status: ('A' for Active; 'I' for Inactive)
REMARK    1  A    between atoms: O_3  and  C_26
REMARK    2  A    between atoms: O_3  and  C_29
REMARK    3  A    between atoms: N_4  and  C_15
REMARK    4  A    between atoms: N_4  and  C_21
REMARK    5  A    between atoms: C_8  and  C_12
REMARK    6  A    between atoms: C_9  and  C_15
REMARK    7  A    between atoms: C_11  and  C_16
REMARK    8  A    between atoms: C_12  and  C_17
REMARK    9  A    between atoms: C_12  and  C_18
REMARK   10  A    between atoms: C_13  and  C_19
REMARK   11  A    between atoms: C_16  and  C_20
REMARK   12  A    between atoms: C_21  and  C_22
REMARK   13  A    between atoms: C_23  and  C_26
REMARK                            x       y       z     vdW  Elec       q    Type
REMARK                         _______ _______ _______ _____ _____    ______ ____
ROOT
ATOM      8  C   UNL     1      -6.129 -13.011  16.034  0.00  0.00    +0.000 C 
ATOM      9  C   UNL     1      -7.352 -13.023  16.985  0.00  0.00    +0.029 C 
ATOM     10  C   UNL     1      -4.823 -12.956  16.841  0.00  0.00    +0.012 C 
ATOM     11  C   UNL     1      -4.750 -11.710  17.746  0.00  0.00    +0.024 C 
ATOM     13  C   UNL     1      -6.035 -11.501  18.521  0.00  0.00    -0.073 C 
ATOM     14  C   UNL     1      -7.185 -12.107  18.174  0.00  0.00    -0.023 C 
ATOM     19  C   UNL     1      -5.957 -10.616  19.733  0.00  0.00    +0.039 C 
ENDROOT
BRANCH   8  12
ATOM     12  C   UNL     1      -6.115 -14.234  15.111  0.00  0.00    -0.013 C 
ATOM     17  C   UNL     1      -5.997 -13.799  13.653  0.00  0.00    +0.007 C 
ATOM     18  C   UNL     1      -4.975 -15.174  15.488  0.00  0.00    +0.007 C 
ENDBRANCH   8  12
BRANCH   9  15
ATOM     15  C   UNL     1      -8.639 -12.657  16.235  0.00  0.00    +0.089 C 
BRANCH  15   4
ATOM      4  N   UNL     1      -8.940 -11.244  16.393  0.00  0.00    -0.311 NA
ATOM     35  H   UNL     1      -9.628 -11.113  17.133  0.00  0.00    +0.122 HD
BRANCH   4  21
ATOM     21  C   UNL     1      -9.454 -10.676  15.153  0.00  0.00    +0.117 C 
BRANCH  21  22
ATOM      7  N   UNL     1      -7.661 -10.968  11.832  0.00  0.00    -0.263 NA
ATOM     22  C   UNL     1      -8.381 -10.559  14.103  0.00  0.00    -0.016 A 
ATOM     24  C   UNL     1      -7.159  -9.964  14.391  0.00  0.00    +0.008 A 
ATOM     25  C   UNL     1      -8.581 -11.040  12.819  0.00  0.00    +0.115 A 
ATOM     27  C   UNL     1      -6.186  -9.870  13.402  0.00  0.00    +0.020 A 
ATOM     28  C   UNL     1      -6.484 -10.383  12.150  0.00  0.00    +0.111 A 
ENDBRANCH  21  22
ENDBRANCH   4  21
ENDBRANCH  15   4
ENDBRANCH   9  15
BRANCH  11  16
ATOM     16  C   UNL     1      -4.390 -10.460  16.936  0.00  0.00    +0.105 C 
BRANCH  16  20
ATOM      2  O   UNL     1      -3.331 -10.918  14.785  0.00  0.00    -0.421 OA
ATOM      5  N   UNL     1      -1.891 -10.672  16.480  0.00  0.00    -0.112 NA
ATOM      6  N   UNL     1      -1.162 -10.924  15.332  0.00  0.00    -0.109 NA
ATOM     20  C   UNL     1      -3.152 -10.677  16.113  0.00  0.00    +0.218 A 
ATOM     23  C   UNL     1      -2.043 -11.061  14.370  0.00  0.00    +0.254 A 
BRANCH  23  26
ATOM     26  C   UNL     1      -1.833 -11.337  12.942  0.00  0.00    +0.326 C 
BRANCH  26   3
ATOM      3  O   UNL     1      -2.070 -10.157  12.169  0.00  0.00    -0.483 OA
BRANCH   3  29
ATOM      1  F   UNL     1      -5.329 -10.718   7.780  0.00  0.00    -0.205 F 
ATOM     29  C   UNL     1      -2.880 -10.297  11.078  0.00  0.00    +0.121 A 
ATOM     30  C   UNL     1      -3.332 -11.561  10.702  0.00  0.00    +0.048 A 
ATOM     31  C   UNL     1      -3.255  -9.174  10.339  0.00  0.00    +0.048 A 
ATOM     32  C   UNL     1      -4.161 -11.704   9.589  0.00  0.00    +0.042 A 
ATOM     33  C   UNL     1      -4.081  -9.317   9.225  0.00  0.00    +0.042 A 
ATOM     34  C   UNL     1      -4.535 -10.582   8.850  0.00  0.00    +0.124 A 
ENDBRANCH   3  29
ENDBRANCH  26   3
ENDBRANCH  23  26
ENDBRANCH  16  20
ENDBRANCH  11  16
TORSDOF 10
ENDMDL
MODEL 7
REMARK VINA RESULT:      -6.8     20.849     23.637
REMARK  Name = 45784038
REMARK  13 active torsions:
REMARK  status: ('A' for Active; 'I' for Inactive)
REMARK    1  A    between atoms: O_3  and  C_26
REMARK    2  A    between atoms: O_3  and  C_29
REMARK    3  A    between atoms: N_4  and  C_15
REMARK    4  A    between atoms: N_4  and  C_21
REMARK    5  A    between atoms: C_8  and  C_12
REMARK    6  A    between atoms: C_9  and  C_15
REMARK    7  A    between atoms: C_11  and  C_16
REMARK    8  A    between atoms: C_12  and  C_17
REMARK    9  A    between atoms: C_12  and  C_18
REMARK   10  A    between atoms: C_13  and  C_19
REMARK   11  A    between atoms: C_16  and  C_20
REMARK   12  A    between atoms: C_21  and  C_22
REMARK   13  A    between atoms: C_23  and  C_26
REMARK                            x       y       z     vdW  Elec       q    Type
REMARK                         _______ _______ _______ _____ _____    ______ ____
ROOT
ATOM      8  C   UNL     1      -5.993 -10.392   9.858  0.00  0.00    +0.000 C 
ATOM      9  C   UNL     1      -5.409  -9.385   8.836  0.00  0.00    +0.029 C 
ATOM     10  C   UNL     1      -5.525 -10.045  11.280  0.00  0.00    +0.012 C 
ATOM     11  C   UNL     1      -3.989 -10.056  11.406  0.00  0.00    +0.024 C 
ATOM     13  C   UNL     1      -3.325  -9.302  10.272  0.00  0.00    -0.073 C 
ATOM     14  C   UNL     1      -3.979  -9.000   9.136  0.00  0.00    -0.023 C 
ATOM     19  C   UNL     1      -1.905  -8.863  10.492  0.00  0.00    +0.039 C 
ENDROOT
BRANCH   8  12
ATOM     12  C   UNL     1      -7.524 -10.427   9.811  0.00  0.00    -0.013 C 
ATOM     17  C   UNL     1      -8.053 -11.626  10.592  0.00  0.00    +0.007 C 
ATOM     18  C   UNL     1      -8.103  -9.127  10.358  0.00  0.00    +0.007 C 
ENDBRANCH   8  12
BRANCH   9  15
ATOM     15  C   UNL     1      -5.500  -9.933   7.406  0.00  0.00    +0.089 C 
BRANCH  15   4
ATOM      4  N   UNL     1      -6.171  -8.983   6.536  0.00  0.00    -0.311 NA
ATOM     35  H   UNL     1      -6.130  -8.049   6.939  0.00  0.00    +0.122 HD
BRANCH   4  21
ATOM     21  C   UNL     1      -7.567  -9.356   6.330  0.00  0.00    +0.117 C 
BRANCH  21  22
ATOM      7  N   UNL     1      -8.856  -6.139   7.853  0.00  0.00    -0.263 NA
ATOM     22  C   UNL     1      -8.506  -8.246   6.721  0.00  0.00    -0.016 A 
ATOM     24  C   UNL     1      -9.843  -8.272   6.342  0.00  0.00    +0.008 A 
ATOM     25  C   UNL     1      -8.066  -7.166   7.469  0.00  0.00    +0.115 A 
ATOM     27  C   UNL     1     -10.688  -7.234   6.718  0.00  0.00    +0.020 A 
ATOM     28  C   UNL     1     -10.150  -6.200   7.467  0.00  0.00    +0.111 A 
ENDBRANCH  21  22
ENDBRANCH   4  21
ENDBRANCH  15   4
ENDBRANCH   9  15
BRANCH  11  16
ATOM     16  C   UNL     1      -3.453 -11.489  11.501  0.00  0.00    +0.105 C 
BRANCH  16  20
ATOM      2  O   UNL     1      -2.940 -10.807  13.787  0.00  0.00    -0.421 OA
ATOM      5  N   UNL     1      -1.923 -12.693  13.144  0.00  0.00    -0.112 NA
ATOM      6  N   UNL     1      -1.547 -12.428  14.448  0.00  0.00    -0.109 NA
ATOM     20  C   UNL     1      -2.736 -11.722  12.799  0.00  0.00    +0.218 A 
ATOM     23  C   UNL     1      -2.165 -11.318  14.781  0.00  0.00    +0.254 A 
BRANCH  23  26
ATOM     26  C   UNL     1      -2.134 -10.576  16.048  0.00  0.00    +0.326 C 
BRANCH  26   3
ATOM      3  O   UNL     1      -2.602 -11.402  17.118  0.00  0.00    -0.483 OA
BRANCH   3  29
ATOM      1  F   UNL     1      -7.664 -10.352  18.982  0.00  0.00    -0.205 F 
ATOM     29  C   UNL     1      -3.861 -11.142  17.582  0.00  0.00    +0.121 A 
ATOM     30  C   UNL     1      -4.303 -11.726  18.768  0.00  0.00    +0.048 A 
ATOM     31  C   UNL     1      -4.705 -10.290  16.867  0.00  0.00    +0.048 A 
ATOM     32  C   UNL     1      -5.587 -11.459  19.242  0.00  0.00    +0.042 A 
ATOM     33  C   UNL     1      -5.990 -10.024  17.341  0.00  0.00    +0.042 A 
ATOM     34  C   UNL     1      -6.430 -10.608  18.528  0.00  0.00    +0.124 A 
ENDBRANCH   3  29
ENDBRANCH  26   3
ENDBRANCH  23  26
ENDBRANCH  16  20
ENDBRANCH  11  16
TORSDOF 10
ENDMDL
MODEL 8
REMARK VINA RESULT:      -6.7     30.349     34.280
REMARK  Name = 45784038
REMARK  13 active torsions:
REMARK  status: ('A' for Active; 'I' for Inactive)
REMARK    1  A    between atoms: O_3  and  C_26
REMARK    2  A    between atoms: O_3  and  C_29
REMARK    3  A    between atoms: N_4  and  C_15
REMARK    4  A    between atoms: N_4  and  C_21
REMARK    5  A    between atoms: C_8  and  C_12
REMARK    6  A    between atoms: C_9  and  C_15
REMARK    7  A    between atoms: C_11  and  C_16
REMARK    8  A    between atoms: C_12  and  C_17
REMARK    9  A    between atoms: C_12  and  C_18
REMARK   10  A    between atoms: C_13  and  C_19
REMARK   11  A    between atoms: C_16  and  C_20
REMARK   12  A    between atoms: C_21  and  C_22
REMARK   13  A    between atoms: C_23  and  C_26
REMARK                            x       y       z     vdW  Elec       q    Type
REMARK                         _______ _______ _______ _____ _____    ______ ____
ROOT
ATOM      8  C   UNL     1      10.328   7.143   4.293  0.00  0.00    +0.000 C 
ATOM      9  C   UNL     1       8.859   6.815   4.659  0.00  0.00    +0.029 C 
ATOM     10  C   UNL     1      11.290   6.215   5.050  0.00  0.00    +0.012 C 
ATOM     11  C   UNL     1      11.130   6.334   6.579  0.00  0.00    +0.024 C 
ATOM     13  C   UNL     1       9.674   6.289   6.998  0.00  0.00    -0.073 C 
ATOM     14  C   UNL     1       8.672   6.493   6.123  0.00  0.00    -0.023 C 
ATOM     19  C   UNL     1       9.395   5.957   8.437  0.00  0.00    +0.039 C 
ENDROOT
BRANCH   8  12
ATOM     12  C   UNL     1      10.577   7.027   2.785  0.00  0.00    -0.013 C 
ATOM     17  C   UNL     1      12.030   7.363   2.459  0.00  0.00    +0.007 C 
ATOM     18  C   UNL     1      10.222   5.628   2.292  0.00  0.00    +0.007 C 
ENDBRANCH   8  12
BRANCH   9  15
ATOM     15  C   UNL     1       7.921   7.963   4.265  0.00  0.00    +0.089 C 
BRANCH  15   4
ATOM      4  N   UNL     1       7.715   8.863   5.387  0.00  0.00    -0.311 NA
ATOM     35  H   UNL     1       6.721   9.046   5.510  0.00  0.00    +0.122 HD
BRANCH   4  21
ATOM     21  C   UNL     1       8.414  10.127   5.180  0.00  0.00    +0.117 C 
BRANCH  21  22
ATOM      7  N   UNL     1      11.569  11.277   6.927  0.00  0.00    -0.263 NA
ATOM     22  C   UNL     1       9.414  10.398   6.272  0.00  0.00    -0.016 A 
ATOM     24  C   UNL     1       9.148  10.048   7.591  0.00  0.00    +0.008 A 
ATOM     25  C   UNL     1      10.628  11.005   5.995  0.00  0.00    +0.115 A 
ATOM     27  C   UNL     1      10.091  10.310   8.578  0.00  0.00    +0.020 A 
ATOM     28  C   UNL     1      11.275  10.921   8.198  0.00  0.00    +0.111 A 
ENDBRANCH  21  22
ENDBRANCH   4  21
ENDBRANCH  15   4
ENDBRANCH   9  15
BRANCH  11  16
ATOM     16  C   UNL     1      11.814   7.598   7.109  0.00  0.00    +0.105 C 
BRANCH  16  20
ATOM      2  O   UNL     1      13.723   8.679   6.040  0.00  0.00    -0.421 OA
ATOM      5  N   UNL     1      14.216   6.749   7.058  0.00  0.00    -0.112 NA
ATOM      6  N   UNL     1      15.379   7.248   6.501  0.00  0.00    -0.109 NA
ATOM     20  C   UNL     1      13.276   7.617   6.764  0.00  0.00    +0.218 A 
ATOM     23  C   UNL     1      15.043   8.374   5.917  0.00  0.00    +0.254 A 
BRANCH  23  26
ATOM     26  C   UNL     1      15.878   9.326   5.173  0.00  0.00    +0.326 C 
BRANCH  26   3
ATOM      3  O   UNL     1      17.020   9.698   5.951  0.00  0.00    -0.483 OA
BRANCH   3  29
ATOM      1  F   UNL     1      21.634   6.853   5.045  0.00  0.00    -0.205 F 
ATOM     29  C   UNL     1      18.166   8.991   5.725  0.00  0.00    +0.121 A 
ATOM     30  C   UNL     1      18.408   8.434   4.469  0.00  0.00    +0.048 A 
ATOM     31  C   UNL     1      19.097   8.825   6.752  0.00  0.00    +0.048 A 
ATOM     32  C   UNL     1      19.580   7.713   4.239  0.00  0.00    +0.042 A 
ATOM     33  C   UNL     1      20.267   8.102   6.522  0.00  0.00    +0.042 A 
ATOM     34  C   UNL     1      20.509   7.547   5.266  0.00  0.00    +0.124 A 
ENDBRANCH   3  29
ENDBRANCH  26   3
ENDBRANCH  23  26
ENDBRANCH  16  20
ENDBRANCH  11  16
TORSDOF 10
ENDMDL
MODEL 9
REMARK VINA RESULT:      -6.7     32.712     34.558
REMARK  Name = 45784038
REMARK  13 active torsions:
REMARK  status: ('A' for Active; 'I' for Inactive)
REMARK    1  A    between atoms: O_3  and  C_26
REMARK    2  A    between atoms: O_3  and  C_29
REMARK    3  A    between atoms: N_4  and  C_15
REMARK    4  A    between atoms: N_4  and  C_21
REMARK    5  A    between atoms: C_8  and  C_12
REMARK    6  A    between atoms: C_9  and  C_15
REMARK    7  A    between atoms: C_11  and  C_16
REMARK    8  A    between atoms: C_12  and  C_17
REMARK    9  A    between atoms: C_12  and  C_18
REMARK   10  A    between atoms: C_13  and  C_19
REMARK   11  A    between atoms: C_16  and  C_20
REMARK   12  A    between atoms: C_21  and  C_22
REMARK   13  A    between atoms: C_23  and  C_26
REMARK                            x       y       z     vdW  Elec       q    Type
REMARK                         _______ _______ _______ _____ _____    ______ ____
ROOT
ATOM      8  C   UNL     1      17.803  -5.732  24.855  0.00  0.00    +0.000 C 
ATOM      9  C   UNL     1      17.296  -5.718  23.390  0.00  0.00    +0.029 C 
ATOM     10  C   UNL     1      16.996  -4.744  25.711  0.00  0.00    +0.012 C 
ATOM     11  C   UNL     1      17.087  -3.301  25.177  0.00  0.00    +0.024 C 
ATOM     13  C   UNL     1      16.862  -3.240  23.679  0.00  0.00    -0.073 C 
ATOM     14  C   UNL     1      16.947  -4.333  22.899  0.00  0.00    -0.023 C 
ATOM     19  C   UNL     1      16.492  -1.902  23.105  0.00  0.00    +0.039 C 
ENDROOT
BRANCH   8  12
ATOM     12  C   UNL     1      17.725  -7.133  25.470  0.00  0.00    -0.013 C 
ATOM     17  C   UNL     1      18.636  -7.229  26.690  0.00  0.00    +0.007 C 
ATOM     18  C   UNL     1      16.286  -7.473  25.841  0.00  0.00    +0.007 C 
ENDBRANCH   8  12
BRANCH   9  15
ATOM     15  C   UNL     1      18.323  -6.352  22.444  0.00  0.00    +0.089 C 
BRANCH  15   4
ATOM      4  N   UNL     1      19.384  -5.410  22.135  0.00  0.00    -0.311 NA
ATOM     35  H   UNL     1      19.283  -5.069  21.181  0.00  0.00    +0.122 HD
BRANCH   4  21
ATOM     21  C   UNL     1      20.696  -6.030  22.286  0.00  0.00    +0.117 C 
BRANCH  21  22
ATOM      7  N   UNL     1      22.147  -7.075  25.623  0.00  0.00    -0.263 NA
ATOM     22  C   UNL     1      21.191  -5.954  23.706  0.00  0.00    -0.016 A 
ATOM     24  C   UNL     1      21.164  -4.756  24.411  0.00  0.00    +0.008 A 
ATOM     25  C   UNL     1      21.688  -7.075  24.351  0.00  0.00    +0.115 A 
ATOM     27  C   UNL     1      21.627  -4.716  25.721  0.00  0.00    +0.020 A 
ATOM     28  C   UNL     1      22.104  -5.892  26.277  0.00  0.00    +0.111 A 
ENDBRANCH  21  22
ENDBRANCH   4  21
ENDBRANCH  15   4
ENDBRANCH   9  15
BRANCH  11  16
ATOM     16  C   UNL     1      18.423  -2.655  25.558  0.00  0.00    +0.105 C 
BRANCH  16  20
ATOM      2  O   UNL     1      17.412  -2.518  27.775  0.00  0.00    -0.421 OA
ATOM      5  N   UNL     1      19.646  -2.403  27.779  0.00  0.00    -0.112 NA
ATOM      6  N   UNL     1      19.211  -2.315  29.089  0.00  0.00    -0.109 NA
ATOM     20  C   UNL     1      18.563  -2.521  27.047  0.00  0.00    +0.218 A 
ATOM     23  C   UNL     1      17.902  -2.386  29.037  0.00  0.00    +0.254 A 
BRANCH  23  26
ATOM     26  C   UNL     1      16.920  -2.347  30.129  0.00  0.00    +0.326 C 
BRANCH  26   3
ATOM      3  O   UNL     1      16.969  -3.561  30.884  0.00  0.00    -0.483 OA
BRANCH   3  29
ATOM      1  F   UNL     1      12.842  -7.103  30.092  0.00  0.00    -0.205 F 
ATOM     29  C   UNL     1      15.943  -4.441  30.688  0.00  0.00    +0.121 A 
ATOM     30  C   UNL     1      14.805  -4.378  31.491  0.00  0.00    +0.048 A 
ATOM     31  C   UNL     1      16.034  -5.405  29.682  0.00  0.00    +0.048 A 
ATOM     32  C   UNL     1      13.757  -5.276  31.289  0.00  0.00    +0.042 A 
ATOM     33  C   UNL     1      14.986  -6.304  29.482  0.00  0.00    +0.042 A 
ATOM     34  C   UNL     1      13.848  -6.240  30.285  0.00  0.00    +0.124 A 
ENDBRANCH   3  29
ENDBRANCH  26   3
ENDBRANCH  23  26
ENDBRANCH  16  20
ENDBRANCH  11  16
TORSDOF 10
ENDMDL
MODEL 10
REMARK VINA RESULT:      -6.6     41.663     44.090
REMARK  Name = 45784038
REMARK  13 active torsions:
REMARK  status: ('A' for Active; 'I' for Inactive)
REMARK    1  A    between atoms: O_3  and  C_26
REMARK    2  A    between atoms: O_3  and  C_29
REMARK    3  A    between atoms: N_4  and  C_15
REMARK    4  A    between atoms: N_4  and  C_21
REMARK    5  A    between atoms: C_8  and  C_12
REMARK    6  A    between atoms: C_9  and  C_15
REMARK    7  A    between atoms: C_11  and  C_16
REMARK    8  A    between atoms: C_12  and  C_17
REMARK    9  A    between atoms: C_12  and  C_18
REMARK   10  A    between atoms: C_13  and  C_19
REMARK   11  A    between atoms: C_16  and  C_20
REMARK   12  A    between atoms: C_21  and  C_22
REMARK   13  A    between atoms: C_23  and  C_26
REMARK                            x       y       z     vdW  Elec       q    Type
REMARK                         _______ _______ _______ _____ _____    ______ ____
ROOT
ATOM      8  C   UNL     1      17.980  -6.193  -4.870  0.00  0.00    +0.000 C 
ATOM      9  C   UNL     1      16.523  -5.699  -5.052  0.00  0.00    +0.029 C 
ATOM     10  C   UNL     1      18.041  -7.726  -4.953  0.00  0.00    +0.012 C 
ATOM     11  C   UNL     1      17.160  -8.402  -3.884  0.00  0.00    +0.024 C 
ATOM     13  C   UNL     1      15.779  -7.782  -3.819  0.00  0.00    -0.073 C 
ATOM     14  C   UNL     1      15.510  -6.579  -4.358  0.00  0.00    -0.023 C 
ATOM     19  C   UNL     1      14.702  -8.596  -3.159  0.00  0.00    +0.039 C 
ENDROOT
BRANCH   8  12
ATOM     12  C   UNL     1      18.922  -5.581  -5.913  0.00  0.00    -0.013 C 
ATOM     17  C   UNL     1      20.220  -5.123  -5.253  0.00  0.00    +0.007 C 
ATOM     18  C   UNL     1      19.206  -6.582  -7.027  0.00  0.00    +0.007 C 
ENDBRANCH   8  12
BRANCH   9  15
ATOM     15  C   UNL     1      16.364  -4.254  -4.565  0.00  0.00    +0.089 C 
BRANCH  15   4
ATOM      4  N   UNL     1      16.160  -4.218  -3.127  0.00  0.00    -0.311 NA
ATOM     35  H   UNL     1      15.175  -4.069  -2.917  0.00  0.00    +0.122 HD
BRANCH   4  21
ATOM     21  C   UNL     1      16.949  -3.156  -2.512  0.00  0.00    +0.117 C 
BRANCH  21  22
ATOM      7  N   UNL     1      20.706  -3.237  -2.057  0.00  0.00    -0.263 NA
ATOM     22  C   UNL     1      18.322  -3.634  -2.121  0.00  0.00    -0.016 A 
ATOM     24  C   UNL     1      18.502  -4.858  -1.488  0.00  0.00    +0.008 A 
ATOM     25  C   UNL     1      19.447  -2.867  -2.381  0.00  0.00    +0.115 A 
ATOM     27  C   UNL     1      19.782  -5.274  -1.138  0.00  0.00    +0.020 A 
ATOM     28  C   UNL     1      20.841  -4.434  -1.442  0.00  0.00    +0.111 A 
ENDBRANCH  21  22
ENDBRANCH   4  21
ENDBRANCH  15   4
ENDBRANCH   9  15
BRANCH  11  16
ATOM     16  C   UNL     1      17.839  -8.374  -2.510  0.00  0.00    +0.105 C 
BRANCH  16  20
ATOM      2  O   UNL     1      17.173 -10.424  -1.366  0.00  0.00    -0.421 OA
ATOM      5  N   UNL     1      19.268 -10.453  -2.150  0.00  0.00    -0.112 NA
ATOM      6  N   UNL     1      19.027 -11.666  -1.531  0.00  0.00    -0.109 NA
ATOM     20  C   UNL     1      18.159  -9.761  -2.029  0.00  0.00    +0.218 A 
ATOM     23  C   UNL     1      17.793 -11.603  -1.089  0.00  0.00    +0.254 A 
BRANCH  23  26
ATOM     26  C   UNL     1      17.010 -12.609  -0.357  0.00  0.00    +0.326 C 
BRANCH  26   3
ATOM      3  O   UNL     1      15.888 -11.994   0.282  0.00  0.00    -0.483 OA
BRANCH   3  29
ATOM      1  F   UNL     1      15.306 -12.961   5.661  0.00  0.00    -0.205 F 
ATOM     29  C   UNL     1      15.743 -12.235   1.619  0.00  0.00    +0.121 A 
ATOM     30  C   UNL     1      15.215 -13.450   2.057  0.00  0.00    +0.048 A 
ATOM     31  C   UNL     1      16.122 -11.265   2.548  0.00  0.00    +0.048 A 
ATOM     32  C   UNL     1      15.068 -13.696   3.422  0.00  0.00    +0.042 A 
ATOM     33  C   UNL     1      15.974 -11.510   3.913  0.00  0.00    +0.042 A 
ATOM     34  C   UNL     1      15.447 -12.726   4.350  0.00  0.00    +0.124 A 
ENDBRANCH   3  29
ENDBRANCH  26   3
ENDBRANCH  23  26
ENDBRANCH  16  20
ENDBRANCH  11  16
TORSDOF 10
ENDMDL
