MODEL 1
REMARK VINA RESULT:      -6.1      0.000      0.000
REMARK  Name = 11866344
REMARK  12 active torsions:
REMARK  status: ('A' for Active; 'I' for Inactive)
REMARK    1  A    between atoms: O_2  and  C_20
REMARK    2  A    between atoms: O_3  and  C_21
REMARK    3  A    between atoms: O_5  and  C_22
REMARK    4  A    between atoms: N_8  and  C_19
REMARK    5  A    between atoms: N_9  and  C_27
REMARK    6  A    between atoms: C_11  and  C_16
REMARK    7  A    between atoms: C_11  and  C_17
REMARK    8  A    between atoms: C_16  and  C_18
REMARK    9  A    between atoms: C_17  and  C_20
REMARK   10  A    between atoms: C_25  and  C_26
REMARK   11  A    between atoms: C_27  and  C_28
REMARK   12  A    between atoms: C_28  and  C_29
REMARK                            x       y       z     vdW  Elec       q    Type
REMARK                         _______ _______ _______ _____ _____    ______ ____
ROOT
ATOM     19  C   UNL     1     -16.940   4.058  25.635  0.00  0.00    +0.127 C 
ATOM     21  C   UNL     1     -16.773   2.728  24.875  0.00  0.00    +0.167 C 
ATOM     22  C   UNL     1     -17.209   1.533  25.732  0.00  0.00    +0.149 C 
ATOM     23  C   UNL     1     -16.458   1.478  27.073  0.00  0.00    +0.074 C 
ATOM     24  C   UNL     1     -16.458   3.994  27.059  0.00  0.00    +0.006 C 
ATOM     25  C   UNL     1     -16.237   2.831  27.688  0.00  0.00    +0.015 C 
ENDROOT
BRANCH  19   8
ATOM      1  O   UNL     1     -17.945   5.646  23.434  0.00  0.00    -0.276 OA
ATOM      8  N   UNL     1     -16.268   5.143  24.963  0.00  0.00    -0.306 N 
ATOM     18  C   UNL     1     -16.832   5.852  23.910  0.00  0.00    +0.214 C 
ATOM     30  H   UNL     1     -15.354   5.414  25.313  0.00  0.00    +0.149 HD
BRANCH  18  16
ATOM     16  C   UNL     1     -15.899   6.936  23.403  0.00  0.00    +0.103 C 
BRANCH  16  11
ATOM     11  C   UNL     1     -15.340   6.627  22.012  0.00  0.00    -0.011 C 
ATOM     12  C   UNL     1     -16.386   6.871  20.916  0.00  0.00    +0.008 C 
ATOM     13  C   UNL     1     -14.236   7.617  21.615  0.00  0.00    +0.008 C 
ATOM     14  C   UNL     1     -15.577   7.098  19.640  0.00  0.00    +0.001 C 
ATOM     15  C   UNL     1     -14.196   7.576  20.090  0.00  0.00    +0.001 C 
BRANCH  11  17
ATOM     17  C   UNL     1     -14.827   5.179  21.983  0.00  0.00    +0.127 C 
BRANCH  17  20
ATOM      4  O   UNL     1     -12.392   5.321  21.964  0.00  0.00    -0.251 OA
ATOM     20  C   UNL     1     -13.439   5.079  22.546  0.00  0.00    +0.305 C 
BRANCH  20   2
ATOM      2  O   UNL     1     -13.506   4.668  23.838  0.00  0.00    -0.481 OA
ATOM     31  H   UNL     1     -14.359   4.224  24.036  0.00  0.00    +0.295 HD
ENDBRANCH  20   2
ENDBRANCH  17  20
ENDBRANCH  11  17
ENDBRANCH  16  11
ENDBRANCH  18  16
ENDBRANCH  19   8
BRANCH  25  26
ATOM      6  O   UNL     1     -16.456   3.411  29.955  0.00  0.00    -0.271 OA
ATOM      9  N   UNL     1     -14.522   2.315  29.251  0.00  0.00    -0.311 N 
ATOM     26  C   UNL     1     -15.769   2.889  29.077  0.00  0.00    +0.240 C 
ATOM     34  H   UNL     1     -14.041   1.903  28.455  0.00  0.00    +0.149 HD
BRANCH   9  27
ATOM     27  C   UNL     1     -13.852   2.256  30.530  0.00  0.00    +0.113 C 
BRANCH  27  28
ATOM     28  C   UNL     1     -13.839   0.849  31.109  0.00  0.00    +0.114 C 
BRANCH  28  29
ATOM      7  O   UNL     1     -14.955  -0.546  29.464  0.00  0.00    -0.276 OA
ATOM     10  N   UNL     1     -12.708  -0.854  29.839  0.00  0.00    -0.329 N 
ATOM     29  C   UNL     1     -13.923  -0.238  30.053  0.00  0.00    +0.212 C 
ATOM     35  H   UNL     1     -12.615  -1.603  29.161  0.00  0.00    +0.145 HD
ATOM     36  H   UNL     1     -11.868  -0.585  30.341  0.00  0.00    +0.145 HD
ENDBRANCH  28  29
ENDBRANCH  27  28
ENDBRANCH   9  27
ENDBRANCH  25  26
BRANCH  21   3
ATOM      3  O   UNL     1     -15.403   2.554  24.507  0.00  0.00    -0.387 OA
ATOM     32  H   UNL     1     -15.259   1.604  24.357  0.00  0.00    +0.210 HD
ENDBRANCH  21   3
BRANCH  22   5
ATOM      5  O   UNL     1     -18.616   1.579  25.960  0.00  0.00    -0.389 OA
ATOM     33  H   UNL     1     -18.774   1.307  26.881  0.00  0.00    +0.210 HD
ENDBRANCH  22   5
TORSDOF 12
ENDMDL
MODEL 2
REMARK VINA RESULT:      -5.9     28.329     30.997
REMARK  Name = 11866344
REMARK  12 active torsions:
REMARK  status: ('A' for Active; 'I' for Inactive)
REMARK    1  A    between atoms: O_2  and  C_20
REMARK    2  A    between atoms: O_3  and  C_21
REMARK    3  A    between atoms: O_5  and  C_22
REMARK    4  A    between atoms: N_8  and  C_19
REMARK    5  A    between atoms: N_9  and  C_27
REMARK    6  A    between atoms: C_11  and  C_16
REMARK    7  A    between atoms: C_11  and  C_17
REMARK    8  A    between atoms: C_16  and  C_18
REMARK    9  A    between atoms: C_17  and  C_20
REMARK   10  A    between atoms: C_25  and  C_26
REMARK   11  A    between atoms: C_27  and  C_28
REMARK   12  A    between atoms: C_28  and  C_29
REMARK                            x       y       z     vdW  Elec       q    Type
REMARK                         _______ _______ _______ _____ _____    ______ ____
ROOT
ATOM     19  C   UNL     1      12.410   8.952  19.788  0.00  0.00    +0.127 C 
ATOM     21  C   UNL     1      12.503   9.227  18.275  0.00  0.00    +0.167 C 
ATOM     22  C   UNL     1      12.958   7.980  17.505  0.00  0.00    +0.149 C 
ATOM     23  C   UNL     1      14.295   7.432  18.030  0.00  0.00    +0.074 C 
ATOM     24  C   UNL     1      13.581   8.177  20.325  0.00  0.00    +0.006 C 
ATOM     25  C   UNL     1      14.424   7.507  19.525  0.00  0.00    +0.015 C 
ENDROOT
BRANCH  19   8
ATOM      1  O   UNL     1      11.162   9.280  22.378  0.00  0.00    -0.276 OA
ATOM      8  N   UNL     1      12.273  10.174  20.543  0.00  0.00    -0.306 N 
ATOM     18  C   UNL     1      11.655  10.235  21.785  0.00  0.00    +0.214 C 
ATOM     30  H   UNL     1      12.687  11.014  20.151  0.00  0.00    +0.149 HD
BRANCH  18  16
ATOM     16  C   UNL     1      11.661  11.646  22.343  0.00  0.00    +0.103 C 
BRANCH  16  11
ATOM     11  C   UNL     1      12.941  11.968  23.118  0.00  0.00    -0.011 C 
ATOM     12  C   UNL     1      13.957  10.822  23.030  0.00  0.00    +0.008 C 
ATOM     13  C   UNL     1      13.717  13.123  22.472  0.00  0.00    +0.008 C 
ATOM     14  C   UNL     1      15.312  11.471  23.306  0.00  0.00    +0.001 C 
ATOM     15  C   UNL     1      15.157  12.950  22.949  0.00  0.00    +0.001 C 
BRANCH  11  17
ATOM     17  C   UNL     1      12.582  12.285  24.579  0.00  0.00    +0.127 C 
BRANCH  17  20
ATOM      4  O   UNL     1      10.165  12.388  24.886  0.00  0.00    -0.251 OA
ATOM     20  C   UNL     1      11.217  11.769  24.931  0.00  0.00    +0.305 C 
BRANCH  20   2
ATOM      2  O   UNL     1      11.313  10.472  25.319  0.00  0.00    -0.481 OA
ATOM     31  H   UNL     1      10.564  10.206  25.895  0.00  0.00    +0.295 HD
ENDBRANCH  20   2
ENDBRANCH  17  20
ENDBRANCH  11  17
ENDBRANCH  16  11
ENDBRANCH  18  16
ENDBRANCH  19   8
BRANCH  25  26
ATOM      6  O   UNL     1      15.443   6.383  21.321  0.00  0.00    -0.271 OA
ATOM      9  N   UNL     1      16.624   6.628  19.325  0.00  0.00    -0.311 N 
ATOM     26  C   UNL     1      15.531   6.784  20.160  0.00  0.00    +0.240 C 
ATOM     34  H   UNL     1      16.589   6.993  18.377  0.00  0.00    +0.149 HD
BRANCH   9  27
ATOM     27  C   UNL     1      17.836   5.952  19.729  0.00  0.00    +0.113 C 
BRANCH  27  28
ATOM     28  C   UNL     1      18.773   6.866  20.506  0.00  0.00    +0.114 C 
BRANCH  28  29
ATOM      7  O   UNL     1      20.194   6.067  22.306  0.00  0.00    -0.276 OA
ATOM     10  N   UNL     1      20.774   5.581  20.136  0.00  0.00    -0.329 N 
ATOM     29  C   UNL     1      19.965   6.140  21.102  0.00  0.00    +0.212 C 
ATOM     35  H   UNL     1      21.611   5.067  20.389  0.00  0.00    +0.145 HD
ATOM     36  H   UNL     1      20.567   5.658  19.145  0.00  0.00    +0.145 HD
ENDBRANCH  28  29
ENDBRANCH  27  28
ENDBRANCH   9  27
ENDBRANCH  25  26
BRANCH  21   3
ATOM      3  O   UNL     1      13.438  10.281  18.035  0.00  0.00    -0.387 OA
ATOM     32  H   UNL     1      14.293  10.004  18.405  0.00  0.00    +0.210 HD
ENDBRANCH  21   3
BRANCH  22   5
ATOM      5  O   UNL     1      11.955   6.970  17.569  0.00  0.00    -0.389 OA
ATOM     33  H   UNL     1      11.155   7.373  17.949  0.00  0.00    +0.210 HD
ENDBRANCH  22   5
TORSDOF 12
ENDMDL
MODEL 3
REMARK VINA RESULT:      -5.7      2.160      7.779
REMARK  Name = 11866344
REMARK  12 active torsions:
REMARK  status: ('A' for Active; 'I' for Inactive)
REMARK    1  A    between atoms: O_2  and  C_20
REMARK    2  A    between atoms: O_3  and  C_21
REMARK    3  A    between atoms: O_5  and  C_22
REMARK    4  A    between atoms: N_8  and  C_19
REMARK    5  A    between atoms: N_9  and  C_27
REMARK    6  A    between atoms: C_11  and  C_16
REMARK    7  A    between atoms: C_11  and  C_17
REMARK    8  A    between atoms: C_16  and  C_18
REMARK    9  A    between atoms: C_17  and  C_20
REMARK   10  A    between atoms: C_25  and  C_26
REMARK   11  A    between atoms: C_27  and  C_28
REMARK   12  A    between atoms: C_28  and  C_29
REMARK                            x       y       z     vdW  Elec       q    Type
REMARK                         _______ _______ _______ _____ _____    ______ ____
ROOT
ATOM     19  C   UNL     1     -16.838   1.133  26.555  0.00  0.00    +0.127 C 
ATOM     21  C   UNL     1     -18.150   0.413  26.190  0.00  0.00    +0.167 C 
ATOM     22  C   UNL     1     -18.303   0.260  24.671  0.00  0.00    +0.149 C 
ATOM     23  C   UNL     1     -18.217   1.611  23.942  0.00  0.00    +0.074 C 
ATOM     24  C   UNL     1     -16.557   2.332  25.692  0.00  0.00    +0.006 C 
ATOM     25  C   UNL     1     -17.189   2.539  24.527  0.00  0.00    +0.015 C 
ENDROOT
BRANCH  19   8
ATOM      1  O   UNL     1     -15.030   0.231  28.627  0.00  0.00    -0.276 OA
ATOM      8  N   UNL     1     -16.823   1.541  27.940  0.00  0.00    -0.306 N 
ATOM     18  C   UNL     1     -15.911   1.051  28.866  0.00  0.00    +0.214 C 
ATOM     30  H   UNL     1     -17.492   2.248  28.225  0.00  0.00    +0.149 HD
BRANCH  18  16
ATOM     16  C   UNL     1     -16.131   1.658  30.239  0.00  0.00    +0.103 C 
BRANCH  16  11
ATOM     11  C   UNL     1     -15.113   2.753  30.567  0.00  0.00    -0.011 C 
ATOM     12  C   UNL     1     -15.407   3.411  31.921  0.00  0.00    +0.008 C 
ATOM     13  C   UNL     1     -13.712   2.170  30.802  0.00  0.00    +0.008 C 
ATOM     14  C   UNL     1     -14.075   4.008  32.371  0.00  0.00    +0.001 C 
ATOM     15  C   UNL     1     -12.986   3.211  31.650  0.00  0.00    +0.001 C 
BRANCH  11  17
ATOM     17  C   UNL     1     -15.102   3.790  29.433  0.00  0.00    +0.127 C 
BRANCH  17  20
ATOM      4  O   UNL     1     -16.242   5.810  30.186  0.00  0.00    -0.251 OA
ATOM     20  C   UNL     1     -16.242   4.758  29.565  0.00  0.00    +0.305 C 
BRANCH  20   2
ATOM      2  O   UNL     1     -17.313   4.288  28.876  0.00  0.00    -0.481 OA
ATOM     31  H   UNL     1     -18.129   4.792  29.080  0.00  0.00    +0.295 HD
ENDBRANCH  20   2
ENDBRANCH  17  20
ENDBRANCH  11  17
ENDBRANCH  16  11
ENDBRANCH  18  16
ENDBRANCH  19   8
BRANCH  25  26
ATOM      6  O   UNL     1     -17.614   4.227  22.948  0.00  0.00    -0.271 OA
ATOM      9  N   UNL     1     -15.575   4.225  24.078  0.00  0.00    -0.311 N 
ATOM     26  C   UNL     1     -16.834   3.742  23.767  0.00  0.00    +0.240 C 
ATOM     34  H   UNL     1     -15.013   3.751  24.780  0.00  0.00    +0.149 HD
BRANCH   9  27
ATOM     27  C   UNL     1     -15.004   5.398  23.457  0.00  0.00    +0.113 C 
BRANCH  27  28
ATOM     28  C   UNL     1     -14.410   5.094  22.089  0.00  0.00    +0.114 C 
BRANCH  28  29
ATOM      7  O   UNL     1     -12.300   6.039  21.344  0.00  0.00    -0.276 OA
ATOM     10  N   UNL     1     -12.269   4.322  22.872  0.00  0.00    -0.329 N 
ATOM     29  C   UNL     1     -12.899   5.227  22.045  0.00  0.00    +0.212 C 
ATOM     35  H   UNL     1     -11.257   4.295  22.941  0.00  0.00    +0.145 HD
ATOM     36  H   UNL     1     -12.784   3.656  23.440  0.00  0.00    +0.145 HD
ENDBRANCH  28  29
ENDBRANCH  27  28
ENDBRANCH   9  27
ENDBRANCH  25  26
BRANCH  21   3
ATOM      3  O   UNL     1     -19.262   1.158  26.691  0.00  0.00    -0.387 OA
ATOM     32  H   UNL     1     -19.468   0.815  27.578  0.00  0.00    +0.210 HD
ENDBRANCH  21   3
BRANCH  22   5
ATOM      5  O   UNL     1     -17.314  -0.634  24.166  0.00  0.00    -0.389 OA
ATOM     33  H   UNL     1     -17.006  -1.182  24.908  0.00  0.00    +0.210 HD
ENDBRANCH  22   5
TORSDOF 12
ENDMDL
MODEL 4
REMARK VINA RESULT:      -5.7      1.656      2.327
REMARK  Name = 11866344
REMARK  12 active torsions:
REMARK  status: ('A' for Active; 'I' for Inactive)
REMARK    1  A    between atoms: O_2  and  C_20
REMARK    2  A    between atoms: O_3  and  C_21
REMARK    3  A    between atoms: O_5  and  C_22
REMARK    4  A    between atoms: N_8  and  C_19
REMARK    5  A    between atoms: N_9  and  C_27
REMARK    6  A    between atoms: C_11  and  C_16
REMARK    7  A    between atoms: C_11  and  C_17
REMARK    8  A    between atoms: C_16  and  C_18
REMARK    9  A    between atoms: C_17  and  C_20
REMARK   10  A    between atoms: C_25  and  C_26
REMARK   11  A    between atoms: C_27  and  C_28
REMARK   12  A    between atoms: C_28  and  C_29
REMARK                            x       y       z     vdW  Elec       q    Type
REMARK                         _______ _______ _______ _____ _____    ______ ____
ROOT
ATOM     19  C   UNL     1     -16.875   4.620  24.780  0.00  0.00    +0.127 C 
ATOM     21  C   UNL     1     -16.552   3.326  24.007  0.00  0.00    +0.167 C 
ATOM     22  C   UNL     1     -17.102   2.090  24.728  0.00  0.00    +0.149 C 
ATOM     23  C   UNL     1     -16.592   1.988  26.175  0.00  0.00    +0.074 C 
ATOM     24  C   UNL     1     -16.642   4.502  26.261  0.00  0.00    +0.006 C 
ATOM     25  C   UNL     1     -16.508   3.316  26.873  0.00  0.00    +0.015 C 
ENDROOT
BRANCH  19   8
ATOM      1  O   UNL     1     -17.257   6.003  22.267  0.00  0.00    -0.276 OA
ATOM      8  N   UNL     1     -16.120   5.742  24.277  0.00  0.00    -0.306 N 
ATOM     18  C   UNL     1     -16.377   6.344  23.051  0.00  0.00    +0.214 C 
ATOM     30  H   UNL     1     -15.394   6.123  24.876  0.00  0.00    +0.149 HD
BRANCH  18  16
ATOM     16  C   UNL     1     -15.430   7.500  22.787  0.00  0.00    +0.103 C 
BRANCH  16  11
ATOM     11  C   UNL     1     -14.420   7.191  21.679  0.00  0.00    -0.011 C 
ATOM     12  C   UNL     1     -13.332   8.268  21.591  0.00  0.00    +0.008 C 
ATOM     13  C   UNL     1     -13.593   5.939  22.002  0.00  0.00    +0.008 C 
ATOM     14  C   UNL     1     -12.147   7.581  20.915  0.00  0.00    +0.001 C 
ATOM     15  C   UNL     1     -12.316   6.084  21.179  0.00  0.00    +0.001 C 
BRANCH  11  17
ATOM     17  C   UNL     1     -15.166   7.037  20.344  0.00  0.00    +0.127 C 
BRANCH  17  20
ATOM      4  O   UNL     1     -15.289   9.302  19.449  0.00  0.00    -0.251 OA
ATOM     20  C   UNL     1     -15.829   8.321  19.937  0.00  0.00    +0.305 C 
BRANCH  20   2
ATOM      2  O   UNL     1     -17.159   8.241  20.194  0.00  0.00    -0.481 OA
ATOM     31  H   UNL     1     -17.398   7.393  20.625  0.00  0.00    +0.295 HD
ENDBRANCH  20   2
ENDBRANCH  17  20
ENDBRANCH  11  17
ENDBRANCH  16  11
ENDBRANCH  18  16
ENDBRANCH  19   8
BRANCH  25  26
ATOM      6  O   UNL     1     -17.150   3.739  29.094  0.00  0.00    -0.271 OA
ATOM      9  N   UNL     1     -15.045   2.827  28.681  0.00  0.00    -0.311 N 
ATOM     26  C   UNL     1     -16.286   3.322  28.322  0.00  0.00    +0.240 C 
ATOM     34  H   UNL     1     -14.406   2.500  27.961  0.00  0.00    +0.149 HD
BRANCH   9  27
ATOM     27  C   UNL     1     -14.596   2.737  30.052  0.00  0.00    +0.113 C 
BRANCH  27  28
ATOM     28  C   UNL     1     -13.608   1.599  30.261  0.00  0.00    +0.114 C 
BRANCH  28  29
ATOM      7  O   UNL     1     -15.281   0.048  29.428  0.00  0.00    -0.276 OA
ATOM     10  N   UNL     1     -13.138  -0.709  29.767  0.00  0.00    -0.329 N 
ATOM     29  C   UNL     1     -14.121   0.257  29.771  0.00  0.00    +0.212 C 
ATOM     35  H   UNL     1     -13.339  -1.657  29.465  0.00  0.00    +0.145 HD
ATOM     36  H   UNL     1     -12.185  -0.515  30.059  0.00  0.00    +0.145 HD
ENDBRANCH  28  29
ENDBRANCH  27  28
ENDBRANCH   9  27
ENDBRANCH  25  26
BRANCH  21   3
ATOM      3  O   UNL     1     -15.135   3.188  23.874  0.00  0.00    -0.387 OA
ATOM     32  H   UNL     1     -14.960   2.801  22.999  0.00  0.00    +0.210 HD
ENDBRANCH  21   3
BRANCH  22   5
ATOM      5  O   UNL     1     -18.528   2.106  24.712  0.00  0.00    -0.389 OA
ATOM     33  H   UNL     1     -18.809   2.979  24.387  0.00  0.00    +0.210 HD
ENDBRANCH  22   5
TORSDOF 12
ENDMDL
MODEL 5
REMARK VINA RESULT:      -5.6     28.175     30.908
REMARK  Name = 11866344
REMARK  12 active torsions:
REMARK  status: ('A' for Active; 'I' for Inactive)
REMARK    1  A    between atoms: O_2  and  C_20
REMARK    2  A    between atoms: O_3  and  C_21
REMARK    3  A    between atoms: O_5  and  C_22
REMARK    4  A    between atoms: N_8  and  C_19
REMARK    5  A    between atoms: N_9  and  C_27
REMARK    6  A    between atoms: C_11  and  C_16
REMARK    7  A    between atoms: C_11  and  C_17
REMARK    8  A    between atoms: C_16  and  C_18
REMARK    9  A    between atoms: C_17  and  C_20
REMARK   10  A    between atoms: C_25  and  C_26
REMARK   11  A    between atoms: C_27  and  C_28
REMARK   12  A    between atoms: C_28  and  C_29
REMARK                            x       y       z     vdW  Elec       q    Type
REMARK                         _______ _______ _______ _____ _____    ______ ____
ROOT
ATOM     19  C   UNL     1      12.403   9.147  19.743  0.00  0.00    +0.127 C 
ATOM     21  C   UNL     1      12.481   9.315  18.213  0.00  0.00    +0.167 C 
ATOM     22  C   UNL     1      13.026   8.051  17.537  0.00  0.00    +0.149 C 
ATOM     23  C   UNL     1      14.397   7.638  18.099  0.00  0.00    +0.074 C 
ATOM     24  C   UNL     1      13.624   8.499  20.334  0.00  0.00    +0.006 C 
ATOM     25  C   UNL     1      14.515   7.833  19.584  0.00  0.00    +0.015 C 
ENDROOT
BRANCH  19   8
ATOM      1  O   UNL     1      10.857   9.613  22.145  0.00  0.00    -0.276 OA
ATOM      8  N   UNL     1      12.177  10.409  20.406  0.00  0.00    -0.306 N 
ATOM     18  C   UNL     1      11.416  10.536  21.561  0.00  0.00    +0.214 C 
ATOM     30  H   UNL     1      12.635  11.228  20.018  0.00  0.00    +0.149 HD
BRANCH  18  16
ATOM     16  C   UNL     1      11.356  11.977  22.033  0.00  0.00    +0.103 C 
BRANCH  16  11
ATOM     11  C   UNL     1      12.592  12.385  22.838  0.00  0.00    -0.011 C 
ATOM     12  C   UNL     1      13.382  11.160  23.319  0.00  0.00    +0.008 C 
ATOM     13  C   UNL     1      13.628  13.098  21.958  0.00  0.00    +0.008 C 
ATOM     14  C   UNL     1      14.801  11.673  23.560  0.00  0.00    +0.001 C 
ATOM     15  C   UNL     1      14.958  12.919  22.686  0.00  0.00    +0.001 C 
BRANCH  11  17
ATOM     17  C   UNL     1      12.159  13.269  24.018  0.00  0.00    +0.127 C 
BRANCH  17  20
ATOM      4  O   UNL     1      10.657  11.766  25.215  0.00  0.00    -0.251 OA
ATOM     20  C   UNL     1      11.674  12.441  25.173  0.00  0.00    +0.305 C 
BRANCH  20   2
ATOM      2  O   UNL     1      12.552  12.548  26.203  0.00  0.00    -0.481 OA
ATOM     31  H   UNL     1      12.821  11.669  26.547  0.00  0.00    +0.295 HD
ENDBRANCH  20   2
ENDBRANCH  17  20
ENDBRANCH  11  17
ENDBRANCH  16  11
ENDBRANCH  18  16
ENDBRANCH  19   8
BRANCH  25  26
ATOM      6  O   UNL     1      15.675   6.049  20.583  0.00  0.00    -0.271 OA
ATOM      9  N   UNL     1      16.685   8.149  20.501  0.00  0.00    -0.311 N 
ATOM     26  C   UNL     1      15.669   7.240  20.269  0.00  0.00    +0.240 C 
ATOM     34  H   UNL     1      16.580   9.112  20.191  0.00  0.00    +0.149 HD
BRANCH   9  27
ATOM     27  C   UNL     1      17.921   7.799  21.164  0.00  0.00    +0.113 C 
BRANCH  27  28
ATOM     28  C   UNL     1      18.853   8.993  21.312  0.00  0.00    +0.114 C 
BRANCH  28  29
ATOM      7  O   UNL     1      17.644  10.977  20.604  0.00  0.00    -0.276 OA
ATOM     10  N   UNL     1      18.064  10.674  22.844  0.00  0.00    -0.329 N 
ATOM     29  C   UNL     1      18.121  10.307  21.516  0.00  0.00    +0.212 C 
ATOM     35  H   UNL     1      17.606  11.533  23.128  0.00  0.00    +0.145 HD
ATOM     36  H   UNL     1      18.470  10.106  23.581  0.00  0.00    +0.145 HD
ENDBRANCH  28  29
ENDBRANCH  27  28
ENDBRANCH   9  27
ENDBRANCH  25  26
BRANCH  21   3
ATOM      3  O   UNL     1      13.340  10.412  17.894  0.00  0.00    -0.387 OA
ATOM     32  H   UNL     1      13.134  11.134  18.513  0.00  0.00    +0.210 HD
ENDBRANCH  21   3
BRANCH  22   5
ATOM      5  O   UNL     1      12.096   6.979  17.679  0.00  0.00    -0.389 OA
ATOM     33  H   UNL     1      11.202   7.360  17.656  0.00  0.00    +0.210 HD
ENDBRANCH  22   5
TORSDOF 12
ENDMDL
MODEL 6
REMARK VINA RESULT:      -5.5     32.009     35.855
REMARK  Name = 11866344
REMARK  12 active torsions:
REMARK  status: ('A' for Active; 'I' for Inactive)
REMARK    1  A    between atoms: O_2  and  C_20
REMARK    2  A    between atoms: O_3  and  C_21
REMARK    3  A    between atoms: O_5  and  C_22
REMARK    4  A    between atoms: N_8  and  C_19
REMARK    5  A    between atoms: N_9  and  C_27
REMARK    6  A    between atoms: C_11  and  C_16
REMARK    7  A    between atoms: C_11  and  C_17
REMARK    8  A    between atoms: C_16  and  C_18
REMARK    9  A    between atoms: C_17  and  C_20
REMARK   10  A    between atoms: C_25  and  C_26
REMARK   11  A    between atoms: C_27  and  C_28
REMARK   12  A    between atoms: C_28  and  C_29
REMARK                            x       y       z     vdW  Elec       q    Type
REMARK                         _______ _______ _______ _____ _____    ______ ____
ROOT
ATOM     19  C   UNL     1      10.173   5.697   4.361  0.00  0.00    +0.127 C 
ATOM     21  C   UNL     1       9.487   4.966   5.532  0.00  0.00    +0.167 C 
ATOM     22  C   UNL     1       9.481   5.825   6.803  0.00  0.00    +0.149 C 
ATOM     23  C   UNL     1      10.897   6.269   7.208  0.00  0.00    +0.074 C 
ATOM     24  C   UNL     1      11.450   6.386   4.756  0.00  0.00    +0.006 C 
ATOM     25  C   UNL     1      11.767   6.628   6.037  0.00  0.00    +0.015 C 
ENDROOT
BRANCH  19   8
ATOM      1  O   UNL     1      10.008   6.293   1.534  0.00  0.00    -0.276 OA
ATOM      8  N   UNL     1      10.446   4.802   3.262  0.00  0.00    -0.306 N 
ATOM     18  C   UNL     1      10.339   5.180   1.930  0.00  0.00    +0.214 C 
ATOM     30  H   UNL     1      10.766   3.867   3.491  0.00  0.00    +0.149 HD
BRANCH  18  16
ATOM     16  C   UNL     1      10.689   4.036   0.996  0.00  0.00    +0.103 C 
BRANCH  16  11
ATOM     11  C   UNL     1      12.182   3.984   0.664  0.00  0.00    -0.011 C 
ATOM     12  C   UNL     1      12.861   5.339   0.899  0.00  0.00    +0.008 C 
ATOM     13  C   UNL     1      12.947   3.079   1.639  0.00  0.00    +0.008 C 
ATOM     14  C   UNL     1      14.340   5.013   1.102  0.00  0.00    +0.001 C 
ATOM     15  C   UNL     1      14.394   3.560   1.576  0.00  0.00    +0.001 C 
BRANCH  11  17
ATOM     17  C   UNL     1      12.361   3.514  -0.789  0.00  0.00    +0.127 C 
BRANCH  17  20
ATOM      4  O   UNL     1      11.187   5.279  -1.994  0.00  0.00    -0.251 OA
ATOM     20  C   UNL     1      11.313   4.104  -1.687  0.00  0.00    +0.305 C 
BRANCH  20   2
ATOM      2  O   UNL     1      10.493   3.116  -2.130  0.00  0.00    -0.481 OA
ATOM     31  H   UNL     1      10.990   2.410  -2.597  0.00  0.00    +0.295 HD
ENDBRANCH  20   2
ENDBRANCH  17  20
ENDBRANCH  11  17
ENDBRANCH  16  11
ENDBRANCH  18  16
ENDBRANCH  19   8
BRANCH  25  26
ATOM      6  O   UNL     1      13.154   8.086   7.251  0.00  0.00    -0.271 OA
ATOM      9  N   UNL     1      14.029   6.977   5.397  0.00  0.00    -0.311 N 
ATOM     26  C   UNL     1      13.038   7.308   6.304  0.00  0.00    +0.240 C 
ATOM     34  H   UNL     1      13.829   6.313   4.653  0.00  0.00    +0.149 HD
BRANCH   9  27
ATOM     27  C   UNL     1      15.366   7.523   5.454  0.00  0.00    +0.113 C 
BRANCH  27  28
ATOM     28  C   UNL     1      15.956   7.745   4.069  0.00  0.00    +0.114 C 
BRANCH  28  29
ATOM      7  O   UNL     1      14.051   8.214   2.638  0.00  0.00    -0.276 OA
ATOM     10  N   UNL     1      15.593   9.878   3.014  0.00  0.00    -0.329 N 
ATOM     29  C   UNL     1      15.085   8.606   3.173  0.00  0.00    +0.212 C 
ATOM     35  H   UNL     1      15.115  10.562   2.438  0.00  0.00    +0.145 HD
ATOM     36  H   UNL     1      16.452  10.178   3.464  0.00  0.00    +0.145 HD
ENDBRANCH  28  29
ENDBRANCH  27  28
ENDBRANCH   9  27
ENDBRANCH  25  26
BRANCH  21   3
ATOM      3  O   UNL     1      10.178   3.745   5.806  0.00  0.00    -0.387 OA
ATOM     32  H   UNL     1       9.539   3.131   6.207  0.00  0.00    +0.210 HD
ENDBRANCH  21   3
BRANCH  22   5
ATOM      5  O   UNL     1       8.643   6.964   6.622  0.00  0.00    -0.389 OA
ATOM     33  H   UNL     1       7.887   6.689   6.075  0.00  0.00    +0.210 HD
ENDBRANCH  22   5
TORSDOF 12
ENDMDL
MODEL 7
REMARK VINA RESULT:      -5.5     19.256     20.863
REMARK  Name = 11866344
REMARK  12 active torsions:
REMARK  status: ('A' for Active; 'I' for Inactive)
REMARK    1  A    between atoms: O_2  and  C_20
REMARK    2  A    between atoms: O_3  and  C_21
REMARK    3  A    between atoms: O_5  and  C_22
REMARK    4  A    between atoms: N_8  and  C_19
REMARK    5  A    between atoms: N_9  and  C_27
REMARK    6  A    between atoms: C_11  and  C_16
REMARK    7  A    between atoms: C_11  and  C_17
REMARK    8  A    between atoms: C_16  and  C_18
REMARK    9  A    between atoms: C_17  and  C_20
REMARK   10  A    between atoms: C_25  and  C_26
REMARK   11  A    between atoms: C_27  and  C_28
REMARK   12  A    between atoms: C_28  and  C_29
REMARK                            x       y       z     vdW  Elec       q    Type
REMARK                         _______ _______ _______ _____ _____    ______ ____
ROOT
ATOM     19  C   UNL     1      -4.583 -11.141  14.905  0.00  0.00    +0.127 C 
ATOM     21  C   UNL     1      -3.374 -11.174  15.859  0.00  0.00    +0.167 C 
ATOM     22  C   UNL     1      -3.784 -11.620  17.268  0.00  0.00    +0.149 C 
ATOM     23  C   UNL     1      -4.901 -10.740  17.853  0.00  0.00    +0.074 C 
ATOM     24  C   UNL     1      -5.808 -10.519  15.517  0.00  0.00    +0.006 C 
ATOM     25  C   UNL     1      -5.934 -10.337  16.840  0.00  0.00    +0.015 C 
ENDROOT
BRANCH  19   8
ATOM      1  O   UNL     1      -3.485 -12.282  12.482  0.00  0.00    -0.276 OA
ATOM      8  N   UNL     1      -4.273 -10.450  13.676  0.00  0.00    -0.306 N 
ATOM     18  C   UNL     1      -3.746 -11.085  12.559  0.00  0.00    +0.214 C 
ATOM     30  H   UNL     1      -4.492  -9.460  13.630  0.00  0.00    +0.149 HD
BRANCH  18  16
ATOM     16  C   UNL     1      -3.525 -10.111  11.416  0.00  0.00    +0.103 C 
BRANCH  16  11
ATOM     11  C   UNL     1      -4.492 -10.340  10.253  0.00  0.00    -0.011 C 
ATOM     12  C   UNL     1      -4.459  -9.177   9.254  0.00  0.00    +0.008 C 
ATOM     13  C   UNL     1      -4.051 -11.519   9.375  0.00  0.00    +0.008 C 
ATOM     14  C   UNL     1      -4.970  -9.768   7.940  0.00  0.00    +0.001 C 
ATOM     15  C   UNL     1      -4.708 -11.272   8.019  0.00  0.00    +0.001 C 
BRANCH  11  17
ATOM     17  C   UNL     1      -5.909 -10.559  10.809  0.00  0.00    +0.127 C 
BRANCH  17  20
ATOM      4  O   UNL     1      -6.266  -8.582  12.191  0.00  0.00    -0.251 OA
ATOM     20  C   UNL     1      -6.544  -9.261  11.214  0.00  0.00    +0.305 C 
BRANCH  20   2
ATOM      2  O   UNL     1      -7.506  -8.931  10.315  0.00  0.00    -0.481 OA
ATOM     31  H   UNL     1      -7.122  -8.580   9.482  0.00  0.00    +0.295 HD
ENDBRANCH  20   2
ENDBRANCH  17  20
ENDBRANCH  11  17
ENDBRANCH  16  11
ENDBRANCH  18  16
ENDBRANCH  19   8
BRANCH  25  26
ATOM      6  O   UNL     1      -7.516  -9.830  18.502  0.00  0.00    -0.271 OA
ATOM      9  N   UNL     1      -7.865  -9.046  16.334  0.00  0.00    -0.311 N 
ATOM     26  C   UNL     1      -7.174  -9.721  17.324  0.00  0.00    +0.240 C 
ATOM     34  H   UNL     1      -7.487  -9.011  15.391  0.00  0.00    +0.149 HD
BRANCH   9  27
ATOM     27  C   UNL     1      -9.116  -8.362  16.571  0.00  0.00    +0.113 C 
BRANCH  27  28
ATOM     28  C   UNL     1     -10.308  -9.307  16.513  0.00  0.00    +0.114 C 
BRANCH  28  29
ATOM      7  O   UNL     1     -12.355  -9.093  17.802  0.00  0.00    -0.276 OA
ATOM     10  N   UNL     1     -10.389  -9.538  18.908  0.00  0.00    -0.329 N 
ATOM     29  C   UNL     1     -11.145  -9.299  17.779  0.00  0.00    +0.212 C 
ATOM     35  H   UNL     1     -10.818  -9.560  19.827  0.00  0.00    +0.145 HD
ATOM     36  H   UNL     1      -9.389  -9.703  18.865  0.00  0.00    +0.145 HD
ENDBRANCH  28  29
ENDBRANCH  27  28
ENDBRANCH   9  27
ENDBRANCH  25  26
BRANCH  21   3
ATOM      3  O   UNL     1      -2.793  -9.871  15.941  0.00  0.00    -0.387 OA
ATOM     32  H   UNL     1      -2.492  -9.628  15.049  0.00  0.00    +0.210 HD
ENDBRANCH  21   3
BRANCH  22   5
ATOM      5  O   UNL     1      -4.194 -12.986  17.251  0.00  0.00    -0.389 OA
ATOM     33  H   UNL     1      -4.391 -13.222  16.328  0.00  0.00    +0.210 HD
ENDBRANCH  22   5
TORSDOF 12
ENDMDL
MODEL 8
REMARK VINA RESULT:      -5.5     18.877     20.551
REMARK  Name = 11866344
REMARK  12 active torsions:
REMARK  status: ('A' for Active; 'I' for Inactive)
REMARK    1  A    between atoms: O_2  and  C_20
REMARK    2  A    between atoms: O_3  and  C_21
REMARK    3  A    between atoms: O_5  and  C_22
REMARK    4  A    between atoms: N_8  and  C_19
REMARK    5  A    between atoms: N_9  and  C_27
REMARK    6  A    between atoms: C_11  and  C_16
REMARK    7  A    between atoms: C_11  and  C_17
REMARK    8  A    between atoms: C_16  and  C_18
REMARK    9  A    between atoms: C_17  and  C_20
REMARK   10  A    between atoms: C_25  and  C_26
REMARK   11  A    between atoms: C_27  and  C_28
REMARK   12  A    between atoms: C_28  and  C_29
REMARK                            x       y       z     vdW  Elec       q    Type
REMARK                         _______ _______ _______ _____ _____    ______ ____
ROOT
ATOM     19  C   UNL     1      -5.791 -12.449  17.102  0.00  0.00    +0.127 C 
ATOM     21  C   UNL     1      -5.477 -12.329  18.606  0.00  0.00    +0.167 C 
ATOM     22  C   UNL     1      -6.743 -12.041  19.422  0.00  0.00    +0.149 C 
ATOM     23  C   UNL     1      -7.476 -10.782  18.929  0.00  0.00    +0.074 C 
ATOM     24  C   UNL     1      -6.727 -11.383  16.603  0.00  0.00    +0.006 C 
ATOM     25  C   UNL     1      -7.470 -10.636  17.433  0.00  0.00    +0.015 C 
ENDROOT
BRANCH  19   8
ATOM      1  O   UNL     1      -5.269 -13.935  14.675  0.00  0.00    -0.276 OA
ATOM      8  N   UNL     1      -4.588 -12.424  16.304  0.00  0.00    -0.306 N 
ATOM     18  C   UNL     1      -4.428 -13.177  15.148  0.00  0.00    +0.214 C 
ATOM     30  H   UNL     1      -3.848 -11.794  16.595  0.00  0.00    +0.149 HD
BRANCH  18  16
ATOM     16  C   UNL     1      -3.066 -12.948  14.518  0.00  0.00    +0.103 C 
BRANCH  16  11
ATOM     11  C   UNL     1      -2.959 -11.587  13.826  0.00  0.00    -0.011 C 
ATOM     12  C   UNL     1      -1.866 -11.585  12.750  0.00  0.00    +0.008 C 
ATOM     13  C   UNL     1      -4.213 -11.274  12.998  0.00  0.00    +0.008 C 
ATOM     14  C   UNL     1      -2.250 -10.454  11.797  0.00  0.00    +0.001 C 
ATOM     15  C   UNL     1      -3.757 -10.254  11.958  0.00  0.00    +0.001 C 
BRANCH  11  17
ATOM     17  C   UNL     1      -2.704 -10.501  14.884  0.00  0.00    +0.127 C 
BRANCH  17  20
ATOM      4  O   UNL     1      -0.365 -10.885  15.457  0.00  0.00    -0.251 OA
ATOM     20  C   UNL     1      -1.546 -10.860  15.769  0.00  0.00    +0.305 C 
BRANCH  20   2
ATOM      2  O   UNL     1      -2.006 -11.165  17.009  0.00  0.00    -0.481 OA
ATOM     31  H   UNL     1      -2.141 -12.131  17.122  0.00  0.00    +0.295 HD
ENDBRANCH  20   2
ENDBRANCH  17  20
ENDBRANCH  11  17
ENDBRANCH  16  11
ENDBRANCH  18  16
ENDBRANCH  19   8
BRANCH  25  26
ATOM      6  O   UNL     1      -8.395  -9.471  15.614  0.00  0.00    -0.271 OA
ATOM      9  N   UNL     1      -9.074  -8.916  17.774  0.00  0.00    -0.311 N 
ATOM     26  C   UNL     1      -8.349  -9.627  16.834  0.00  0.00    +0.240 C 
ATOM     34  H   UNL     1      -8.967  -9.132  18.762  0.00  0.00    +0.149 HD
BRANCH   9  27
ATOM     27  C   UNL     1     -10.005  -7.866  17.425  0.00  0.00    +0.113 C 
BRANCH  27  28
ATOM     28  C   UNL     1     -11.408  -8.401  17.176  0.00  0.00    +0.114 C 
BRANCH  28  29
ATOM      7  O   UNL     1     -11.595  -9.650  19.251  0.00  0.00    -0.276 OA
ATOM     10  N   UNL     1     -12.263 -10.648  17.290  0.00  0.00    -0.329 N 
ATOM     29  C   UNL     1     -11.756  -9.604  18.034  0.00  0.00    +0.212 C 
ATOM     35  H   UNL     1     -12.537 -11.519  17.733  0.00  0.00    +0.145 HD
ATOM     36  H   UNL     1     -12.383 -10.589  16.284  0.00  0.00    +0.145 HD
ENDBRANCH  28  29
ENDBRANCH  27  28
ENDBRANCH   9  27
ENDBRANCH  25  26
BRANCH  21   3
ATOM      3  O   UNL     1      -4.542 -11.269  18.818  0.00  0.00    -0.387 OA
ATOM     32  H   UNL     1      -3.900 -11.295  18.089  0.00  0.00    +0.210 HD
ENDBRANCH  21   3
BRANCH  22   5
ATOM      5  O   UNL     1      -7.620 -13.165  19.382  0.00  0.00    -0.389 OA
ATOM     33  H   UNL     1      -7.488 -13.670  20.203  0.00  0.00    +0.210 HD
ENDBRANCH  22   5
TORSDOF 12
ENDMDL
MODEL 9
REMARK VINA RESULT:      -5.5     20.411     22.038
REMARK  Name = 11866344
REMARK  12 active torsions:
REMARK  status: ('A' for Active; 'I' for Inactive)
REMARK    1  A    between atoms: O_2  and  C_20
REMARK    2  A    between atoms: O_3  and  C_21
REMARK    3  A    between atoms: O_5  and  C_22
REMARK    4  A    between atoms: N_8  and  C_19
REMARK    5  A    between atoms: N_9  and  C_27
REMARK    6  A    between atoms: C_11  and  C_16
REMARK    7  A    between atoms: C_11  and  C_17
REMARK    8  A    between atoms: C_16  and  C_18
REMARK    9  A    between atoms: C_17  and  C_20
REMARK   10  A    between atoms: C_25  and  C_26
REMARK   11  A    between atoms: C_27  and  C_28
REMARK   12  A    between atoms: C_28  and  C_29
REMARK                            x       y       z     vdW  Elec       q    Type
REMARK                         _______ _______ _______ _____ _____    ______ ____
ROOT
ATOM     19  C   UNL     1      -3.505 -11.058  13.060  0.00  0.00    +0.127 C 
ATOM     21  C   UNL     1      -2.013 -11.099  13.443  0.00  0.00    +0.167 C 
ATOM     22  C   UNL     1      -1.803 -11.765  14.809  0.00  0.00    +0.149 C 
ATOM     23  C   UNL     1      -2.620 -11.082  15.919  0.00  0.00    +0.074 C 
ATOM     24  C   UNL     1      -4.400 -10.643  14.195  0.00  0.00    +0.006 C 
ATOM     25  C   UNL     1      -3.988 -10.650  15.472  0.00  0.00    +0.015 C 
ENDROOT
BRANCH  19   8
ATOM      1  O   UNL     1      -3.392 -11.747  10.252  0.00  0.00    -0.276 OA
ATOM      8  N   UNL     1      -3.742 -10.184  11.936  0.00  0.00    -0.306 N 
ATOM     18  C   UNL     1      -3.664 -10.606  10.615  0.00  0.00    +0.214 C 
ATOM     30  H   UNL     1      -4.013  -9.227  12.138  0.00  0.00    +0.149 HD
BRANCH  18  16
ATOM     16  C   UNL     1      -3.964  -9.475   9.649  0.00  0.00    +0.103 C 
BRANCH  16  11
ATOM     11  C   UNL     1      -5.408  -9.503   9.141  0.00  0.00    -0.011 C 
ATOM     12  C   UNL     1      -6.264 -10.504   9.926  0.00  0.00    +0.008 C 
ATOM     13  C   UNL     1      -6.133  -8.181   9.427  0.00  0.00    +0.008 C 
ATOM     14  C   UNL     1      -7.703 -10.026   9.743  0.00  0.00    +0.001 C 
ATOM     15  C   UNL     1      -7.618  -8.533   9.421  0.00  0.00    +0.001 C 
BRANCH  11  17
ATOM     17  C   UNL     1      -5.409  -9.825   7.638  0.00  0.00    +0.127 C 
BRANCH  17  20
ATOM      4  O   UNL     1      -6.489 -11.965   7.189  0.00  0.00    -0.251 OA
ATOM     20  C   UNL     1      -5.482 -11.305   7.396  0.00  0.00    +0.305 C 
BRANCH  20   2
ATOM      2  O   UNL     1      -4.230 -11.830   7.438  0.00  0.00    -0.481 OA
ATOM     31  H   UNL     1      -3.848 -11.936   6.541  0.00  0.00    +0.295 HD
ENDBRANCH  20   2
ENDBRANCH  17  20
ENDBRANCH  11  17
ENDBRANCH  16  11
ENDBRANCH  18  16
ENDBRANCH  19   8
BRANCH  25  26
ATOM      6  O   UNL     1      -5.817  -9.393  16.244  0.00  0.00    -0.271 OA
ATOM      9  N   UNL     1      -4.749 -10.853  17.714  0.00  0.00    -0.311 N 
ATOM     26  C   UNL     1      -4.947 -10.226  16.496  0.00  0.00    +0.240 C 
ATOM     34  H   UNL     1      -4.002 -11.536  17.813  0.00  0.00    +0.149 HD
BRANCH   9  27
ATOM     27  C   UNL     1      -5.568 -10.596  18.877  0.00  0.00    +0.113 C 
BRANCH  27  28
ATOM     28  C   UNL     1      -6.785 -11.507  18.937  0.00  0.00    +0.114 C 
BRANCH  28  29
ATOM      7  O   UNL     1      -8.912 -11.024  20.005  0.00  0.00    -0.276 OA
ATOM     10  N   UNL     1      -8.259  -9.750  18.207  0.00  0.00    -0.329 N 
ATOM     29  C   UNL     1      -8.091 -10.758  19.132  0.00  0.00    +0.212 C 
ATOM     35  H   UNL     1      -9.089  -9.167  18.216  0.00  0.00    +0.145 HD
ATOM     36  H   UNL     1      -7.568  -9.550  17.491  0.00  0.00    +0.145 HD
ENDBRANCH  28  29
ENDBRANCH  27  28
ENDBRANCH   9  27
ENDBRANCH  25  26
BRANCH  21   3
ATOM      3  O   UNL     1      -1.495  -9.768  13.497  0.00  0.00    -0.387 OA
ATOM     32  H   UNL     1      -0.837  -9.739  14.212  0.00  0.00    +0.210 HD
ENDBRANCH  21   3
BRANCH  22   5
ATOM      5  O   UNL     1      -2.137 -13.149  14.737  0.00  0.00    -0.389 OA
ATOM     33  H   UNL     1      -2.153 -13.496  15.646  0.00  0.00    +0.210 HD
ENDBRANCH  22   5
TORSDOF 12
ENDMDL
MODEL 10
REMARK VINA RESULT:      -5.5     19.493     21.106
REMARK  Name = 11866344
REMARK  12 active torsions:
REMARK  status: ('A' for Active; 'I' for Inactive)
REMARK    1  A    between atoms: O_2  and  C_20
REMARK    2  A    between atoms: O_3  and  C_21
REMARK    3  A    between atoms: O_5  and  C_22
REMARK    4  A    between atoms: N_8  and  C_19
REMARK    5  A    between atoms: N_9  and  C_27
REMARK    6  A    between atoms: C_11  and  C_16
REMARK    7  A    between atoms: C_11  and  C_17
REMARK    8  A    between atoms: C_16  and  C_18
REMARK    9  A    between atoms: C_17  and  C_20
REMARK   10  A    between atoms: C_25  and  C_26
REMARK   11  A    between atoms: C_27  and  C_28
REMARK   12  A    between atoms: C_28  and  C_29
REMARK                            x       y       z     vdW  Elec       q    Type
REMARK                         _______ _______ _______ _____ _____    ______ ____
ROOT
ATOM     19  C   UNL     1      -5.266 -11.682  15.856  0.00  0.00    +0.127 C 
ATOM     21  C   UNL     1      -3.976 -11.299  16.606  0.00  0.00    +0.167 C 
ATOM     22  C   UNL     1      -4.094 -11.587  18.108  0.00  0.00    +0.149 C 
ATOM     23  C   UNL     1      -5.306 -10.883  18.740  0.00  0.00    +0.074 C 
ATOM     24  C   UNL     1      -6.519 -11.244  16.564  0.00  0.00    +0.006 C 
ATOM     25  C   UNL     1      -6.521 -10.880  17.855  0.00  0.00    +0.015 C 
ENDROOT
BRANCH  19   8
ATOM      1  O   UNL     1      -4.825 -13.134  13.392  0.00  0.00    -0.276 OA
ATOM      8  N   UNL     1      -5.278 -11.150  14.514  0.00  0.00    -0.306 N 
ATOM     18  C   UNL     1      -5.055 -11.928  13.386  0.00  0.00    +0.214 C 
ATOM     30  H   UNL     1      -5.500 -10.165  14.405  0.00  0.00    +0.149 HD
BRANCH  18  16
ATOM     16  C   UNL     1      -5.131 -11.102  12.115  0.00  0.00    +0.103 C 
BRANCH  16  11
ATOM     11  C   UNL     1      -3.761 -10.893  11.466  0.00  0.00    -0.011 C 
ATOM     12  C   UNL     1      -3.697  -9.568  10.697  0.00  0.00    +0.008 C 
ATOM     13  C   UNL     1      -2.662 -10.696  12.519  0.00  0.00    +0.008 C 
ATOM     14  C   UNL     1      -2.210  -9.223  10.623  0.00  0.00    +0.001 C 
ATOM     15  C   UNL     1      -1.546  -9.950  11.793  0.00  0.00    +0.001 C 
BRANCH  11  17
ATOM     17  C   UNL     1      -3.448 -12.087  10.549  0.00  0.00    +0.127 C 
BRANCH  17  20
ATOM      4  O   UNL     1      -5.225 -11.977   8.883  0.00  0.00    -0.251 OA
ATOM     20  C   UNL     1      -4.672 -12.546   9.812  0.00  0.00    +0.305 C 
BRANCH  20   2
ATOM      2  O   UNL     1      -5.096 -13.725  10.335  0.00  0.00    -0.481 OA
ATOM     31  H   UNL     1      -6.073 -13.812  10.293  0.00  0.00    +0.295 HD
ENDBRANCH  20   2
ENDBRANCH  17  20
ENDBRANCH  11  17
ENDBRANCH  16  11
ENDBRANCH  18  16
ENDBRANCH  19   8
BRANCH  25  26
ATOM      6  O   UNL     1      -8.066 -10.720  19.619  0.00  0.00    -0.271 OA
ATOM      9  N   UNL     1      -8.623  -9.816  17.544  0.00  0.00    -0.311 N 
ATOM     26  C   UNL     1      -7.802 -10.473  18.442  0.00  0.00    +0.240 C 
ATOM     34  H   UNL     1      -8.303  -9.655  16.592  0.00  0.00    +0.149 HD
BRANCH   9  27
ATOM     27  C   UNL     1      -9.937  -9.323  17.890  0.00  0.00    +0.113 C 
BRANCH  27  28
ATOM     28  C   UNL     1     -10.114  -7.854  17.530  0.00  0.00    +0.114 C 
BRANCH  28  29
ATOM      7  O   UNL     1      -9.843  -8.453  15.192  0.00  0.00    -0.276 OA
ATOM     10  N   UNL     1     -10.282  -6.262  15.732  0.00  0.00    -0.329 N 
ATOM     29  C   UNL     1     -10.064  -7.590  16.036  0.00  0.00    +0.212 C 
ATOM     35  H   UNL     1     -10.274  -5.940  14.771  0.00  0.00    +0.145 HD
ATOM     36  H   UNL     1     -10.459  -5.564  16.448  0.00  0.00    +0.145 HD
ENDBRANCH  28  29
ENDBRANCH  27  28
ENDBRANCH   9  27
ENDBRANCH  25  26
BRANCH  21   3
ATOM      3  O   UNL     1      -3.710  -9.906  16.426  0.00  0.00    -0.387 OA
ATOM     32  H   UNL     1      -4.062  -9.438  17.202  0.00  0.00    +0.210 HD
ENDBRANCH  21   3
BRANCH  22   5
ATOM      5  O   UNL     1      -4.172 -12.993  18.334  0.00  0.00    -0.389 OA
ATOM     33  H   UNL     1      -3.299 -13.290  18.645  0.00  0.00    +0.210 HD
ENDBRANCH  22   5
TORSDOF 12
ENDMDL
