MODEL 1
REMARK VINA RESULT:      -7.0      0.000      0.000
REMARK  Name = 26745197
REMARK  8 active torsions:
REMARK  status: ('A' for Active; 'I' for Inactive)
REMARK    1  A    between atoms: O_3  and  C_26
REMARK    2  A    between atoms: O_3  and  C_27
REMARK    3  A    between atoms: N_7  and  C_18
REMARK    4  A    between atoms: N_8  and  C_17
REMARK    5  A    between atoms: C_9  and  C_14
REMARK    6  A    between atoms: C_17  and  C_19
REMARK    7  A    between atoms: C_17  and  C_20
REMARK    8  A    between atoms: C_18  and  C_21
REMARK                            x       y       z     vdW  Elec       q    Type
REMARK                         _______ _______ _______ _____ _____    ______ ____
ROOT
ATOM      2  O   UNL     1      15.072   9.838  21.044  0.00  0.00    -0.253 OA
ATOM      4  N   UNL     1      13.990   9.662  18.986  0.00  0.00    -0.268 N 
ATOM      5  N   UNL     1      11.911   9.879  15.863  0.00  0.00    -0.347 N 
ATOM      6  N   UNL     1      10.762   8.182  16.748  0.00  0.00    -0.240 NA
ATOM      8  N   UNL     1      15.344  11.532  19.515  0.00  0.00    -0.297 N 
ATOM      9  C   UNL     1      13.566   8.265  19.279  0.00  0.00    +0.170 C 
ATOM     10  C   UNL     1      12.119   7.922  18.868  0.00  0.00    +0.089 C 
ATOM     11  C   UNL     1      13.690  10.245  17.645  0.00  0.00    +0.165 C 
ATOM     12  C   UNL     1      11.791   8.543  17.571  0.00  0.00    +0.066 A 
ATOM     13  C   UNL     1      12.512   9.588  17.050  0.00  0.00    +0.056 A 
ATOM     15  C   UNL     1      14.819  10.311  19.932  0.00  0.00    +0.303 C 
ATOM     16  C   UNL     1      10.862   9.006  15.725  0.00  0.00    +0.197 A 
ATOM     28  H   UNL     1      12.183  10.599  15.206  0.00  0.00    +0.167 HD
ATOM     30  H   UNL     1      15.247  11.826  18.551  0.00  0.00    +0.150 HD
ENDROOT
BRANCH   9  14
ATOM      1  O   UNL     1      14.449   7.063  17.411  0.00  0.00    -0.274 OA
ATOM      7  N   UNL     1      15.584   6.979  19.441  0.00  0.00    -0.310 N 
ATOM     14  C   UNL     1      14.568   7.382  18.591  0.00  0.00    +0.234 C 
ATOM     29  H   UNL     1      15.569   7.278  20.412  0.00  0.00    +0.149 HD
BRANCH   7  18
ATOM     18  C   UNL     1      16.660   6.108  19.030  0.00  0.00    +0.139 C 
BRANCH  18  21
ATOM     21  C   UNL     1      17.849   6.213  19.943  0.00  0.00    -0.030 A 
ATOM     22  C   UNL     1      17.866   7.169  20.957  0.00  0.00    +0.009 A 
ATOM     23  C   UNL     1      18.934   5.353  19.775  0.00  0.00    +0.009 A 
ATOM     24  C   UNL     1      18.970   7.266  21.804  0.00  0.00    +0.046 A 
ATOM     25  C   UNL     1      20.038   5.450  20.622  0.00  0.00    +0.046 A 
ATOM     26  C   UNL     1      20.056   6.407  21.637  0.00  0.00    +0.120 A 
BRANCH  26   3
ATOM      3  O   UNL     1      21.132   6.501  22.464  0.00  0.00    -0.495 OA
ATOM     27  C   UNL     1      21.874   5.305  22.704  0.00  0.00    +0.277 C 
ENDBRANCH  26   3
ENDBRANCH  18  21
ENDBRANCH   7  18
ENDBRANCH   9  14
BRANCH   8  17
ATOM     17  C   UNL     1      16.218  12.319  20.356  0.00  0.00    +0.068 C 
ATOM     19  C   UNL     1      15.950  13.805  20.153  0.00  0.00    +0.027 C 
ATOM     20  C   UNL     1      17.677  11.979  20.080  0.00  0.00    +0.027 C 
ENDBRANCH   8  17
TORSDOF 5
ENDMDL
MODEL 2
REMARK VINA RESULT:      -6.7      2.390      3.979
REMARK  Name = 26745197
REMARK  8 active torsions:
REMARK  status: ('A' for Active; 'I' for Inactive)
REMARK    1  A    between atoms: O_3  and  C_26
REMARK    2  A    between atoms: O_3  and  C_27
REMARK    3  A    between atoms: N_7  and  C_18
REMARK    4  A    between atoms: N_8  and  C_17
REMARK    5  A    between atoms: C_9  and  C_14
REMARK    6  A    between atoms: C_17  and  C_19
REMARK    7  A    between atoms: C_17  and  C_20
REMARK    8  A    between atoms: C_18  and  C_21
REMARK                            x       y       z     vdW  Elec       q    Type
REMARK                         _______ _______ _______ _____ _____    ______ ____
ROOT
ATOM      2  O   UNL     1      13.159  11.527  18.338  0.00  0.00    -0.253 OA
ATOM      4  N   UNL     1      12.858   9.425  19.303  0.00  0.00    -0.268 N 
ATOM      5  N   UNL     1      11.948   5.947  20.397  0.00  0.00    -0.347 N 
ATOM      6  N   UNL     1      10.719   6.972  21.954  0.00  0.00    -0.240 NA
ATOM      8  N   UNL     1      13.784   9.670  17.137  0.00  0.00    -0.297 N 
ATOM      9  C   UNL     1      12.484  10.032  20.610  0.00  0.00    +0.170 C 
ATOM     10  C   UNL     1      11.296   9.356  21.327  0.00  0.00    +0.089 C 
ATOM     11  C   UNL     1      12.980   7.941  19.200  0.00  0.00    +0.165 C 
ATOM     12  C   UNL     1      11.374   7.890  21.181  0.00  0.00    +0.066 A 
ATOM     13  C   UNL     1      12.135   7.284  20.212  0.00  0.00    +0.056 A 
ATOM     15  C   UNL     1      13.258  10.298  18.263  0.00  0.00    +0.303 C 
ATOM     16  C   UNL     1      11.088   5.809  21.457  0.00  0.00    +0.197 A 
ATOM     28  H   UNL     1      12.362   5.197  19.858  0.00  0.00    +0.167 HD
ATOM     30  H   UNL     1      13.993   8.679  17.157  0.00  0.00    +0.150 HD
ENDROOT
BRANCH   9  14
ATOM      1  O   UNL     1      13.702  10.161  22.663  0.00  0.00    -0.274 OA
ATOM      7  N   UNL     1      14.870   9.808  20.681  0.00  0.00    -0.310 N 
ATOM     14  C   UNL     1      13.732  10.004  21.445  0.00  0.00    +0.234 C 
ATOM     29  H   UNL     1      14.784   9.720  19.673  0.00  0.00    +0.149 HD
BRANCH   7  18
ATOM     18  C   UNL     1      16.201   9.763  21.241  0.00  0.00    +0.139 C 
BRANCH  18  21
ATOM     21  C   UNL     1      16.930   8.508  20.857  0.00  0.00    -0.030 A 
ATOM     22  C   UNL     1      18.244   8.309  21.279  0.00  0.00    +0.009 A 
ATOM     23  C   UNL     1      16.293   7.542  20.079  0.00  0.00    +0.009 A 
ATOM     24  C   UNL     1      18.921   7.143  20.923  0.00  0.00    +0.046 A 
ATOM     25  C   UNL     1      16.970   6.375  19.722  0.00  0.00    +0.046 A 
ATOM     26  C   UNL     1      18.285   6.176  20.144  0.00  0.00    +0.120 A 
BRANCH  26   3
ATOM      3  O   UNL     1      18.944   5.038  19.797  0.00  0.00    -0.495 OA
ATOM     27  C   UNL     1      20.194   4.788  20.441  0.00  0.00    +0.277 C 
ENDBRANCH  26   3
ENDBRANCH  18  21
ENDBRANCH   7  18
ENDBRANCH   9  14
BRANCH   8  17
ATOM     17  C   UNL     1      14.249  10.414  15.989  0.00  0.00    +0.068 C 
ATOM     19  C   UNL     1      14.756   9.464  14.911  0.00  0.00    +0.027 C 
ATOM     20  C   UNL     1      15.328  11.411  16.397  0.00  0.00    +0.027 C 
ENDBRANCH   8  17
TORSDOF 5
ENDMDL
MODEL 3
REMARK VINA RESULT:      -6.5      2.125      3.153
REMARK  Name = 26745197
REMARK  8 active torsions:
REMARK  status: ('A' for Active; 'I' for Inactive)
REMARK    1  A    between atoms: O_3  and  C_26
REMARK    2  A    between atoms: O_3  and  C_27
REMARK    3  A    between atoms: N_7  and  C_18
REMARK    4  A    between atoms: N_8  and  C_17
REMARK    5  A    between atoms: C_9  and  C_14
REMARK    6  A    between atoms: C_17  and  C_19
REMARK    7  A    between atoms: C_17  and  C_20
REMARK    8  A    between atoms: C_18  and  C_21
REMARK                            x       y       z     vdW  Elec       q    Type
REMARK                         _______ _______ _______ _____ _____    ______ ____
ROOT
ATOM      2  O   UNL     1      15.555  10.685  18.728  0.00  0.00    -0.253 OA
ATOM      4  N   UNL     1      13.703   9.444  19.413  0.00  0.00    -0.268 N 
ATOM      5  N   UNL     1      10.408   7.995  20.494  0.00  0.00    -0.347 N 
ATOM      6  N   UNL     1      11.288   8.040  22.546  0.00  0.00    -0.240 NA
ATOM      8  N   UNL     1      13.785  10.466  17.278  0.00  0.00    -0.297 N 
ATOM      9  C   UNL     1      14.411   8.982  20.639  0.00  0.00    +0.170 C 
ATOM     10  C   UNL     1      13.556   8.976  21.923  0.00  0.00    +0.089 C 
ATOM     11  C   UNL     1      12.343   8.906  19.115  0.00  0.00    +0.165 C 
ATOM     12  C   UNL     1      12.190   8.503  21.629  0.00  0.00    +0.066 A 
ATOM     13  C   UNL     1      11.671   8.488  20.359  0.00  0.00    +0.056 A 
ATOM     15  C   UNL     1      14.430  10.234  18.490  0.00  0.00    +0.303 C 
ATOM     16  C   UNL     1      10.224   7.740  21.830  0.00  0.00    +0.197 A 
ATOM     28  H   UNL     1       9.734   7.844  19.756  0.00  0.00    +0.167 HD
ATOM     30  H   UNL     1      12.935   9.967  17.048  0.00  0.00    +0.150 HD
ENDROOT
BRANCH   9  14
ATOM      1  O   UNL     1      14.295   6.597  20.540  0.00  0.00    -0.274 OA
ATOM      7  N   UNL     1      16.215   7.664  19.768  0.00  0.00    -0.310 N 
ATOM     14  C   UNL     1      14.943   7.616  20.313  0.00  0.00    +0.234 C 
ATOM     29  H   UNL     1      16.674   8.563  19.652  0.00  0.00    +0.149 HD
BRANCH   7  18
ATOM     18  C   UNL     1      16.958   6.484  19.389  0.00  0.00    +0.139 C 
BRANCH  18  21
ATOM     21  C   UNL     1      18.185   6.296  20.234  0.00  0.00    -0.030 A 
ATOM     22  C   UNL     1      18.314   6.986  21.438  0.00  0.00    +0.009 A 
ATOM     23  C   UNL     1      19.195   5.431  19.813  0.00  0.00    +0.009 A 
ATOM     24  C   UNL     1      19.454   6.811  22.224  0.00  0.00    +0.046 A 
ATOM     25  C   UNL     1      20.335   5.256  20.598  0.00  0.00    +0.046 A 
ATOM     26  C   UNL     1      20.464   5.946  21.803  0.00  0.00    +0.120 A 
BRANCH  26   3
ATOM      3  O   UNL     1      21.576   5.774  22.569  0.00  0.00    -0.495 OA
ATOM     27  C   UNL     1      22.138   4.463  22.614  0.00  0.00    +0.277 C 
ENDBRANCH  26   3
ENDBRANCH  18  21
ENDBRANCH   7  18
ENDBRANCH   9  14
BRANCH   8  17
ATOM     17  C   UNL     1      14.392  11.246  16.223  0.00  0.00    +0.068 C 
ATOM     19  C   UNL     1      14.375  12.727  16.581  0.00  0.00    +0.027 C 
ATOM     20  C   UNL     1      13.688  10.991  14.895  0.00  0.00    +0.027 C 
ENDBRANCH   8  17
TORSDOF 5
ENDMDL
MODEL 4
REMARK VINA RESULT:      -6.5     12.700     15.925
REMARK  Name = 26745197
REMARK  8 active torsions:
REMARK  status: ('A' for Active; 'I' for Inactive)
REMARK    1  A    between atoms: O_3  and  C_26
REMARK    2  A    between atoms: O_3  and  C_27
REMARK    3  A    between atoms: N_7  and  C_18
REMARK    4  A    between atoms: N_8  and  C_17
REMARK    5  A    between atoms: C_9  and  C_14
REMARK    6  A    between atoms: C_17  and  C_19
REMARK    7  A    between atoms: C_17  and  C_20
REMARK    8  A    between atoms: C_18  and  C_21
REMARK                            x       y       z     vdW  Elec       q    Type
REMARK                         _______ _______ _______ _____ _____    ______ ____
ROOT
ATOM      2  O   UNL     1       8.233   7.598   7.656  0.00  0.00    -0.253 OA
ATOM      4  N   UNL     1      10.315   8.562   7.240  0.00  0.00    -0.268 N 
ATOM      5  N   UNL     1      13.751  10.085   7.195  0.00  0.00    -0.347 N 
ATOM      6  N   UNL     1      12.671  12.026   6.963  0.00  0.00    -0.240 NA
ATOM      8  N   UNL     1      10.120   6.359   8.087  0.00  0.00    -0.297 N 
ATOM      9  C   UNL     1       9.686   9.740   6.580  0.00  0.00    +0.170 C 
ATOM     10  C   UNL     1      10.314  11.103   6.941  0.00  0.00    +0.089 C 
ATOM     11  C   UNL     1      11.803   8.448   7.254  0.00  0.00    +0.165 C 
ATOM     12  C   UNL     1      11.783  10.988   7.017  0.00  0.00    +0.066 A 
ATOM     13  C   UNL     1      12.422   9.783   7.164  0.00  0.00    +0.056 A 
ATOM     15  C   UNL     1       9.465   7.513   7.663  0.00  0.00    +0.303 C 
ATOM     16  C   UNL     1      13.850  11.448   7.071  0.00  0.00    +0.197 A 
ATOM     28  H   UNL     1      14.519   9.433   7.291  0.00  0.00    +0.167 HD
ATOM     30  H   UNL     1      11.117   6.257   7.944  0.00  0.00    +0.150 HD
ENDROOT
BRANCH   9  14
ATOM      1  O   UNL     1      10.459  10.131   4.352  0.00  0.00    -0.274 OA
ATOM      7  N   UNL     1       8.926   8.420   4.728  0.00  0.00    -0.310 N 
ATOM     14  C   UNL     1       9.752   9.466   5.105  0.00  0.00    +0.234 C 
ATOM     29  H   UNL     1       8.358   7.956   5.431  0.00  0.00    +0.149 HD
BRANCH   7  18
ATOM     18  C   UNL     1       8.791   7.972   3.362  0.00  0.00    +0.139 C 
BRANCH  18  21
ATOM     21  C   UNL     1       9.562   6.710   3.105  0.00  0.00    -0.030 A 
ATOM     22  C   UNL     1       9.898   5.870   4.166  0.00  0.00    +0.009 A 
ATOM     23  C   UNL     1       9.942   6.377   1.805  0.00  0.00    +0.009 A 
ATOM     24  C   UNL     1      10.614   4.697   3.928  0.00  0.00    +0.046 A 
ATOM     25  C   UNL     1      10.659   5.205   1.566  0.00  0.00    +0.046 A 
ATOM     26  C   UNL     1      10.995   4.364   2.628  0.00  0.00    +0.120 A 
BRANCH  26   3
ATOM      3  O   UNL     1      11.692   3.220   2.394  0.00  0.00    -0.495 OA
ATOM     27  C   UNL     1      12.902   3.337   1.645  0.00  0.00    +0.277 C 
ENDBRANCH  26   3
ENDBRANCH  18  21
ENDBRANCH   7  18
ENDBRANCH   9  14
BRANCH   8  17
ATOM     17  C   UNL     1       9.400   5.191   8.542  0.00  0.00    +0.068 C 
ATOM     19  C   UNL     1       9.661   4.953  10.025  0.00  0.00    +0.027 C 
ATOM     20  C   UNL     1       9.780   3.971   7.713  0.00  0.00    +0.027 C 
ENDBRANCH   8  17
TORSDOF 5
ENDMDL
MODEL 5
REMARK VINA RESULT:      -6.3     13.233     15.990
REMARK  Name = 26745197
REMARK  8 active torsions:
REMARK  status: ('A' for Active; 'I' for Inactive)
REMARK    1  A    between atoms: O_3  and  C_26
REMARK    2  A    between atoms: O_3  and  C_27
REMARK    3  A    between atoms: N_7  and  C_18
REMARK    4  A    between atoms: N_8  and  C_17
REMARK    5  A    between atoms: C_9  and  C_14
REMARK    6  A    between atoms: C_17  and  C_19
REMARK    7  A    between atoms: C_17  and  C_20
REMARK    8  A    between atoms: C_18  and  C_21
REMARK                            x       y       z     vdW  Elec       q    Type
REMARK                         _______ _______ _______ _____ _____    ______ ____
ROOT
ATOM      2  O   UNL     1      11.363  10.091   5.944  0.00  0.00    -0.253 OA
ATOM      4  N   UNL     1      10.258   8.313   6.971  0.00  0.00    -0.268 N 
ATOM      5  N   UNL     1       8.585   5.761   9.165  0.00  0.00    -0.347 N 
ATOM      6  N   UNL     1      10.477   4.600   8.915  0.00  0.00    -0.240 NA
ATOM      8  N   UNL     1       9.347  10.499   6.968  0.00  0.00    -0.297 N 
ATOM      9  C   UNL     1      11.231   7.332   6.416  0.00  0.00    +0.170 C 
ATOM     10  C   UNL     1      11.680   6.231   7.400  0.00  0.00    +0.089 C 
ATOM     11  C   UNL     1       9.084   7.813   7.744  0.00  0.00    +0.165 C 
ATOM     12  C   UNL     1      10.538   5.770   8.213  0.00  0.00    +0.066 A 
ATOM     13  C   UNL     1       9.388   6.505   8.353  0.00  0.00    +0.056 A 
ATOM     15  C   UNL     1      10.395   9.667   6.582  0.00  0.00    +0.303 C 
ATOM     16  C   UNL     1       9.285   4.622   9.477  0.00  0.00    +0.197 A 
ATOM     28  H   UNL     1       7.653   5.998   9.478  0.00  0.00    +0.167 HD
ATOM     30  H   UNL     1       8.499  10.105   7.356  0.00  0.00    +0.150 HD
ENDROOT
BRANCH   9  14
ATOM      1  O   UNL     1       9.627   7.309   4.644  0.00  0.00    -0.274 OA
ATOM      7  N   UNL     1      11.156   5.560   4.802  0.00  0.00    -0.310 N 
ATOM     14  C   UNL     1      10.578   6.757   5.192  0.00  0.00    +0.234 C 
ATOM     29  H   UNL     1      11.921   5.176   5.347  0.00  0.00    +0.149 HD
BRANCH   7  18
ATOM     18  C   UNL     1      10.697   4.794   3.667  0.00  0.00    +0.139 C 
BRANCH  18  21
ATOM     21  C   UNL     1      11.790   4.569   2.661  0.00  0.00    -0.030 A 
ATOM     22  C   UNL     1      12.016   3.291   2.152  0.00  0.00    +0.009 A 
ATOM     23  C   UNL     1      12.577   5.639   2.237  0.00  0.00    +0.009 A 
ATOM     24  C   UNL     1      13.031   3.083   1.218  0.00  0.00    +0.046 A 
ATOM     25  C   UNL     1      13.592   5.432   1.303  0.00  0.00    +0.046 A 
ATOM     26  C   UNL     1      13.819   4.153   0.794  0.00  0.00    +0.120 A 
BRANCH  26   3
ATOM      3  O   UNL     1      14.808   3.950  -0.118  0.00  0.00    -0.495 OA
ATOM     27  C   UNL     1      14.541   4.340  -1.465  0.00  0.00    +0.277 C 
ENDBRANCH  26   3
ENDBRANCH  18  21
ENDBRANCH   7  18
ENDBRANCH   9  14
BRANCH   8  17
ATOM     17  C   UNL     1       9.325  11.908   6.643  0.00  0.00    +0.068 C 
ATOM     19  C   UNL     1       9.128  12.739   7.905  0.00  0.00    +0.027 C 
ATOM     20  C   UNL     1       8.241  12.204   5.614  0.00  0.00    +0.027 C 
ENDBRANCH   8  17
TORSDOF 5
ENDMDL
MODEL 6
REMARK VINA RESULT:      -6.2     27.258     29.618
REMARK  Name = 26745197
REMARK  8 active torsions:
REMARK  status: ('A' for Active; 'I' for Inactive)
REMARK    1  A    between atoms: O_3  and  C_26
REMARK    2  A    between atoms: O_3  and  C_27
REMARK    3  A    between atoms: N_7  and  C_18
REMARK    4  A    between atoms: N_8  and  C_17
REMARK    5  A    between atoms: C_9  and  C_14
REMARK    6  A    between atoms: C_17  and  C_19
REMARK    7  A    between atoms: C_17  and  C_20
REMARK    8  A    between atoms: C_18  and  C_21
REMARK                            x       y       z     vdW  Elec       q    Type
REMARK                         _______ _______ _______ _____ _____    ______ ____
ROOT
ATOM      2  O   UNL     1      -4.124 -14.317  14.283  0.00  0.00    -0.253 OA
ATOM      4  N   UNL     1      -4.358 -12.253  13.222  0.00  0.00    -0.268 N 
ATOM      5  N   UNL     1      -5.048  -9.252  11.068  0.00  0.00    -0.347 N 
ATOM      6  N   UNL     1      -2.926  -9.485  10.411  0.00  0.00    -0.240 NA
ATOM      8  N   UNL     1      -6.232 -13.425  14.074  0.00  0.00    -0.297 N 
ATOM      9  C   UNL     1      -2.882 -12.061  13.175  0.00  0.00    +0.170 C 
ATOM     10  C   UNL     1      -2.342 -11.483  11.850  0.00  0.00    +0.089 C 
ATOM     11  C   UNL     1      -5.248 -11.153  12.747  0.00  0.00    +0.165 C 
ATOM     12  C   UNL     1      -3.246 -10.435  11.339  0.00  0.00    +0.066 A 
ATOM     13  C   UNL     1      -4.548 -10.316  11.757  0.00  0.00    +0.056 A 
ATOM     15  C   UNL     1      -4.852 -13.401  13.887  0.00  0.00    +0.303 C 
ATOM     16  C   UNL     1      -4.033  -8.785  10.270  0.00  0.00    +0.197 A 
ATOM     28  H   UNL     1      -5.984  -8.875  11.130  0.00  0.00    +0.167 HD
ATOM     30  H   UNL     1      -6.787 -12.602  13.878  0.00  0.00    +0.150 HD
ENDROOT
BRANCH   9  14
ATOM      1  O   UNL     1      -1.873 -10.165  14.222  0.00  0.00    -0.274 OA
ATOM      7  N   UNL     1      -3.060 -11.677  15.535  0.00  0.00    -0.310 N 
ATOM     14  C   UNL     1      -2.547 -11.184  14.347  0.00  0.00    +0.234 C 
ATOM     29  H   UNL     1      -3.580 -12.549  15.529  0.00  0.00    +0.149 HD
BRANCH   7  18
ATOM     18  C   UNL     1      -2.860 -11.031  16.811  0.00  0.00    +0.139 C 
BRANCH  18  21
ATOM     21  C   UNL     1      -4.118 -11.004  17.631  0.00  0.00    -0.030 A 
ATOM     22  C   UNL     1      -5.235 -10.308  17.171  0.00  0.00    +0.009 A 
ATOM     23  C   UNL     1      -4.168 -11.674  18.853  0.00  0.00    +0.009 A 
ATOM     24  C   UNL     1      -6.404 -10.284  17.933  0.00  0.00    +0.046 A 
ATOM     25  C   UNL     1      -5.336 -11.650  19.615  0.00  0.00    +0.046 A 
ATOM     26  C   UNL     1      -6.454 -10.954  19.155  0.00  0.00    +0.120 A 
BRANCH  26   3
ATOM      3  O   UNL     1      -7.593 -10.931  19.898  0.00  0.00    -0.495 OA
ATOM     27  C   UNL     1      -8.757 -11.524  19.323  0.00  0.00    +0.277 C 
ENDBRANCH  26   3
ENDBRANCH  18  21
ENDBRANCH   7  18
ENDBRANCH   9  14
BRANCH   8  17
ATOM     17  C   UNL     1      -6.897 -14.520  14.744  0.00  0.00    +0.068 C 
ATOM     19  C   UNL     1      -8.157 -14.918  13.985  0.00  0.00    +0.027 C 
ATOM     20  C   UNL     1      -7.216 -14.151  16.187  0.00  0.00    +0.027 C 
ENDBRANCH   8  17
TORSDOF 5
ENDMDL
MODEL 7
REMARK VINA RESULT:      -6.2     31.017     33.999
REMARK  Name = 26745197
REMARK  8 active torsions:
REMARK  status: ('A' for Active; 'I' for Inactive)
REMARK    1  A    between atoms: O_3  and  C_26
REMARK    2  A    between atoms: O_3  and  C_27
REMARK    3  A    between atoms: N_7  and  C_18
REMARK    4  A    between atoms: N_8  and  C_17
REMARK    5  A    between atoms: C_9  and  C_14
REMARK    6  A    between atoms: C_17  and  C_19
REMARK    7  A    between atoms: C_17  and  C_20
REMARK    8  A    between atoms: C_18  and  C_21
REMARK                            x       y       z     vdW  Elec       q    Type
REMARK                         _______ _______ _______ _____ _____    ______ ____
ROOT
ATOM      2  O   UNL     1     -13.230   7.397  34.597  0.00  0.00    -0.253 OA
ATOM      4  N   UNL     1     -14.911   6.548  33.221  0.00  0.00    -0.268 N 
ATOM      5  N   UNL     1     -17.883   5.752  31.063  0.00  0.00    -0.347 N 
ATOM      6  N   UNL     1     -18.657   4.689  32.868  0.00  0.00    -0.240 NA
ATOM      8  N   UNL     1     -13.493   8.304  32.502  0.00  0.00    -0.297 N 
ATOM      9  C   UNL     1     -15.192   5.440  34.175  0.00  0.00    +0.170 C 
ATOM     10  C   UNL     1     -16.688   5.133  34.395  0.00  0.00    +0.089 C 
ATOM     11  C   UNL     1     -15.634   6.583  31.916  0.00  0.00    +0.165 C 
ATOM     12  C   UNL     1     -17.425   5.224  33.120  0.00  0.00    +0.066 A 
ATOM     13  C   UNL     1     -16.928   5.887  32.026  0.00  0.00    +0.056 A 
ATOM     15  C   UNL     1     -13.834   7.417  33.520  0.00  0.00    +0.303 C 
ATOM     16  C   UNL     1     -18.905   5.023  31.619  0.00  0.00    +0.197 A 
ATOM     28  H   UNL     1     -17.849   6.117  30.120  0.00  0.00    +0.167 HD
ATOM     30  H   UNL     1     -13.899   8.203  31.580  0.00  0.00    +0.150 HD
ENDROOT
BRANCH   9  14
ATOM      1  O   UNL     1     -13.367   4.360  33.073  0.00  0.00    -0.274 OA
ATOM      7  N   UNL     1     -15.130   3.063  33.866  0.00  0.00    -0.310 N 
ATOM     14  C   UNL     1     -14.447   4.248  33.646  0.00  0.00    +0.234 C 
ATOM     29  H   UNL     1     -16.035   3.088  34.326  0.00  0.00    +0.149 HD
BRANCH   7  18
ATOM     18  C   UNL     1     -14.638   1.775  33.435  0.00  0.00    +0.139 C 
BRANCH  18  21
ATOM     21  C   UNL     1     -15.056   1.457  32.028  0.00  0.00    -0.030 A 
ATOM     22  C   UNL     1     -14.759   0.211  31.477  0.00  0.00    +0.009 A 
ATOM     23  C   UNL     1     -15.741   2.408  31.272  0.00  0.00    +0.009 A 
ATOM     24  C   UNL     1     -15.147  -0.085  30.171  0.00  0.00    +0.046 A 
ATOM     25  C   UNL     1     -16.130   2.113  29.965  0.00  0.00    +0.046 A 
ATOM     26  C   UNL     1     -15.832   0.866  29.414  0.00  0.00    +0.120 A 
BRANCH  26   3
ATOM      3  O   UNL     1     -16.213   0.578  28.140  0.00  0.00    -0.495 OA
ATOM     27  C   UNL     1     -16.598   1.675  27.312  0.00  0.00    +0.277 C 
ENDBRANCH  26   3
ENDBRANCH  18  21
ENDBRANCH   7  18
ENDBRANCH   9  14
BRANCH   8  17
ATOM     17  C   UNL     1     -12.411   9.253  32.640  0.00  0.00    +0.068 C 
ATOM     19  C   UNL     1     -12.880  10.651  32.256  0.00  0.00    +0.027 C 
ATOM     20  C   UNL     1     -11.212   8.824  31.803  0.00  0.00    +0.027 C 
ENDBRANCH   8  17
TORSDOF 5
ENDMDL
MODEL 8
REMARK VINA RESULT:      -6.2      2.522      4.325
REMARK  Name = 26745197
REMARK  8 active torsions:
REMARK  status: ('A' for Active; 'I' for Inactive)
REMARK    1  A    between atoms: O_3  and  C_26
REMARK    2  A    between atoms: O_3  and  C_27
REMARK    3  A    between atoms: N_7  and  C_18
REMARK    4  A    between atoms: N_8  and  C_17
REMARK    5  A    between atoms: C_9  and  C_14
REMARK    6  A    between atoms: C_17  and  C_19
REMARK    7  A    between atoms: C_17  and  C_20
REMARK    8  A    between atoms: C_18  and  C_21
REMARK                            x       y       z     vdW  Elec       q    Type
REMARK                         _______ _______ _______ _____ _____    ______ ____
ROOT
ATOM      2  O   UNL     1      14.868  10.445  18.222  0.00  0.00    -0.253 OA
ATOM      4  N   UNL     1      13.361  10.199  19.985  0.00  0.00    -0.268 N 
ATOM      5  N   UNL     1      10.614  10.273  22.548  0.00  0.00    -0.347 N 
ATOM      6  N   UNL     1      12.088  11.386  23.804  0.00  0.00    -0.240 NA
ATOM      8  N   UNL     1      12.742   9.708  17.752  0.00  0.00    -0.297 N 
ATOM      9  C   UNL     1      14.430  10.451  20.990  0.00  0.00    +0.170 C 
ATOM     10  C   UNL     1      14.018  11.360  22.167  0.00  0.00    +0.089 C 
ATOM     11  C   UNL     1      11.993   9.831  20.456  0.00  0.00    +0.165 C 
ATOM     12  C   UNL     1      12.643  11.046  22.603  0.00  0.00    +0.066 A 
ATOM     13  C   UNL     1      11.756  10.363  21.810  0.00  0.00    +0.056 A 
ATOM     15  C   UNL     1      13.739  10.142  18.622  0.00  0.00    +0.303 C 
ATOM     16  C   UNL     1      10.863  10.904  23.741  0.00  0.00    +0.197 A 
ATOM     28  H   UNL     1       9.748   9.827  22.274  0.00  0.00    +0.167 HD
ATOM     30  H   UNL     1      11.879   9.324  18.116  0.00  0.00    +0.150 HD
ENDROOT
BRANCH   9  14
ATOM      1  O   UNL     1      14.583   8.665  22.572  0.00  0.00    -0.274 OA
ATOM      7  N   UNL     1      15.649   8.441  20.514  0.00  0.00    -0.310 N 
ATOM     14  C   UNL     1      14.877   9.095  21.459  0.00  0.00    +0.234 C 
ATOM     29  H   UNL     1      15.857   8.904  19.634  0.00  0.00    +0.149 HD
BRANCH   7  18
ATOM     18  C   UNL     1      16.220   7.132  20.728  0.00  0.00    +0.139 C 
BRANCH  18  21
ATOM     21  C   UNL     1      17.718   7.180  20.820  0.00  0.00    -0.030 A 
ATOM     22  C   UNL     1      18.344   8.272  21.420  0.00  0.00    +0.009 A 
ATOM     23  C   UNL     1      18.482   6.133  20.306  0.00  0.00    +0.009 A 
ATOM     24  C   UNL     1      19.736   8.316  21.506  0.00  0.00    +0.046 A 
ATOM     25  C   UNL     1      19.873   6.176  20.391  0.00  0.00    +0.046 A 
ATOM     26  C   UNL     1      20.501   7.269  20.991  0.00  0.00    +0.120 A 
BRANCH  26   3
ATOM      3  O   UNL     1      21.858   7.311  21.075  0.00  0.00    -0.495 OA
ATOM     27  C   UNL     1      22.573   6.152  20.647  0.00  0.00    +0.277 C 
ENDBRANCH  26   3
ENDBRANCH  18  21
ENDBRANCH   7  18
ENDBRANCH   9  14
BRANCH   8  17
ATOM     17  C   UNL     1      12.966   9.583  16.329  0.00  0.00    +0.068 C 
ATOM     19  C   UNL     1      11.639   9.424  15.597  0.00  0.00    +0.027 C 
ATOM     20  C   UNL     1      13.902   8.418  16.033  0.00  0.00    +0.027 C 
ENDBRANCH   8  17
TORSDOF 5
ENDMDL
MODEL 9
REMARK VINA RESULT:      -6.2     13.211     16.851
REMARK  Name = 26745197
REMARK  8 active torsions:
REMARK  status: ('A' for Active; 'I' for Inactive)
REMARK    1  A    between atoms: O_3  and  C_26
REMARK    2  A    between atoms: O_3  and  C_27
REMARK    3  A    between atoms: N_7  and  C_18
REMARK    4  A    between atoms: N_8  and  C_17
REMARK    5  A    between atoms: C_9  and  C_14
REMARK    6  A    between atoms: C_17  and  C_19
REMARK    7  A    between atoms: C_17  and  C_20
REMARK    8  A    between atoms: C_18  and  C_21
REMARK                            x       y       z     vdW  Elec       q    Type
REMARK                         _______ _______ _______ _____ _____    ______ ____
ROOT
ATOM      2  O   UNL     1       9.706   9.405   4.037  0.00  0.00    -0.253 OA
ATOM      4  N   UNL     1       9.377   7.781   5.679  0.00  0.00    -0.268 N 
ATOM      5  N   UNL     1       8.707   5.654   8.703  0.00  0.00    -0.347 N 
ATOM      6  N   UNL     1      10.931   5.555   8.880  0.00  0.00    -0.240 NA
ATOM      8  N   UNL     1       7.585   9.097   4.864  0.00  0.00    -0.297 N 
ATOM      9  C   UNL     1      10.770   7.277   5.520  0.00  0.00    +0.170 C 
ATOM     10  C   UNL     1      11.496   6.942   6.840  0.00  0.00    +0.089 C 
ATOM     11  C   UNL     1       8.449   7.068   6.604  0.00  0.00    +0.165 C 
ATOM     12  C   UNL     1      10.571   6.290   7.786  0.00  0.00    +0.066 A 
ATOM     13  C   UNL     1       9.207   6.369   7.657  0.00  0.00    +0.056 A 
ATOM     15  C   UNL     1       8.945   8.808   4.805  0.00  0.00    +0.303 C 
ATOM     16  C   UNL     1       9.785   5.183   9.411  0.00  0.00    +0.197 A 
ATOM     28  H   UNL     1       7.732   5.497   8.920  0.00  0.00    +0.167 HD
ATOM     30  H   UNL     1       6.958   8.498   5.388  0.00  0.00    +0.150 HD
ENDROOT
BRANCH   9  14
ATOM      1  O   UNL     1      10.587   4.939   5.059  0.00  0.00    -0.274 OA
ATOM      7  N   UNL     1      10.708   6.432   3.277  0.00  0.00    -0.310 N 
ATOM     14  C   UNL     1      10.670   6.082   4.616  0.00  0.00    +0.234 C 
ATOM     29  H   UNL     1      10.810   7.410   3.021  0.00  0.00    +0.149 HD
BRANCH   7  18
ATOM     18  C   UNL     1      10.651   5.466   2.205  0.00  0.00    +0.139 C 
BRANCH  18  21
ATOM     21  C   UNL     1      12.018   4.988   1.806  0.00  0.00    -0.030 A 
ATOM     22  C   UNL     1      12.994   5.907   1.424  0.00  0.00    +0.009 A 
ATOM     23  C   UNL     1      12.310   3.624   1.817  0.00  0.00    +0.009 A 
ATOM     24  C   UNL     1      14.263   5.463   1.054  0.00  0.00    +0.046 A 
ATOM     25  C   UNL     1      13.579   3.179   1.447  0.00  0.00    +0.046 A 
ATOM     26  C   UNL     1      14.556   4.099   1.065  0.00  0.00    +0.120 A 
BRANCH  26   3
ATOM      3  O   UNL     1      15.794   3.665   0.705  0.00  0.00    -0.495 OA
ATOM     27  C   UNL     1      16.323   4.156  -0.527  0.00  0.00    +0.277 C 
ENDBRANCH  26   3
ENDBRANCH  18  21
ENDBRANCH   7  18
ENDBRANCH   9  14
BRANCH   8  17
ATOM     17  C   UNL     1       6.978  10.111   4.032  0.00  0.00    +0.068 C 
ATOM     19  C   UNL     1       5.747  10.692   4.716  0.00  0.00    +0.027 C 
ATOM     20  C   UNL     1       6.630   9.542   2.662  0.00  0.00    +0.027 C 
ENDBRANCH   8  17
TORSDOF 5
ENDMDL
MODEL 10
REMARK VINA RESULT:      -6.2     13.540     17.232
REMARK  Name = 26745197
REMARK  8 active torsions:
REMARK  status: ('A' for Active; 'I' for Inactive)
REMARK    1  A    between atoms: O_3  and  C_26
REMARK    2  A    between atoms: O_3  and  C_27
REMARK    3  A    between atoms: N_7  and  C_18
REMARK    4  A    between atoms: N_8  and  C_17
REMARK    5  A    between atoms: C_9  and  C_14
REMARK    6  A    between atoms: C_17  and  C_19
REMARK    7  A    between atoms: C_17  and  C_20
REMARK    8  A    between atoms: C_18  and  C_21
REMARK                            x       y       z     vdW  Elec       q    Type
REMARK                         _______ _______ _______ _____ _____    ______ ____
ROOT
ATOM      2  O   UNL     1      12.906   8.721   3.250  0.00  0.00    -0.253 OA
ATOM      4  N   UNL     1      12.802   6.619   2.245  0.00  0.00    -0.268 N 
ATOM      5  N   UNL     1      13.249   3.321   0.499  0.00  0.00    -0.347 N 
ATOM      6  N   UNL     1      12.271   4.333  -1.235  0.00  0.00    -0.240 NA
ATOM      8  N   UNL     1      14.097   6.996   4.191  0.00  0.00    -0.297 N 
ATOM      9  C   UNL     1      11.731   7.070   1.313  0.00  0.00    +0.170 C 
ATOM     10  C   UNL     1      11.885   6.583  -0.143  0.00  0.00    +0.089 C 
ATOM     11  C   UNL     1      13.221   5.187   2.229  0.00  0.00    +0.165 C 
ATOM     12  C   UNL     1      12.357   5.186  -0.171  0.00  0.00    +0.066 A 
ATOM     13  C   UNL     1      12.959   4.588   0.908  0.00  0.00    +0.056 A 
ATOM     15  C   UNL     1      13.246   7.534   3.230  0.00  0.00    +0.303 C 
ATOM     16  C   UNL     1      12.816   3.216  -0.799  0.00  0.00    +0.197 A 
ATOM     28  H   UNL     1      13.696   2.596   1.044  0.00  0.00    +0.167 HD
ATOM     30  H   UNL     1      14.242   5.995   4.242  0.00  0.00    +0.150 HD
ENDROOT
BRANCH   9  14
ATOM      1  O   UNL     1       9.745   5.743   1.398  0.00  0.00    -0.274 OA
ATOM      7  N   UNL     1      10.142   7.284   3.097  0.00  0.00    -0.310 N 
ATOM     14  C   UNL     1      10.438   6.609   1.924  0.00  0.00    +0.234 C 
ATOM     29  H   UNL     1      10.773   8.008   3.428  0.00  0.00    +0.149 HD
BRANCH   7  18
ATOM     18  C   UNL     1       8.945   7.043   3.867  0.00  0.00    +0.139 C 
BRANCH  18  21
ATOM     21  C   UNL     1       9.233   6.289   5.134  0.00  0.00    -0.030 A 
ATOM     22  C   UNL     1       9.663   4.965   5.074  0.00  0.00    +0.009 A 
ATOM     23  C   UNL     1       9.071   6.915   6.369  0.00  0.00    +0.009 A 
ATOM     24  C   UNL     1       9.932   4.265   6.250  0.00  0.00    +0.046 A 
ATOM     25  C   UNL     1       9.339   6.216   7.546  0.00  0.00    +0.046 A 
ATOM     26  C   UNL     1       9.769   4.890   7.487  0.00  0.00    +0.120 A 
BRANCH  26   3
ATOM      3  O   UNL     1      10.031   4.209   8.635  0.00  0.00    -0.495 OA
ATOM     27  C   UNL     1       9.301   4.592   9.800  0.00  0.00    +0.277 C 
ENDBRANCH  26   3
ENDBRANCH  18  21
ENDBRANCH   7  18
ENDBRANCH   9  14
BRANCH   8  17
ATOM     17  C   UNL     1      14.634   7.791   5.273  0.00  0.00    +0.068 C 
ATOM     19  C   UNL     1      16.125   8.028   5.067  0.00  0.00    +0.027 C 
ATOM     20  C   UNL     1      14.362   7.123   6.615  0.00  0.00    +0.027 C 
ENDBRANCH   8  17
TORSDOF 5
ENDMDL
