MODEL 1
REMARK VINA RESULT:      -6.2      0.000      0.000
REMARK  Name = 51136740
REMARK  8 active torsions:
REMARK  status: ('A' for Active; 'I' for Inactive)
REMARK    1  A    between atoms: O_1  and  C_17
REMARK    2  A    between atoms: N_6  and  C_25
REMARK    3  A    between atoms: C_7  and  C_11
REMARK    4  A    between atoms: C_8  and  C_13
REMARK    5  A    between atoms: C_11  and  C_14
REMARK    6  A    between atoms: C_13  and  C_17
REMARK    7  A    between atoms: C_23  and  C_26
REMARK    8  A    between atoms: C_25  and  C_27
REMARK                            x       y       z     vdW  Elec       q    Type
REMARK                         _______ _______ _______ _____ _____    ______ ____
ROOT
ATOM      2  O   UNL     1      -7.901 -11.557  18.774  0.00  0.00    -0.253 OA
ATOM      4  N   UNL     1      -6.354 -10.390  17.502  0.00  0.00    -0.285 N 
ATOM      6  N   UNL     1      -8.607 -10.596  16.816  0.00  0.00    -0.296 N 
ATOM      7  C   UNL     1      -4.838 -10.298  15.542  0.00  0.00    +0.016 C 
ATOM      8  C   UNL     1      -3.653 -10.630  16.488  0.00  0.00    +0.006 C 
ATOM      9  C   UNL     1      -4.119 -11.387  17.745  0.00  0.00    +0.023 C 
ATOM     10  C   UNL     1      -5.950  -9.590  16.337  0.00  0.00    +0.113 C 
ATOM     12  C   UNL     1      -5.267 -10.659  18.444  0.00  0.00    +0.109 C 
ATOM     15  C   UNL     1      -7.638 -10.891  17.767  0.00  0.00    +0.302 C 
ATOM     29  H   UNL     1      -8.376 -10.121  15.955  0.00  0.00    +0.151 HD
ENDROOT
BRANCH   7  11
ATOM     11  C   UNL     1      -5.403 -11.515  14.799  0.00  0.00    +0.061 C 
BRANCH  11  14
ATOM      5  N   UNL     1      -7.614 -11.329  13.882  0.00  0.00    -0.287 NA
ATOM     14  C   UNL     1      -6.360 -11.061  13.724  0.00  0.00    +0.044 C 
ATOM     16  C   UNL     1      -5.821 -10.328  12.550  0.00  0.00    -0.001 A 
ATOM     18  C   UNL     1      -6.741  -9.596  11.787  0.00  0.00    -0.037 A 
ATOM     19  C   UNL     1      -8.181  -9.589  12.206  0.00  0.00    +0.059 C 
ATOM     20  C   UNL     1      -8.536 -10.942  12.808  0.00  0.00    +0.146 C 
ATOM     21  C   UNL     1      -4.468 -10.337  12.209  0.00  0.00    +0.013 A 
ATOM     22  C   UNL     1      -6.292  -8.851  10.693  0.00  0.00    +0.004 A 
ATOM     23  C   UNL     1      -4.031  -9.603  11.105  0.00  0.00    -0.050 A 
ATOM     24  C   UNL     1      -4.939  -8.860  10.352  0.00  0.00    +0.003 A 
ATOM     26  C   UNL     1      -2.587  -9.610  10.733  0.00  0.00    +0.044 C 
ENDBRANCH  11  14
ENDBRANCH   7  11
BRANCH   8  13
ATOM     13  C   UNL     1      -2.523 -11.386  15.791  0.00  0.00    +0.124 C 
BRANCH  13  17
ATOM      3  O   UNL     1      -1.504  -9.873  14.173  0.00  0.00    -0.251 OA
ATOM     17  C   UNL     1      -1.478 -10.447  15.251  0.00  0.00    +0.305 C 
BRANCH  17   1
ATOM      1  O   UNL     1      -0.469 -10.321  16.149  0.00  0.00    -0.481 OA
ATOM     30  H   UNL     1      -0.748  -9.817  16.944  0.00  0.00    +0.295 HD
ENDBRANCH  17   1
ENDBRANCH  13  17
ENDBRANCH   8  13
BRANCH   6  25
ATOM     25  C   UNL     1      -9.975 -11.048  16.944  0.00  0.00    +0.132 C 
BRANCH  25  27
ATOM     27  C   UNL     1     -10.809  -9.931  17.475  0.00  0.00    -0.016 C 
ATOM     28  C   UNL     1     -11.298  -9.890  18.719  0.00  0.00    +0.005 C 
ENDBRANCH  25  27
ENDBRANCH   6  25
TORSDOF 7
ENDMDL
MODEL 2
REMARK VINA RESULT:      -6.0      1.392      1.847
REMARK  Name = 51136740
REMARK  8 active torsions:
REMARK  status: ('A' for Active; 'I' for Inactive)
REMARK    1  A    between atoms: O_1  and  C_17
REMARK    2  A    between atoms: N_6  and  C_25
REMARK    3  A    between atoms: C_7  and  C_11
REMARK    4  A    between atoms: C_8  and  C_13
REMARK    5  A    between atoms: C_11  and  C_14
REMARK    6  A    between atoms: C_13  and  C_17
REMARK    7  A    between atoms: C_23  and  C_26
REMARK    8  A    between atoms: C_25  and  C_27
REMARK                            x       y       z     vdW  Elec       q    Type
REMARK                         _______ _______ _______ _____ _____    ______ ____
ROOT
ATOM      2  O   UNL     1      -8.440 -11.080  19.142  0.00  0.00    -0.253 OA
ATOM      4  N   UNL     1      -6.719 -10.075  17.956  0.00  0.00    -0.285 N 
ATOM      6  N   UNL     1      -8.984  -9.723  17.375  0.00  0.00    -0.296 N 
ATOM      7  C   UNL     1      -5.269 -10.007  15.946  0.00  0.00    +0.016 C 
ATOM      8  C   UNL     1      -4.154 -10.702  16.771  0.00  0.00    +0.006 C 
ATOM      9  C   UNL     1      -4.732 -11.524  17.937  0.00  0.00    +0.023 C 
ATOM     10  C   UNL     1      -6.190  -9.213  16.890  0.00  0.00    +0.113 C 
ATOM     12  C   UNL     1      -5.686 -10.690  18.791  0.00  0.00    +0.109 C 
ATOM     15  C   UNL     1      -8.072 -10.341  18.222  0.00  0.00    +0.302 C 
ATOM     29  H   UNL     1      -8.682  -9.185  16.574  0.00  0.00    +0.151 HD
ENDROOT
BRANCH   7  11
ATOM     11  C   UNL     1      -6.093 -10.965  15.077  0.00  0.00    +0.061 C 
BRANCH  11  14
ATOM      5  N   UNL     1      -7.052  -9.612  13.341  0.00  0.00    -0.287 NA
ATOM     14  C   UNL     1      -6.131 -10.463  13.654  0.00  0.00    +0.044 C 
ATOM     16  C   UNL     1      -5.114 -10.961  12.693  0.00  0.00    -0.001 A 
ATOM     18  C   UNL     1      -4.931 -10.210  11.524  0.00  0.00    -0.037 A 
ATOM     19  C   UNL     1      -5.747  -8.967  11.331  0.00  0.00    +0.059 C 
ATOM     20  C   UNL     1      -7.127  -9.171  11.943  0.00  0.00    +0.146 C 
ATOM     21  C   UNL     1      -4.354 -12.108  12.923  0.00  0.00    +0.013 A 
ATOM     22  C   UNL     1      -3.961 -10.602  10.597  0.00  0.00    +0.004 A 
ATOM     23  C   UNL     1      -3.398 -12.501  11.984  0.00  0.00    -0.050 A 
ATOM     24  C   UNL     1      -3.200 -11.748  10.827  0.00  0.00    +0.003 A 
ATOM     26  C   UNL     1      -2.583 -13.727  12.222  0.00  0.00    +0.044 C 
ENDBRANCH  11  14
ENDBRANCH   7  11
BRANCH   8  13
ATOM     13  C   UNL     1      -3.223 -11.561  15.916  0.00  0.00    +0.124 C 
BRANCH  13  17
ATOM      3  O   UNL     1      -1.654 -10.272  14.567  0.00  0.00    -0.251 OA
ATOM     17  C   UNL     1      -1.935 -10.846  15.608  0.00  0.00    +0.305 C 
BRANCH  17   1
ATOM      1  O   UNL     1      -1.100 -10.928  16.675  0.00  0.00    -0.481 OA
ATOM     30  H   UNL     1      -1.248 -11.748  17.193  0.00  0.00    +0.295 HD
ENDBRANCH  17   1
ENDBRANCH  13  17
ENDBRANCH   8  13
BRANCH   6  25
ATOM     25  C   UNL     1     -10.411  -9.906  17.516  0.00  0.00    +0.132 C 
BRANCH  25  27
ATOM     27  C   UNL     1     -11.088  -8.585  17.367  0.00  0.00    -0.016 C 
ATOM     28  C   UNL     1     -10.454  -7.455  17.033  0.00  0.00    +0.005 C 
ENDBRANCH  25  27
ENDBRANCH   6  25
TORSDOF 7
ENDMDL
MODEL 3
REMARK VINA RESULT:      -5.9      1.799      5.544
REMARK  Name = 51136740
REMARK  8 active torsions:
REMARK  status: ('A' for Active; 'I' for Inactive)
REMARK    1  A    between atoms: O_1  and  C_17
REMARK    2  A    between atoms: N_6  and  C_25
REMARK    3  A    between atoms: C_7  and  C_11
REMARK    4  A    between atoms: C_8  and  C_13
REMARK    5  A    between atoms: C_11  and  C_14
REMARK    6  A    between atoms: C_13  and  C_17
REMARK    7  A    between atoms: C_23  and  C_26
REMARK    8  A    between atoms: C_25  and  C_27
REMARK                            x       y       z     vdW  Elec       q    Type
REMARK                         _______ _______ _______ _____ _____    ______ ____
ROOT
ATOM      2  O   UNL     1      -2.378 -10.295  13.334  0.00  0.00    -0.253 OA
ATOM      4  N   UNL     1      -3.927 -11.324  14.719  0.00  0.00    -0.285 N 
ATOM      6  N   UNL     1      -4.544 -10.468  12.603  0.00  0.00    -0.296 N 
ATOM      7  C   UNL     1      -5.803 -11.140  16.329  0.00  0.00    +0.016 C 
ATOM      8  C   UNL     1      -4.786 -11.354  17.482  0.00  0.00    +0.006 C 
ATOM      9  C   UNL     1      -3.365 -10.924  17.079  0.00  0.00    +0.023 C 
ATOM     10  C   UNL     1      -5.275 -11.808  15.047  0.00  0.00    +0.113 C 
ATOM     12  C   UNL     1      -2.935 -11.575  15.765  0.00  0.00    +0.109 C 
ATOM     15  C   UNL     1      -3.537 -10.673  13.538  0.00  0.00    +0.302 C 
ATOM     29  H   UNL     1      -5.506 -10.703  12.802  0.00  0.00    +0.151 HD
ENDROOT
BRANCH   7  11
ATOM     11  C   UNL     1      -6.146  -9.669  16.063  0.00  0.00    +0.061 C 
BRANCH  11  14
ATOM      5  N   UNL     1      -8.074  -9.199  17.416  0.00  0.00    -0.287 NA
ATOM     14  C   UNL     1      -7.631  -9.450  16.228  0.00  0.00    +0.044 C 
ATOM     16  C   UNL     1      -8.502  -9.526  15.028  0.00  0.00    -0.001 A 
ATOM     18  C   UNL     1      -9.774  -8.950  15.135  0.00  0.00    -0.037 A 
ATOM     19  C   UNL     1     -10.161  -8.293  16.427  0.00  0.00    +0.059 C 
ATOM     20  C   UNL     1      -9.523  -9.048  17.585  0.00  0.00    +0.146 C 
ATOM     21  C   UNL     1      -8.093 -10.122  13.834  0.00  0.00    +0.013 A 
ATOM     22  C   UNL     1     -10.628  -8.952  14.029  0.00  0.00    +0.004 A 
ATOM     23  C   UNL     1      -8.959 -10.133  12.739  0.00  0.00    -0.050 A 
ATOM     24  C   UNL     1     -10.221  -9.547  12.835  0.00  0.00    +0.003 A 
ATOM     26  C   UNL     1      -8.531 -10.770  11.460  0.00  0.00    +0.044 C 
ENDBRANCH  11  14
ENDBRANCH   7  11
BRANCH   8  13
ATOM     13  C   UNL     1      -5.207 -10.673  18.785  0.00  0.00    +0.124 C 
BRANCH  13  17
ATOM      3  O   UNL     1      -6.671 -12.542  19.337  0.00  0.00    -0.251 OA
ATOM     17  C   UNL     1      -6.394 -11.354  19.409  0.00  0.00    +0.305 C 
BRANCH  17   1
ATOM      1  O   UNL     1      -7.142 -10.444  20.083  0.00  0.00    -0.481 OA
ATOM     30  H   UNL     1      -6.629 -10.004  20.794  0.00  0.00    +0.295 HD
ENDBRANCH  17   1
ENDBRANCH  13  17
ENDBRANCH   8  13
BRANCH   6  25
ATOM     25  C   UNL     1      -4.300  -9.804  11.342  0.00  0.00    +0.132 C 
BRANCH  25  27
ATOM     27  C   UNL     1      -5.375  -8.796  11.106  0.00  0.00    -0.016 C 
ATOM     28  C   UNL     1      -5.885  -8.518   9.901  0.00  0.00    +0.005 C 
ENDBRANCH  25  27
ENDBRANCH   6  25
TORSDOF 7
ENDMDL
MODEL 4
REMARK VINA RESULT:      -5.8     23.303     26.779
REMARK  Name = 51136740
REMARK  8 active torsions:
REMARK  status: ('A' for Active; 'I' for Inactive)
REMARK    1  A    between atoms: O_1  and  C_17
REMARK    2  A    between atoms: N_6  and  C_25
REMARK    3  A    between atoms: C_7  and  C_11
REMARK    4  A    between atoms: C_8  and  C_13
REMARK    5  A    between atoms: C_11  and  C_14
REMARK    6  A    between atoms: C_13  and  C_17
REMARK    7  A    between atoms: C_23  and  C_26
REMARK    8  A    between atoms: C_25  and  C_27
REMARK                            x       y       z     vdW  Elec       q    Type
REMARK                         _______ _______ _______ _____ _____    ______ ____
ROOT
ATOM      2  O   UNL     1      10.910  11.015   5.412  0.00  0.00    -0.253 OA
ATOM      4  N   UNL     1      11.445   8.831   5.974  0.00  0.00    -0.285 N 
ATOM      6  N   UNL     1      11.838   9.673   3.800  0.00  0.00    -0.296 N 
ATOM      7  C   UNL     1      10.899   6.413   5.900  0.00  0.00    +0.016 C 
ATOM      8  C   UNL     1      10.332   6.534   7.339  0.00  0.00    +0.006 C 
ATOM      9  C   UNL     1       9.870   7.968   7.654  0.00  0.00    +0.023 C 
ATOM     10  C   UNL     1      11.975   7.492   5.678  0.00  0.00    +0.113 C 
ATOM     12  C   UNL     1      10.966   8.989   7.347  0.00  0.00    +0.109 C 
ATOM     15  C   UNL     1      11.369   9.915   5.086  0.00  0.00    +0.302 C 
ATOM     29  H   UNL     1      12.138   8.753   3.511  0.00  0.00    +0.151 HD
ENDROOT
BRANCH   7  11
ATOM     11  C   UNL     1       9.832   6.487   4.800  0.00  0.00    +0.061 C 
BRANCH  11  14
ATOM      5  N   UNL     1      10.983   4.682   3.711  0.00  0.00    -0.287 NA
ATOM     14  C   UNL     1      10.327   5.785   3.558  0.00  0.00    +0.044 C 
ATOM     16  C   UNL     1      10.032   6.386   2.232  0.00  0.00    -0.001 A 
ATOM     18  C   UNL     1      10.153   5.545   1.118  0.00  0.00    -0.037 A 
ATOM     19  C   UNL     1      10.549   4.116   1.334  0.00  0.00    +0.059 C 
ATOM     20  C   UNL     1      11.516   4.033   2.507  0.00  0.00    +0.146 C 
ATOM     21  C   UNL     1       9.639   7.716   2.076  0.00  0.00    +0.013 A 
ATOM     22  C   UNL     1       9.850   6.039  -0.154  0.00  0.00    +0.004 A 
ATOM     23  C   UNL     1       9.355   8.205   0.800  0.00  0.00    -0.050 A 
ATOM     24  C   UNL     1       9.457   7.368  -0.311  0.00  0.00    +0.003 A 
ATOM     26  C   UNL     1       8.935   9.625   0.624  0.00  0.00    +0.044 C 
ENDBRANCH  11  14
ENDBRANCH   7  11
BRANCH   8  13
ATOM     13  C   UNL     1       9.215   5.532   7.629  0.00  0.00    +0.124 C 
BRANCH  13  17
ATOM      3  O   UNL     1       9.049   4.460   9.811  0.00  0.00    -0.251 OA
ATOM     17  C   UNL     1       9.597   4.576   8.726  0.00  0.00    +0.305 C 
BRANCH  17   1
ATOM      1  O   UNL     1      10.667   3.837   8.336  0.00  0.00    -0.481 OA
ATOM     30  H   UNL     1      11.349   3.782   9.039  0.00  0.00    +0.295 HD
ENDBRANCH  17   1
ENDBRANCH  13  17
ENDBRANCH   8  13
BRANCH   6  25
ATOM     25  C   UNL     1      11.819  10.689   2.771  0.00  0.00    +0.132 C 
BRANCH  25  27
ATOM     27  C   UNL     1      12.515  10.166   1.558  0.00  0.00    -0.016 C 
ATOM     28  C   UNL     1      13.051   8.943   1.475  0.00  0.00    +0.005 C 
ENDBRANCH  25  27
ENDBRANCH   6  25
TORSDOF 7
ENDMDL
MODEL 5
REMARK VINA RESULT:      -5.7     24.076     27.008
REMARK  Name = 51136740
REMARK  8 active torsions:
REMARK  status: ('A' for Active; 'I' for Inactive)
REMARK    1  A    between atoms: O_1  and  C_17
REMARK    2  A    between atoms: N_6  and  C_25
REMARK    3  A    between atoms: C_7  and  C_11
REMARK    4  A    between atoms: C_8  and  C_13
REMARK    5  A    between atoms: C_11  and  C_14
REMARK    6  A    between atoms: C_13  and  C_17
REMARK    7  A    between atoms: C_23  and  C_26
REMARK    8  A    between atoms: C_25  and  C_27
REMARK                            x       y       z     vdW  Elec       q    Type
REMARK                         _______ _______ _______ _____ _____    ______ ____
ROOT
ATOM      2  O   UNL     1       9.915   9.504   0.396  0.00  0.00    -0.253 OA
ATOM      4  N   UNL     1      10.361   7.263   0.794  0.00  0.00    -0.285 N 
ATOM      6  N   UNL     1       8.702   8.424   2.014  0.00  0.00    -0.296 N 
ATOM      7  C   UNL     1      11.428   5.516   2.192  0.00  0.00    +0.016 C 
ATOM      8  C   UNL     1      12.592   5.458   1.167  0.00  0.00    +0.006 C 
ATOM      9  C   UNL     1      12.738   6.779   0.392  0.00  0.00    +0.023 C 
ATOM     10  C   UNL     1      10.143   5.985   1.486  0.00  0.00    +0.113 C 
ATOM     12  C   UNL     1      11.410   7.215  -0.226  0.00  0.00    +0.109 C 
ATOM     15  C   UNL     1       9.675   8.466   1.023  0.00  0.00    +0.302 C 
ATOM     29  H   UNL     1       8.560   7.600   2.582  0.00  0.00    +0.151 HD
ENDROOT
BRANCH   7  11
ATOM     11  C   UNL     1      11.717   6.393   3.416  0.00  0.00    +0.061 C 
BRANCH  11  14
ATOM      5  N   UNL     1      10.527   4.746   4.695  0.00  0.00    -0.287 NA
ATOM     14  C   UNL     1      10.808   5.999   4.556  0.00  0.00    +0.044 C 
ATOM     16  C   UNL     1      10.292   7.060   5.459  0.00  0.00    -0.001 A 
ATOM     18  C   UNL     1       9.790   6.643   6.698  0.00  0.00    -0.037 A 
ATOM     19  C   UNL     1       9.820   5.182   7.034  0.00  0.00    +0.059 C 
ATOM     20  C   UNL     1       9.595   4.370   5.765  0.00  0.00    +0.146 C 
ATOM     21  C   UNL     1      10.307   8.414   5.120  0.00  0.00    +0.013 A 
ATOM     22  C   UNL     1       9.326   7.596   7.610  0.00  0.00    +0.004 A 
ATOM     23  C   UNL     1       9.828   9.356   6.031  0.00  0.00    -0.050 A 
ATOM     24  C   UNL     1       9.342   8.949   7.273  0.00  0.00    +0.003 A 
ATOM     26  C   UNL     1       9.839  10.805   5.676  0.00  0.00    +0.044 C 
ENDBRANCH  11  14
ENDBRANCH   7  11
BRANCH   8  13
ATOM     13  C   UNL     1      13.924   5.052   1.797  0.00  0.00    +0.124 C 
BRANCH  13  17
ATOM      3  O   UNL     1      13.319   2.729   1.372  0.00  0.00    -0.251 OA
ATOM     17  C   UNL     1      14.127   3.561   1.754  0.00  0.00    +0.305 C 
BRANCH  17   1
ATOM      1  O   UNL     1      15.368   3.255   2.210  0.00  0.00    -0.481 OA
ATOM     30  H   UNL     1      15.747   2.478   1.747  0.00  0.00    +0.295 HD
ENDBRANCH  17   1
ENDBRANCH  13  17
ENDBRANCH   8  13
BRANCH   6  25
ATOM     25  C   UNL     1       7.916   9.584   2.371  0.00  0.00    +0.132 C 
BRANCH  25  27
ATOM     27  C   UNL     1       7.087   9.261   3.570  0.00  0.00    -0.016 C 
ATOM     28  C   UNL     1       6.423  10.175   4.285  0.00  0.00    +0.005 C 
ENDBRANCH  25  27
ENDBRANCH   6  25
TORSDOF 7
ENDMDL
MODEL 6
REMARK VINA RESULT:      -5.6      2.123      2.799
REMARK  Name = 51136740
REMARK  8 active torsions:
REMARK  status: ('A' for Active; 'I' for Inactive)
REMARK    1  A    between atoms: O_1  and  C_17
REMARK    2  A    between atoms: N_6  and  C_25
REMARK    3  A    between atoms: C_7  and  C_11
REMARK    4  A    between atoms: C_8  and  C_13
REMARK    5  A    between atoms: C_11  and  C_14
REMARK    6  A    between atoms: C_13  and  C_17
REMARK    7  A    between atoms: C_23  and  C_26
REMARK    8  A    between atoms: C_25  and  C_27
REMARK                            x       y       z     vdW  Elec       q    Type
REMARK                         _______ _______ _______ _____ _____    ______ ____
ROOT
ATOM      2  O   UNL     1     -10.105 -10.630  18.044  0.00  0.00    -0.253 OA
ATOM      4  N   UNL     1      -7.967  -9.844  17.614  0.00  0.00    -0.285 N 
ATOM      6  N   UNL     1      -9.709  -9.601  16.033  0.00  0.00    -0.296 N 
ATOM      7  C   UNL     1      -5.779 -10.122  16.482  0.00  0.00    +0.016 C 
ATOM      8  C   UNL     1      -5.198 -10.663  17.817  0.00  0.00    +0.006 C 
ATOM      9  C   UNL     1      -6.292 -11.271  18.712  0.00  0.00    +0.023 C 
ATOM     10  C   UNL     1      -6.957  -9.178  16.778  0.00  0.00    +0.113 C 
ATOM     12  C   UNL     1      -7.458 -10.303  18.907  0.00  0.00    +0.109 C 
ATOM     15  C   UNL     1      -9.314 -10.062  17.284  0.00  0.00    +0.302 C 
ATOM     29  H   UNL     1      -9.045  -9.209  15.380  0.00  0.00    +0.151 HD
ENDROOT
BRANCH   7  11
ATOM     11  C   UNL     1      -6.205 -11.218  15.498  0.00  0.00    +0.061 C 
BRANCH  11  14
ATOM      5  N   UNL     1      -7.337 -10.116  13.690  0.00  0.00    -0.287 NA
ATOM     14  C   UNL     1      -6.238 -10.662  14.094  0.00  0.00    +0.044 C 
ATOM     16  C   UNL     1      -5.016 -10.760  13.257  0.00  0.00    -0.001 A 
ATOM     18  C   UNL     1      -4.947  -9.916  12.141  0.00  0.00    -0.037 A 
ATOM     19  C   UNL     1      -6.083  -8.975  11.878  0.00  0.00    +0.059 C 
ATOM     20  C   UNL     1      -7.389  -9.631  12.305  0.00  0.00    +0.146 C 
ATOM     21  C   UNL     1      -3.966 -11.631  13.552  0.00  0.00    +0.013 A 
ATOM     22  C   UNL     1      -3.805  -9.931  11.334  0.00  0.00    +0.004 A 
ATOM     23  C   UNL     1      -2.837 -11.651  12.731  0.00  0.00    -0.050 A 
ATOM     24  C   UNL     1      -2.755 -10.801  11.628  0.00  0.00    +0.003 A 
ATOM     26  C   UNL     1      -1.711 -12.580  13.038  0.00  0.00    +0.044 C 
ENDBRANCH  11  14
ENDBRANCH   7  11
BRANCH   8  13
ATOM     13  C   UNL     1      -4.054 -11.655  17.613  0.00  0.00    +0.124 C 
BRANCH  13  17
ATOM      3  O   UNL     1      -3.386 -12.083  19.918  0.00  0.00    -0.251 OA
ATOM     17  C   UNL     1      -3.812 -12.483  18.846  0.00  0.00    +0.305 C 
BRANCH  17   1
ATOM      1  O   UNL     1      -4.138 -13.777  18.598  0.00  0.00    -0.481 OA
ATOM     30  H   UNL     1      -3.630 -14.145  17.844  0.00  0.00    +0.295 HD
ENDBRANCH  17   1
ENDBRANCH  13  17
ENDBRANCH   8  13
BRANCH   6  25
ATOM     25  C   UNL     1     -11.061  -9.759  15.547  0.00  0.00    +0.132 C 
BRANCH  25  27
ATOM     27  C   UNL     1     -11.686  -8.412  15.401  0.00  0.00    -0.016 C 
ATOM     28  C   UNL     1     -11.722  -7.496  16.375  0.00  0.00    +0.005 C 
ENDBRANCH  25  27
ENDBRANCH   6  25
TORSDOF 7
ENDMDL
MODEL 7
REMARK VINA RESULT:      -5.6     20.061     22.116
REMARK  Name = 51136740
REMARK  8 active torsions:
REMARK  status: ('A' for Active; 'I' for Inactive)
REMARK    1  A    between atoms: O_1  and  C_17
REMARK    2  A    between atoms: N_6  and  C_25
REMARK    3  A    between atoms: C_7  and  C_11
REMARK    4  A    between atoms: C_8  and  C_13
REMARK    5  A    between atoms: C_11  and  C_14
REMARK    6  A    between atoms: C_13  and  C_17
REMARK    7  A    between atoms: C_23  and  C_26
REMARK    8  A    between atoms: C_25  and  C_27
REMARK                            x       y       z     vdW  Elec       q    Type
REMARK                         _______ _______ _______ _____ _____    ______ ____
ROOT
ATOM      2  O   UNL     1      -6.001 -10.310  38.961  0.00  0.00    -0.253 OA
ATOM      4  N   UNL     1      -6.797 -11.064  36.918  0.00  0.00    -0.285 N 
ATOM      6  N   UNL     1      -8.078  -9.616  38.280  0.00  0.00    -0.296 N 
ATOM      7  C   UNL     1      -8.263 -12.596  35.634  0.00  0.00    +0.016 C 
ATOM      8  C   UNL     1      -7.026 -13.496  35.365  0.00  0.00    +0.006 C 
ATOM      9  C   UNL     1      -5.947 -13.323  36.449  0.00  0.00    +0.023 C 
ATOM     10  C   UNL     1      -7.805 -11.143  35.852  0.00  0.00    +0.113 C 
ATOM     12  C   UNL     1      -5.592 -11.851  36.656  0.00  0.00    +0.109 C 
ATOM     15  C   UNL     1      -6.896 -10.327  38.109  0.00  0.00    +0.302 C 
ATOM     29  H   UNL     1      -8.842  -9.694  37.623  0.00  0.00    +0.151 HD
ENDROOT
BRANCH   7  11
ATOM     11  C   UNL     1      -9.133 -13.065  36.807  0.00  0.00    +0.061 C 
BRANCH  11  14
ATOM      5  N   UNL     1     -10.644 -11.444  37.730  0.00  0.00    -0.287 NA
ATOM     14  C   UNL     1     -10.446 -12.320  36.801  0.00  0.00    +0.044 C 
ATOM     16  C   UNL     1     -11.435 -12.622  35.735  0.00  0.00    -0.001 A 
ATOM     18  C   UNL     1     -12.444 -11.673  35.524  0.00  0.00    -0.037 A 
ATOM     19  C   UNL     1     -12.451 -10.431  36.364  0.00  0.00    +0.059 C 
ATOM     20  C   UNL     1     -11.945 -10.764  37.760  0.00  0.00    +0.146 C 
ATOM     21  C   UNL     1     -11.377 -13.779  34.956  0.00  0.00    +0.013 A 
ATOM     22  C   UNL     1     -13.382 -11.878  34.509  0.00  0.00    +0.004 A 
ATOM     23  C   UNL     1     -12.328 -13.982  33.954  0.00  0.00    -0.050 A 
ATOM     24  C   UNL     1     -13.325 -13.034  33.730  0.00  0.00    +0.003 A 
ATOM     26  C   UNL     1     -12.274 -15.216  33.119  0.00  0.00    +0.044 C 
ENDBRANCH  11  14
ENDBRANCH   7  11
BRANCH   8  13
ATOM     13  C   UNL     1      -7.386 -14.971  35.191  0.00  0.00    +0.124 C 
BRANCH  13  17
ATOM      3  O   UNL     1      -7.808 -16.202  33.130  0.00  0.00    -0.251 OA
ATOM     17  C   UNL     1      -7.111 -15.448  33.791  0.00  0.00    +0.305 C 
BRANCH  17   1
ATOM      1  O   UNL     1      -5.946 -14.912  33.345  0.00  0.00    -0.481 OA
ATOM     30  H   UNL     1      -5.915 -13.940  33.482  0.00  0.00    +0.295 HD
ENDBRANCH  17   1
ENDBRANCH  13  17
ENDBRANCH   8  13
BRANCH   6  25
ATOM     25  C   UNL     1      -8.331  -8.817  39.458  0.00  0.00    +0.132 C 
BRANCH  25  27
ATOM     27  C   UNL     1      -8.213  -7.373  39.102  0.00  0.00    -0.016 C 
ATOM     28  C   UNL     1      -7.063  -6.690  39.128  0.00  0.00    +0.005 C 
ENDBRANCH  25  27
ENDBRANCH   6  25
TORSDOF 7
ENDMDL
MODEL 8
REMARK VINA RESULT:      -5.5     25.158     27.789
REMARK  Name = 51136740
REMARK  8 active torsions:
REMARK  status: ('A' for Active; 'I' for Inactive)
REMARK    1  A    between atoms: O_1  and  C_17
REMARK    2  A    between atoms: N_6  and  C_25
REMARK    3  A    between atoms: C_7  and  C_11
REMARK    4  A    between atoms: C_8  and  C_13
REMARK    5  A    between atoms: C_11  and  C_14
REMARK    6  A    between atoms: C_13  and  C_17
REMARK    7  A    between atoms: C_23  and  C_26
REMARK    8  A    between atoms: C_25  and  C_27
REMARK                            x       y       z     vdW  Elec       q    Type
REMARK                         _______ _______ _______ _____ _____    ______ ____
ROOT
ATOM      2  O   UNL     1      10.713   6.389  -3.652  0.00  0.00    -0.253 OA
ATOM      4  N   UNL     1      11.212   4.855  -1.987  0.00  0.00    -0.285 N 
ATOM      6  N   UNL     1       9.049   5.787  -2.193  0.00  0.00    -0.296 N 
ATOM      7  C   UNL     1      11.748   4.381   0.387  0.00  0.00    +0.016 C 
ATOM      8  C   UNL     1      13.246   4.282  -0.009  0.00  0.00    +0.006 C 
ATOM      9  C   UNL     1      13.556   5.089  -1.282  0.00  0.00    +0.023 C 
ATOM     10  C   UNL     1      10.870   4.022  -0.825  0.00  0.00    +0.113 C 
ATOM     12  C   UNL     1      12.604   4.726  -2.421  0.00  0.00    +0.109 C 
ATOM     15  C   UNL     1      10.349   5.721  -2.678  0.00  0.00    +0.302 C 
ATOM     29  H   UNL     1       8.774   5.304  -1.350  0.00  0.00    +0.151 HD
ENDROOT
BRANCH   7  11
ATOM     11  C   UNL     1      11.343   5.747   0.956  0.00  0.00    +0.061 C 
BRANCH  11  14
ATOM      5  N   UNL     1      11.059   4.526   3.004  0.00  0.00    -0.287 NA
ATOM     14  C   UNL     1      10.721   5.569   2.320  0.00  0.00    +0.044 C 
ATOM     16  C   UNL     1       9.766   6.596   2.810  0.00  0.00    -0.001 A 
ATOM     18  C   UNL     1       9.514   6.617   4.188  0.00  0.00    -0.037 A 
ATOM     19  C   UNL     1      10.223   5.629   5.065  0.00  0.00    +0.059 C 
ATOM     20  C   UNL     1      10.408   4.322   4.304  0.00  0.00    +0.146 C 
ATOM     21  C   UNL     1       9.147   7.517   1.963  0.00  0.00    +0.013 A 
ATOM     22  C   UNL     1       8.656   7.585   4.718  0.00  0.00    +0.004 A 
ATOM     23  C   UNL     1       8.280   8.470   2.500  0.00  0.00    -0.050 A 
ATOM     24  C   UNL     1       8.038   8.506   3.873  0.00  0.00    +0.003 A 
ATOM     26  C   UNL     1       7.613   9.457   1.602  0.00  0.00    +0.044 C 
ENDBRANCH  11  14
ENDBRANCH   7  11
BRANCH   8  13
ATOM     13  C   UNL     1      14.192   4.676   1.124  0.00  0.00    +0.124 C 
BRANCH  13  17
ATOM      3  O   UNL     1      16.211   3.613   0.267  0.00  0.00    -0.251 OA
ATOM     17  C   UNL     1      15.406   3.788   1.169  0.00  0.00    +0.305 C 
BRANCH  17   1
ATOM      1  O   UNL     1      15.489   3.187   2.383  0.00  0.00    -0.481 OA
ATOM     30  H   UNL     1      15.767   3.815   3.083  0.00  0.00    +0.295 HD
ENDBRANCH  17   1
ENDBRANCH  13  17
ENDBRANCH   8  13
BRANCH   6  25
ATOM     25  C   UNL     1       8.047   6.639  -2.794  0.00  0.00    +0.132 C 
BRANCH  25  27
ATOM     27  C   UNL     1       7.978   7.921  -2.032  0.00  0.00    -0.016 C 
ATOM     28  C   UNL     1       6.875   8.672  -1.936  0.00  0.00    +0.005 C 
ENDBRANCH  25  27
ENDBRANCH   6  25
TORSDOF 7
ENDMDL
MODEL 9
REMARK VINA RESULT:      -5.5      2.598      5.148
REMARK  Name = 51136740
REMARK  8 active torsions:
REMARK  status: ('A' for Active; 'I' for Inactive)
REMARK    1  A    between atoms: O_1  and  C_17
REMARK    2  A    between atoms: N_6  and  C_25
REMARK    3  A    between atoms: C_7  and  C_11
REMARK    4  A    between atoms: C_8  and  C_13
REMARK    5  A    between atoms: C_11  and  C_14
REMARK    6  A    between atoms: C_13  and  C_17
REMARK    7  A    between atoms: C_23  and  C_26
REMARK    8  A    between atoms: C_25  and  C_27
REMARK                            x       y       z     vdW  Elec       q    Type
REMARK                         _______ _______ _______ _____ _____    ______ ____
ROOT
ATOM      2  O   UNL     1      -9.906 -12.077  13.294  0.00  0.00    -0.253 OA
ATOM      4  N   UNL     1      -8.583 -10.710  14.619  0.00  0.00    -0.285 N 
ATOM      6  N   UNL     1      -8.197 -10.920  12.296  0.00  0.00    -0.296 N 
ATOM      7  C   UNL     1      -6.458 -10.329  15.837  0.00  0.00    +0.016 C 
ATOM      8  C   UNL     1      -7.183 -10.724  17.152  0.00  0.00    +0.006 C 
ATOM      9  C   UNL     1      -8.390 -11.641  16.886  0.00  0.00    +0.023 C 
ATOM     10  C   UNL     1      -7.480  -9.763  14.835  0.00  0.00    +0.113 C 
ATOM     12  C   UNL     1      -9.325 -11.045  15.835  0.00  0.00    +0.109 C 
ATOM     15  C   UNL     1      -8.962 -11.287  13.396  0.00  0.00    +0.302 C 
ATOM     29  H   UNL     1      -7.377 -10.338  12.392  0.00  0.00    +0.151 HD
ENDROOT
BRANCH   7  11
ATOM     11  C   UNL     1      -5.658 -11.471  15.198  0.00  0.00    +0.061 C 
BRANCH  11  14
ATOM      5  N   UNL     1      -3.478 -11.092  16.131  0.00  0.00    -0.287 NA
ATOM     14  C   UNL     1      -4.208 -11.070  15.065  0.00  0.00    +0.044 C 
ATOM     16  C   UNL     1      -3.694 -10.683  13.727  0.00  0.00    -0.001 A 
ATOM     18  C   UNL     1      -2.303 -10.696  13.558  0.00  0.00    -0.037 A 
ATOM     19  C   UNL     1      -1.441 -11.108  14.713  0.00  0.00    +0.059 C 
ATOM     20  C   UNL     1      -2.086 -10.643  16.013  0.00  0.00    +0.146 C 
ATOM     21  C   UNL     1      -4.532 -10.332  12.667  0.00  0.00    +0.013 A 
ATOM     22  C   UNL     1      -1.757 -10.380  12.311  0.00  0.00    +0.004 A 
ATOM     23  C   UNL     1      -3.977 -10.003  11.430  0.00  0.00    -0.050 A 
ATOM     24  C   UNL     1      -2.594 -10.030  11.252  0.00  0.00    +0.003 A 
ATOM     26  C   UNL     1      -4.865  -9.625  10.293  0.00  0.00    +0.044 C 
ENDBRANCH  11  14
ENDBRANCH   7  11
BRANCH   8  13
ATOM     13  C   UNL     1      -6.248 -11.348  18.187  0.00  0.00    +0.124 C 
BRANCH  13  17
ATOM      3  O   UNL     1      -7.337 -12.129  20.223  0.00  0.00    -0.251 OA
ATOM     17  C   UNL     1      -6.807 -11.236  19.579  0.00  0.00    +0.305 C 
BRANCH  17   1
ATOM      1  O   UNL     1      -6.639  -9.971  20.039  0.00  0.00    -0.481 OA
ATOM     30  H   UNL     1      -6.493  -9.332  19.308  0.00  0.00    +0.295 HD
ENDBRANCH  17   1
ENDBRANCH  13  17
ENDBRANCH   8  13
BRANCH   6  25
ATOM     25  C   UNL     1      -8.459 -11.436  10.970  0.00  0.00    +0.132 C 
BRANCH  25  27
ATOM     27  C   UNL     1      -7.321 -12.308  10.555  0.00  0.00    -0.016 C 
ATOM     28  C   UNL     1      -6.603 -13.053  11.403  0.00  0.00    +0.005 C 
ENDBRANCH  25  27
ENDBRANCH   6  25
TORSDOF 7
ENDMDL
MODEL 10
REMARK VINA RESULT:      -5.5     24.032     26.906
REMARK  Name = 51136740
REMARK  8 active torsions:
REMARK  status: ('A' for Active; 'I' for Inactive)
REMARK    1  A    between atoms: O_1  and  C_17
REMARK    2  A    between atoms: N_6  and  C_25
REMARK    3  A    between atoms: C_7  and  C_11
REMARK    4  A    between atoms: C_8  and  C_13
REMARK    5  A    between atoms: C_11  and  C_14
REMARK    6  A    between atoms: C_13  and  C_17
REMARK    7  A    between atoms: C_23  and  C_26
REMARK    8  A    between atoms: C_25  and  C_27
REMARK                            x       y       z     vdW  Elec       q    Type
REMARK                         _______ _______ _______ _____ _____    ______ ____
ROOT
ATOM      2  O   UNL     1       7.341   9.141   1.820  0.00  0.00    -0.253 OA
ATOM      4  N   UNL     1       9.135   8.325   3.042  0.00  0.00    -0.285 N 
ATOM      6  N   UNL     1       9.282   8.646   0.704  0.00  0.00    -0.296 N 
ATOM      7  C   UNL     1      10.530   6.406   3.760  0.00  0.00    +0.016 C 
ATOM      8  C   UNL     1       9.742   6.380   5.098  0.00  0.00    +0.006 C 
ATOM      9  C   UNL     1       8.337   6.989   4.946  0.00  0.00    +0.023 C 
ATOM     10  C   UNL     1      10.512   7.830   3.179  0.00  0.00    +0.113 C 
ATOM     12  C   UNL     1       8.393   8.374   4.303  0.00  0.00    +0.109 C 
ATOM     15  C   UNL     1       8.508   8.734   1.854  0.00  0.00    +0.302 C 
ATOM     29  H   UNL     1      10.206   8.239   0.719  0.00  0.00    +0.151 HD
ENDROOT
BRANCH   7  11
ATOM     11  C   UNL     1      10.026   5.397   2.721  0.00  0.00    +0.061 C 
BRANCH  11  14
ATOM      5  N   UNL     1      12.296   4.652   2.474  0.00  0.00    -0.287 NA
ATOM     14  C   UNL     1      11.180   4.912   1.876  0.00  0.00    +0.044 C 
ATOM     16  C   UNL     1      10.977   4.752   0.413  0.00  0.00    -0.001 A 
ATOM     18  C   UNL     1      11.906   3.953  -0.268  0.00  0.00    -0.037 A 
ATOM     19  C   UNL     1      13.014   3.312   0.512  0.00  0.00    +0.059 C 
ATOM     20  C   UNL     1      13.434   4.240   1.645  0.00  0.00    +0.146 C 
ATOM     21  C   UNL     1       9.916   5.344  -0.272  0.00  0.00    +0.013 A 
ATOM     22  C   UNL     1      11.748   3.730  -1.639  0.00  0.00    +0.004 A 
ATOM     23  C   UNL     1       9.776   5.128  -1.644  0.00  0.00    -0.050 A 
ATOM     24  C   UNL     1      10.687   4.321  -2.324  0.00  0.00    +0.003 A 
ATOM     26  C   UNL     1       8.645   5.758  -2.384  0.00  0.00    +0.044 C 
ENDBRANCH  11  14
ENDBRANCH   7  11
BRANCH   8  13
ATOM     13  C   UNL     1       9.662   4.987   5.720  0.00  0.00    +0.124 C 
BRANCH  13  17
ATOM      3  O   UNL     1       9.480   4.492   8.100  0.00  0.00    -0.251 OA
ATOM     17  C   UNL     1      10.082   4.998   7.164  0.00  0.00    +0.305 C 
BRANCH  17   1
ATOM      1  O   UNL     1      11.255   5.669   7.295  0.00  0.00    -0.481 OA
ATOM     30  H   UNL     1      11.985   5.224   6.814  0.00  0.00    +0.295 HD
ENDBRANCH  17   1
ENDBRANCH  13  17
ENDBRANCH   8  13
BRANCH   6  25
ATOM     25  C   UNL     1       8.774   9.023  -0.596  0.00  0.00    +0.132 C 
BRANCH  25  27
ATOM     27  C   UNL     1       9.923   9.229  -1.527  0.00  0.00    -0.016 C 
ATOM     28  C   UNL     1      11.129   8.677  -1.356  0.00  0.00    +0.005 C 
ENDBRANCH  25  27
ENDBRANCH   6  25
TORSDOF 7
ENDMDL
