REMARK  Name = 75537071
REMARK  3 active torsions:
REMARK  status: ('A' for Active; 'I' for Inactive)
REMARK    1  A    between atoms: N_3  and  C_12
REMARK    2  A    between atoms: N_4  and  C_13
REMARK    3  A    between atoms: C_12  and  C_14
REMARK                            x       y       z     vdW  Elec       q    Type
REMARK                         _______ _______ _______ _____ _____    ______ ____
ROOT
ATOM      1  O   UNL     1      -0.174   2.475   0.682  0.00  0.00    -0.252 OA
ATOM      2  N   UNL     1      -1.775   0.915  -0.042  0.00  0.00    -0.278 N 
ATOM      3  N   UNL     1       0.274   0.839  -0.958  0.00  0.00    -0.278 N 
ATOM      4  N   UNL     1      -3.842  -0.986   0.108  0.00  0.00    -0.302 NA
ATOM      6  C   UNL     1      -1.876  -0.095  -1.074  0.00  0.00    +0.109 C 
ATOM      7  C   UNL     1      -0.431  -0.296  -1.527  0.00  0.00    +0.133 C 
ATOM      8  C   UNL     1      -2.559  -1.348  -0.528  0.00  0.00    +0.108 C 
ATOM      9  C   UNL     1      -2.945   1.242   0.747  0.00  0.00    +0.125 C 
ATOM     10  C   UNL     1      -3.630  -0.041   1.223  0.00  0.00    +0.103 C 
ATOM     11  C   UNL     1      -0.517   1.532  -0.020  0.00  0.00    +0.306 C 
ATOM     13  C   UNL     1      -4.532  -2.186   0.581  0.00  0.00    +0.105 C 
ENDROOT
BRANCH   3  12
ATOM     12  C   UNL     1       1.670   1.094  -1.239  0.00  0.00    +0.164 C 
BRANCH  12  14
ATOM      5  N   UNL     1       3.171  -0.803  -1.016  0.00  0.00    -0.258 NA
ATOM     14  C   UNL     1       2.577   0.243  -0.399  0.00  0.00    +0.059 A 
ATOM     15  C   UNL     1       2.759   0.560   0.938  0.00  0.00    +0.025 A 
ATOM     16  C   UNL     1       3.607  -0.247   1.689  0.00  0.00    +0.003 A 
ATOM     17  C   UNL     1       3.987  -1.565  -0.254  0.00  0.00    +0.111 A 
ATOM     18  C   UNL     1       4.236  -1.332   1.089  0.00  0.00    +0.020 A 
ENDBRANCH  12  14
ENDBRANCH   3  12
TORSDOF 2
