MODEL 1
REMARK VINA RESULT:      -8.0      0.000      0.000
REMARK  Name = 7687228
REMARK  4 active torsions:
REMARK  status: ('A' for Active; 'I' for Inactive)
REMARK    1  A    between atoms: S_2  and  N_6
REMARK    2  A    between atoms: S_2  and  C_19
REMARK    3  A    between atoms: C_15  and  C_20
REMARK    4  A    between atoms: C_23  and  C_27
REMARK                            x       y       z     vdW  Elec       q    Type
REMARK                         _______ _______ _______ _____ _____    ______ ____
ROOT
ATOM      5  O   UNL     1      11.203   9.048  17.074  0.00  0.00    -0.268 OA
ATOM      6  N   UNL     1      12.849   9.684  21.729  0.00  0.00    -0.176 NA
ATOM      7  N   UNL     1      12.183   8.193  19.022  0.00  0.00    -0.311 N 
ATOM      8  C   UNL     1      10.921   8.175  21.254  0.00  0.00    +0.025 C 
ATOM      9  C   UNL     1      13.209   7.298  21.134  0.00  0.00    +0.052 C 
ATOM     10  C   UNL     1      11.782   6.963  21.561  0.00  0.00    +0.017 C 
ATOM     11  C   UNL     1      11.415   9.408  22.027  0.00  0.00    +0.114 C 
ATOM     12  C   UNL     1      13.721   8.495  21.959  0.00  0.00    +0.119 C 
ATOM     13  C   UNL     1      10.917   8.394  19.741  0.00  0.00    +0.130 C 
ATOM     14  C   UNL     1      13.307   7.602  19.635  0.00  0.00    +0.033 A 
ATOM     15  C   UNL     1      14.426   7.339  18.907  0.00  0.00    -0.005 A 
ATOM     16  C   UNL     1      12.161   8.544  17.661  0.00  0.00    +0.252 A 
ATOM     17  C   UNL     1      14.428   7.690  17.496  0.00  0.00    +0.015 A 
ATOM     18  C   UNL     1      13.390   8.262  16.889  0.00  0.00    +0.071 A 
ENDROOT
BRANCH   6   2
ATOM      2  S   UNL     1      13.455  11.171  22.323  0.00  0.00    +0.061 S 
ATOM      3  O   UNL     1      13.615  11.078  23.759  0.00  0.00    -0.153 OA
ATOM      4  O   UNL     1      12.706  12.257  21.726  0.00  0.00    -0.153 OA
BRANCH   2  19
ATOM     19  C   UNL     1      15.065  11.160  21.600  0.00  0.00    +0.105 A 
ATOM     21  C   UNL     1      15.189  11.196  20.220  0.00  0.00    +0.028 A 
ATOM     22  C   UNL     1      16.178  11.115  22.423  0.00  0.00    +0.028 A 
ATOM     24  C   UNL     1      16.461  11.188  19.648  0.00  0.00    +0.002 A 
ATOM     25  C   UNL     1      17.451  11.107  21.851  0.00  0.00    +0.002 A 
ATOM     26  C   UNL     1      17.592  11.142  20.464  0.00  0.00    +0.000 A 
ENDBRANCH   2  19
ENDBRANCH   6   2
BRANCH  15  20
ATOM     20  C   UNL     1      15.625   6.753  19.485  0.00  0.00    +0.010 C 
ATOM     23  C   UNL     1      16.650   7.492  19.905  0.00  0.00    +0.008 C 
BRANCH  23  27
ATOM      1 CL   UNL     1      21.660   5.275  22.266  0.00  0.00    -0.084 Cl
ATOM     27  C   UNL     1      17.887   6.943  20.488  0.00  0.00    -0.025 A 
ATOM     28  C   UNL     1      18.475   5.828  19.911  0.00  0.00    +0.009 A 
ATOM     29  C   UNL     1      18.441   7.554  21.602  0.00  0.00    +0.009 A 
ATOM     30  C   UNL     1      19.647   5.310  20.464  0.00  0.00    +0.020 A 
ATOM     31  C   UNL     1      19.612   7.036  22.155  0.00  0.00    +0.020 A 
ATOM     32  C   UNL     1      20.215   5.914  21.586  0.00  0.00    +0.041 A 
ENDBRANCH  23  27
ENDBRANCH  15  20
TORSDOF 4
ENDMDL
MODEL 2
REMARK VINA RESULT:      -7.2      2.084      3.406
REMARK  Name = 7687228
REMARK  4 active torsions:
REMARK  status: ('A' for Active; 'I' for Inactive)
REMARK    1  A    between atoms: S_2  and  N_6
REMARK    2  A    between atoms: S_2  and  C_19
REMARK    3  A    between atoms: C_15  and  C_20
REMARK    4  A    between atoms: C_23  and  C_27
REMARK                            x       y       z     vdW  Elec       q    Type
REMARK                         _______ _______ _______ _____ _____    ______ ____
ROOT
ATOM      5  O   UNL     1      10.543   8.453  19.533  0.00  0.00    -0.268 OA
ATOM      6  N   UNL     1      14.422  11.504  20.186  0.00  0.00    -0.176 NA
ATOM      7  N   UNL     1      12.455   9.089  20.727  0.00  0.00    -0.311 N 
ATOM      8  C   UNL     1      12.606  11.369  21.891  0.00  0.00    +0.025 C 
ATOM      9  C   UNL     1      14.497   9.809  22.002  0.00  0.00    +0.052 C 
ATOM     10  C   UNL     1      13.544  10.652  22.846  0.00  0.00    +0.017 C 
ATOM     11  C   UNL     1      13.391  12.279  20.933  0.00  0.00    +0.114 C 
ATOM     12  C   UNL     1      15.326  10.734  21.091  0.00  0.00    +0.119 C 
ATOM     13  C   UNL     1      11.775  10.320  21.153  0.00  0.00    +0.130 C 
ATOM     14  C   UNL     1      13.754   8.761  21.166  0.00  0.00    +0.033 A 
ATOM     15  C   UNL     1      14.310   7.565  20.832  0.00  0.00    -0.005 A 
ATOM     16  C   UNL     1      11.685   8.223  19.931  0.00  0.00    +0.252 A 
ATOM     17  C   UNL     1      13.533   6.649  20.012  0.00  0.00    +0.015 A 
ATOM     18  C   UNL     1      12.309   6.933  19.568  0.00  0.00    +0.071 A 
ENDROOT
BRANCH   6   2
ATOM      2  S   UNL     1      15.194  12.340  18.906  0.00  0.00    +0.061 S 
ATOM      3  O   UNL     1      16.624  12.326  19.126  0.00  0.00    -0.153 OA
ATOM      4  O   UNL     1      14.490  13.582  18.664  0.00  0.00    -0.153 OA
BRANCH   2  19
ATOM     19  C   UNL     1      14.843  11.246  17.566  0.00  0.00    +0.105 A 
ATOM     21  C   UNL     1      15.292  11.566  16.295  0.00  0.00    +0.028 A 
ATOM     22  C   UNL     1      14.125  10.087  17.808  0.00  0.00    +0.028 A 
ATOM     24  C   UNL     1      15.015  10.701  15.236  0.00  0.00    +0.002 A 
ATOM     25  C   UNL     1      13.848   9.222  16.748  0.00  0.00    +0.002 A 
ATOM     26  C   UNL     1      14.293   9.530  15.463  0.00  0.00    +0.000 A 
ENDBRANCH   2  19
ENDBRANCH   6   2
BRANCH  15  20
ATOM     20  C   UNL     1      15.653   7.177  21.234  0.00  0.00    +0.010 C 
ATOM     23  C   UNL     1      16.701   7.282  20.419  0.00  0.00    +0.008 C 
BRANCH  23  27
ATOM      1 CL   UNL     1      22.269   5.710  21.872  0.00  0.00    -0.084 Cl
ATOM     27  C   UNL     1      18.076   6.895  20.777  0.00  0.00    -0.025 A 
ATOM     28  C   UNL     1      18.747   7.603  21.763  0.00  0.00    +0.009 A 
ATOM     29  C   UNL     1      18.673   5.828  20.124  0.00  0.00    +0.009 A 
ATOM     30  C   UNL     1      20.049   7.235  22.102  0.00  0.00    +0.020 A 
ATOM     31  C   UNL     1      19.975   5.460  20.464  0.00  0.00    +0.020 A 
ATOM     32  C   UNL     1      20.663   6.164  21.452  0.00  0.00    +0.041 A 
ENDBRANCH  23  27
ENDBRANCH  15  20
TORSDOF 4
ENDMDL
MODEL 3
REMARK VINA RESULT:      -6.8     15.081     18.574
REMARK  Name = 7687228
REMARK  4 active torsions:
REMARK  status: ('A' for Active; 'I' for Inactive)
REMARK    1  A    between atoms: S_2  and  N_6
REMARK    2  A    between atoms: S_2  and  C_19
REMARK    3  A    between atoms: C_15  and  C_20
REMARK    4  A    between atoms: C_23  and  C_27
REMARK                            x       y       z     vdW  Elec       q    Type
REMARK                         _______ _______ _______ _____ _____    ______ ____
ROOT
ATOM      5  O   UNL     1      13.277   3.251   1.996  0.00  0.00    -0.268 OA
ATOM      6  N   UNL     1      13.284   7.388   4.766  0.00  0.00    -0.176 NA
ATOM      7  N   UNL     1      12.875   5.547   2.229  0.00  0.00    -0.311 N 
ATOM      8  C   UNL     1      14.770   7.186   2.773  0.00  0.00    +0.025 C 
ATOM      9  C   UNL     1      12.476   8.013   2.501  0.00  0.00    +0.052 C 
ATOM     10  C   UNL     1      13.915   8.191   2.022  0.00  0.00    +0.017 C 
ATOM     11  C   UNL     1      14.696   7.427   4.289  0.00  0.00    +0.114 C 
ATOM     12  C   UNL     1      12.398   8.319   4.008  0.00  0.00    +0.119 C 
ATOM     13  C   UNL     1      14.318   5.780   2.379  0.00  0.00    +0.130 C 
ATOM     14  C   UNL     1      11.943   6.605   2.212  0.00  0.00    +0.033 A 
ATOM     15  C   UNL     1      10.627   6.358   1.968  0.00  0.00    -0.005 A 
ATOM     16  C   UNL     1      12.504   4.209   2.007  0.00  0.00    +0.252 A 
ATOM     17  C   UNL     1      10.217   4.982   1.732  0.00  0.00    +0.015 A 
ATOM     18  C   UNL     1      11.069   3.958   1.755  0.00  0.00    +0.071 A 
ENDROOT
BRANCH   6   2
ATOM      2  S   UNL     1      13.078   7.388   6.466  0.00  0.00    +0.061 S 
ATOM      3  O   UNL     1      13.242   8.737   6.963  0.00  0.00    -0.153 OA
ATOM      4  O   UNL     1      13.832   6.289   7.031  0.00  0.00    -0.153 OA
BRANCH   2  19
ATOM     19  C   UNL     1      11.363   6.980   6.569  0.00  0.00    +0.105 A 
ATOM     21  C   UNL     1      10.886   5.877   5.879  0.00  0.00    +0.028 A 
ATOM     22  C   UNL     1      10.524   7.769   7.337  0.00  0.00    +0.028 A 
ATOM     24  C   UNL     1       9.531   5.555   5.961  0.00  0.00    +0.002 A 
ATOM     25  C   UNL     1       9.168   7.447   7.419  0.00  0.00    +0.002 A 
ATOM     26  C   UNL     1       8.673   6.340   6.730  0.00  0.00    +0.000 A 
ENDBRANCH   2  19
ENDBRANCH   6   2
BRANCH  15  20
ATOM     20  C   UNL     1       9.615   7.401   1.961  0.00  0.00    +0.010 C 
ATOM     23  C   UNL     1       8.889   7.699   3.037  0.00  0.00    +0.008 C 
BRANCH  23  27
ATOM      1 CL   UNL     1       4.669  11.913   3.197  0.00  0.00    -0.084 Cl
ATOM     27  C   UNL     1       7.847   8.741   3.076  0.00  0.00    -0.025 A 
ATOM     28  C   UNL     1       7.304   9.203   1.888  0.00  0.00    +0.009 A 
ATOM     29  C   UNL     1       7.429   9.236   4.300  0.00  0.00    +0.009 A 
ATOM     30  C   UNL     1       6.317  10.189   1.925  0.00  0.00    +0.020 A 
ATOM     31  C   UNL     1       6.442  10.222   4.338  0.00  0.00    +0.020 A 
ATOM     32  C   UNL     1       5.887  10.698   3.151  0.00  0.00    +0.041 A 
ENDBRANCH  23  27
ENDBRANCH  15  20
TORSDOF 4
ENDMDL
MODEL 4
REMARK VINA RESULT:      -6.5     13.091     15.488
REMARK  Name = 7687228
REMARK  4 active torsions:
REMARK  status: ('A' for Active; 'I' for Inactive)
REMARK    1  A    between atoms: S_2  and  N_6
REMARK    2  A    between atoms: S_2  and  C_19
REMARK    3  A    between atoms: C_15  and  C_20
REMARK    4  A    between atoms: C_23  and  C_27
REMARK                            x       y       z     vdW  Elec       q    Type
REMARK                         _______ _______ _______ _____ _____    ______ ____
ROOT
ATOM      5  O   UNL     1      19.463  -5.378  21.313  0.00  0.00    -0.268 OA
ATOM      6  N   UNL     1      18.713  -2.117  24.999  0.00  0.00    -0.176 NA
ATOM      7  N   UNL     1      18.075  -4.436  22.947  0.00  0.00    -0.311 N 
ATOM      8  C   UNL     1      17.417  -1.958  22.873  0.00  0.00    +0.025 C 
ATOM      9  C   UNL     1      16.600  -3.389  24.691  0.00  0.00    +0.052 C 
ATOM     10  C   UNL     1      16.164  -2.423  23.592  0.00  0.00    +0.017 C 
ATOM     11  C   UNL     1      18.371  -1.241  23.843  0.00  0.00    +0.114 C 
ATOM     12  C   UNL     1      17.504  -2.646  25.694  0.00  0.00    +0.119 C 
ATOM     13  C   UNL     1      18.065  -3.169  22.202  0.00  0.00    +0.130 C 
ATOM     14  C   UNL     1      17.325  -4.616  24.127  0.00  0.00    +0.033 A 
ATOM     15  C   UNL     1      17.278  -5.834  24.731  0.00  0.00    -0.005 A 
ATOM     16  C   UNL     1      18.805  -5.477  22.348  0.00  0.00    +0.252 A 
ATOM     17  C   UNL     1      18.022  -6.930  24.131  0.00  0.00    +0.015 A 
ATOM     18  C   UNL     1      18.752  -6.791  23.025  0.00  0.00    +0.071 A 
ENDROOT
BRANCH   6   2
ATOM      2  S   UNL     1      19.961  -1.541  26.020  0.00  0.00    +0.061 S 
ATOM      3  O   UNL     1      19.543  -1.672  27.399  0.00  0.00    -0.153 OA
ATOM      4  O   UNL     1      20.444  -0.277  25.505  0.00  0.00    -0.153 OA
BRANCH   2  19
ATOM     19  C   UNL     1      21.199  -2.761  25.714  0.00  0.00    +0.105 A 
ATOM     21  C   UNL     1      22.509  -2.506  26.089  0.00  0.00    +0.028 A 
ATOM     22  C   UNL     1      20.842  -3.952  25.105  0.00  0.00    +0.028 A 
ATOM     24  C   UNL     1      23.488  -3.471  25.847  0.00  0.00    +0.002 A 
ATOM     25  C   UNL     1      21.820  -4.917  24.864  0.00  0.00    +0.002 A 
ATOM     26  C   UNL     1      23.143  -4.676  25.235  0.00  0.00    +0.000 A 
ENDBRANCH   2  19
ENDBRANCH   6   2
BRANCH  15  20
ATOM     20  C   UNL     1      16.542  -6.079  25.961  0.00  0.00    +0.010 C 
ATOM     23  C   UNL     1      16.427  -7.294  26.495  0.00  0.00    +0.008 C 
BRANCH  23  27
ATOM      1 CL   UNL     1      13.427  -8.496  31.509  0.00  0.00    -0.084 Cl
ATOM     27  C   UNL     1      15.685  -7.592  27.733  0.00  0.00    -0.025 A 
ATOM     28  C   UNL     1      15.623  -8.898  28.191  0.00  0.00    +0.009 A 
ATOM     29  C   UNL     1      15.065  -6.558  28.417  0.00  0.00    +0.009 A 
ATOM     30  C   UNL     1      14.921  -9.179  29.363  0.00  0.00    +0.020 A 
ATOM     31  C   UNL     1      14.364  -6.839  29.590  0.00  0.00    +0.020 A 
ATOM     32  C   UNL     1      14.292  -8.149  30.063  0.00  0.00    +0.041 A 
ENDBRANCH  23  27
ENDBRANCH  15  20
TORSDOF 4
ENDMDL
MODEL 5
REMARK VINA RESULT:      -6.4     16.260     20.025
REMARK  Name = 7687228
REMARK  4 active torsions:
REMARK  status: ('A' for Active; 'I' for Inactive)
REMARK    1  A    between atoms: S_2  and  N_6
REMARK    2  A    between atoms: S_2  and  C_19
REMARK    3  A    between atoms: C_15  and  C_20
REMARK    4  A    between atoms: C_23  and  C_27
REMARK                            x       y       z     vdW  Elec       q    Type
REMARK                         _______ _______ _______ _____ _____    ______ ____
ROOT
ATOM      5  O   UNL     1      10.569   8.704  -1.185  0.00  0.00    -0.268 OA
ATOM      6  N   UNL     1      13.875   5.567   0.819  0.00  0.00    -0.176 NA
ATOM      7  N   UNL     1      11.841   7.981   0.644  0.00  0.00    -0.311 N 
ATOM      8  C   UNL     1      14.405   7.992   0.574  0.00  0.00    +0.025 C 
ATOM      9  C   UNL     1      13.237   7.199   2.581  0.00  0.00    +0.052 C 
ATOM     10  C   UNL     1      14.296   8.177   2.077  0.00  0.00    +0.017 C 
ATOM     11  C   UNL     1      14.822   6.554   0.228  0.00  0.00    +0.114 C 
ATOM     12  C   UNL     1      13.693   5.757   2.288  0.00  0.00    +0.119 C 
ATOM     13  C   UNL     1      13.069   8.383  -0.057  0.00  0.00    +0.130 C 
ATOM     14  C   UNL     1      11.863   7.463   1.955  0.00  0.00    +0.033 A 
ATOM     15  C   UNL     1      10.699   7.199   2.608  0.00  0.00    -0.005 A 
ATOM     16  C   UNL     1      10.645   8.239  -0.048  0.00  0.00    +0.252 A 
ATOM     17  C   UNL     1       9.447   7.459   1.916  0.00  0.00    +0.015 A 
ATOM     18  C   UNL     1       9.390   7.935   0.673  0.00  0.00    +0.071 A 
ENDROOT
BRANCH   6   2
ATOM      2  S   UNL     1      14.076   3.947   0.301  0.00  0.00    +0.061 S 
ATOM      3  O   UNL     1      13.854   3.060   1.423  0.00  0.00    -0.153 OA
ATOM      4  O   UNL     1      15.281   3.854  -0.496  0.00  0.00    -0.153 OA
BRANCH   2  19
ATOM     19  C   UNL     1      12.693   3.796  -0.786  0.00  0.00    +0.105 A 
ATOM     21  C   UNL     1      12.621   2.710  -1.645  0.00  0.00    +0.028 A 
ATOM     22  C   UNL     1      11.703   4.765  -0.763  0.00  0.00    +0.028 A 
ATOM     24  C   UNL     1      11.528   2.591  -2.504  0.00  0.00    +0.002 A 
ATOM     25  C   UNL     1      10.610   4.645  -1.622  0.00  0.00    +0.002 A 
ATOM     26  C   UNL     1      10.523   3.558  -2.492  0.00  0.00    +0.000 A 
ENDBRANCH   2  19
ENDBRANCH   6   2
BRANCH  15  20
ATOM     20  C   UNL     1      10.655   6.643   3.951  0.00  0.00    +0.010 C 
ATOM     23  C   UNL     1       9.612   6.814   4.761  0.00  0.00    +0.008 C 
BRANCH  23  27
ATOM      1 CL   UNL     1       9.258   4.640  10.305  0.00  0.00    -0.084 Cl
ATOM     27  C   UNL     1       9.525   6.278   6.131  0.00  0.00    -0.025 A 
ATOM     28  C   UNL     1       9.051   7.090   7.150  0.00  0.00    +0.009 A 
ATOM     29  C   UNL     1       9.917   4.972   6.373  0.00  0.00    +0.009 A 
ATOM     30  C   UNL     1       8.969   6.581   8.446  0.00  0.00    +0.020 A 
ATOM     31  C   UNL     1       9.835   4.463   7.670  0.00  0.00    +0.020 A 
ATOM     32  C   UNL     1       9.361   5.267   8.706  0.00  0.00    +0.041 A 
ENDBRANCH  23  27
ENDBRANCH  15  20
TORSDOF 4
ENDMDL
MODEL 6
REMARK VINA RESULT:      -6.4     14.897     18.247
REMARK  Name = 7687228
REMARK  4 active torsions:
REMARK  status: ('A' for Active; 'I' for Inactive)
REMARK    1  A    between atoms: S_2  and  N_6
REMARK    2  A    between atoms: S_2  and  C_19
REMARK    3  A    between atoms: C_15  and  C_20
REMARK    4  A    between atoms: C_23  and  C_27
REMARK                            x       y       z     vdW  Elec       q    Type
REMARK                         _______ _______ _______ _____ _____    ______ ____
ROOT
ATOM      5  O   UNL     1       7.692  10.326   5.120  0.00  0.00    -0.268 OA
ATOM      6  N   UNL     1      11.356   7.199   6.376  0.00  0.00    -0.176 NA
ATOM      7  N   UNL     1       8.636   8.183   5.099  0.00  0.00    -0.311 N 
ATOM      8  C   UNL     1       9.049   6.884   7.272  0.00  0.00    +0.025 C 
ATOM      9  C   UNL     1       9.662   5.889   5.114  0.00  0.00    +0.052 C 
ATOM     10  C   UNL     1       8.867   5.657   6.397  0.00  0.00    +0.017 C 
ATOM     11  C   UNL     1      10.532   7.098   7.614  0.00  0.00    +0.114 C 
ATOM     12  C   UNL     1      11.156   6.038   5.460  0.00  0.00    +0.119 C 
ATOM     13  C   UNL     1       8.435   8.085   6.551  0.00  0.00    +0.130 C 
ATOM     14  C   UNL     1       9.167   7.117   4.343  0.00  0.00    +0.033 A 
ATOM     15  C   UNL     1       9.243   7.208   2.988  0.00  0.00    -0.005 A 
ATOM     16  C   UNL     1       8.176   9.373   4.509  0.00  0.00    +0.252 A 
ATOM     17  C   UNL     1       8.770   8.428   2.352  0.00  0.00    +0.015 A 
ATOM     18  C   UNL     1       8.277   9.459   3.037  0.00  0.00    +0.071 A 
ENDROOT
BRANCH   6   2
ATOM      2  S   UNL     1      12.980   7.689   6.607  0.00  0.00    +0.061 S 
ATOM      3  O   UNL     1      13.727   6.594   7.189  0.00  0.00    -0.153 OA
ATOM      4  O   UNL     1      12.993   9.004   7.211  0.00  0.00    -0.153 OA
BRANCH   2  19
ATOM     19  C   UNL     1      13.493   7.858   4.926  0.00  0.00    +0.105 A 
ATOM     21  C   UNL     1      14.711   7.325   4.533  0.00  0.00    +0.028 A 
ATOM     22  C   UNL     1      12.672   8.520   4.029  0.00  0.00    +0.028 A 
ATOM     24  C   UNL     1      15.116   7.459   3.204  0.00  0.00    +0.002 A 
ATOM     25  C   UNL     1      13.077   8.653   2.701  0.00  0.00    +0.002 A 
ATOM     26  C   UNL     1      14.300   8.123   2.289  0.00  0.00    +0.000 A 
ENDBRANCH   2  19
ENDBRANCH   6   2
BRANCH  15  20
ATOM     20  C   UNL     1       9.800   6.155   2.155  0.00  0.00    +0.010 C 
ATOM     23  C   UNL     1      10.155   6.360   0.887  0.00  0.00    +0.008 C 
BRANCH  23  27
ATOM      1 CL   UNL     1      12.418   2.161  -2.696  0.00  0.00    -0.084 Cl
ATOM     27  C   UNL     1      10.715   5.323   0.002  0.00  0.00    -0.025 A 
ATOM     28  C   UNL     1      11.779   4.553   0.445  0.00  0.00    +0.009 A 
ATOM     29  C   UNL     1      10.165   5.137  -1.256  0.00  0.00    +0.009 A 
ATOM     30  C   UNL     1      12.308   3.571  -0.393  0.00  0.00    +0.020 A 
ATOM     31  C   UNL     1      10.694   4.155  -2.094  0.00  0.00    +0.020 A 
ATOM     32  C   UNL     1      11.766   3.372  -1.663  0.00  0.00    +0.041 A 
ENDBRANCH  23  27
ENDBRANCH  15  20
TORSDOF 4
ENDMDL
MODEL 7
REMARK VINA RESULT:      -6.1     13.393     16.120
REMARK  Name = 7687228
REMARK  4 active torsions:
REMARK  status: ('A' for Active; 'I' for Inactive)
REMARK    1  A    between atoms: S_2  and  N_6
REMARK    2  A    between atoms: S_2  and  C_19
REMARK    3  A    between atoms: C_15  and  C_20
REMARK    4  A    between atoms: C_23  and  C_27
REMARK                            x       y       z     vdW  Elec       q    Type
REMARK                         _______ _______ _______ _____ _____    ______ ____
ROOT
ATOM      5  O   UNL     1      22.240  -2.081  26.873  0.00  0.00    -0.268 OA
ATOM      6  N   UNL     1      19.343  -5.382  24.529  0.00  0.00    -0.176 NA
ATOM      7  N   UNL     1      20.822  -3.944  26.925  0.00  0.00    -0.311 N 
ATOM      8  C   UNL     1      21.423  -6.114  25.696  0.00  0.00    +0.025 C 
ATOM      9  C   UNL     1      19.318  -5.957  26.947  0.00  0.00    +0.052 C 
ATOM     10  C   UNL     1      20.593  -6.781  26.778  0.00  0.00    +0.017 C 
ATOM     11  C   UNL     1      20.655  -6.069  24.365  0.00  0.00    +0.114 C 
ATOM     12  C   UNL     1      18.522  -5.971  25.628  0.00  0.00    +0.119 C 
ATOM     13  C   UNL     1      21.826  -4.723  26.187  0.00  0.00    +0.130 C 
ATOM     14  C   UNL     1      19.615  -4.516  27.377  0.00  0.00    +0.033 A 
ATOM     15  C   UNL     1      18.758  -3.791  28.145  0.00  0.00    -0.005 A 
ATOM     16  C   UNL     1      21.194  -2.623  27.228  0.00  0.00    +0.252 A 
ATOM     17  C   UNL     1      19.119  -2.421  28.476  0.00  0.00    +0.015 A 
ATOM     18  C   UNL     1      20.244  -1.846  28.054  0.00  0.00    +0.071 A 
ENDROOT
BRANCH   6   2
ATOM      2  S   UNL     1      18.501  -5.039  23.078  0.00  0.00    +0.061 S 
ATOM      3  O   UNL     1      17.293  -5.836  23.033  0.00  0.00    -0.153 OA
ATOM      4  O   UNL     1      19.439  -5.046  21.977  0.00  0.00    -0.153 OA
BRANCH   2  19
ATOM     19  C   UNL     1      18.031  -3.365  23.382  0.00  0.00    +0.105 A 
ATOM     21  C   UNL     1      16.937  -2.837  22.714  0.00  0.00    +0.028 A 
ATOM     22  C   UNL     1      18.763  -2.608  24.281  0.00  0.00    +0.028 A 
ATOM     24  C   UNL     1      16.566  -1.513  22.955  0.00  0.00    +0.002 A 
ATOM     25  C   UNL     1      18.391  -1.284  24.521  0.00  0.00    +0.002 A 
ATOM     26  C   UNL     1      17.293  -0.738  23.857  0.00  0.00    +0.000 A 
ENDBRANCH   2  19
ENDBRANCH   6   2
BRANCH  15  20
ATOM     20  C   UNL     1      17.488  -4.315  28.623  0.00  0.00    +0.010 C 
ATOM     23  C   UNL     1      17.066  -4.134  29.873  0.00  0.00    +0.008 C 
BRANCH  23  27
ATOM      1 CL   UNL     1      11.915  -6.234  32.029  0.00  0.00    -0.084 Cl
ATOM     27  C   UNL     1      15.793  -4.653  30.404  0.00  0.00    -0.025 A 
ATOM     28  C   UNL     1      15.230  -5.785  29.836  0.00  0.00    +0.009 A 
ATOM     29  C   UNL     1      15.185  -4.000  31.464  0.00  0.00    +0.009 A 
ATOM     30  C   UNL     1      14.025  -6.276  30.341  0.00  0.00    +0.020 A 
ATOM     31  C   UNL     1      13.980  -4.490  31.969  0.00  0.00    +0.020 A 
ATOM     32  C   UNL     1      13.401  -5.628  31.407  0.00  0.00    +0.041 A 
ENDBRANCH  23  27
ENDBRANCH  15  20
TORSDOF 4
ENDMDL
MODEL 8
REMARK VINA RESULT:      -6.1     27.305     30.170
REMARK  Name = 7687228
REMARK  4 active torsions:
REMARK  status: ('A' for Active; 'I' for Inactive)
REMARK    1  A    between atoms: S_2  and  N_6
REMARK    2  A    between atoms: S_2  and  C_19
REMARK    3  A    between atoms: C_15  and  C_20
REMARK    4  A    between atoms: C_23  and  C_27
REMARK                            x       y       z     vdW  Elec       q    Type
REMARK                         _______ _______ _______ _____ _____    ______ ____
ROOT
ATOM      5  O   UNL     1      -1.089 -11.701  14.713  0.00  0.00    -0.268 OA
ATOM      6  N   UNL     1      -5.546 -12.755  12.761  0.00  0.00    -0.176 NA
ATOM      7  N   UNL     1      -3.246 -12.588  14.924  0.00  0.00    -0.311 N 
ATOM      8  C   UNL     1      -4.016 -14.580  13.504  0.00  0.00    +0.025 C 
ATOM      9  C   UNL     1      -5.558 -13.555  15.114  0.00  0.00    +0.052 C 
ATOM     10  C   UNL     1      -4.926 -14.877  14.682  0.00  0.00    +0.017 C 
ATOM     11  C   UNL     1      -4.811 -13.980  12.334  0.00  0.00    +0.114 C 
ATOM     12  C   UNL     1      -6.406 -12.992  13.958  0.00  0.00    +0.119 C 
ATOM     13  C   UNL     1      -2.893 -13.660  13.983  0.00  0.00    +0.130 C 
ATOM     14  C   UNL     1      -4.506 -12.530  15.554  0.00  0.00    +0.033 A 
ATOM     15  C   UNL     1      -4.760 -11.582  16.497  0.00  0.00    -0.005 A 
ATOM     16  C   UNL     1      -2.210 -11.685  15.221  0.00  0.00    +0.252 A 
ATOM     17  C   UNL     1      -3.703 -10.638  16.825  0.00  0.00    +0.015 A 
ATOM     18  C   UNL     1      -2.507 -10.655  16.239  0.00  0.00    +0.071 A 
ENDROOT
BRANCH   6   2
ATOM      2  S   UNL     1      -6.266 -11.847  11.501  0.00  0.00    +0.061 S 
ATOM      3  O   UNL     1      -7.290 -10.990  12.060  0.00  0.00    -0.153 OA
ATOM      4  O   UNL     1      -6.557 -12.729  10.391  0.00  0.00    -0.153 OA
BRANCH   2  19
ATOM     19  C   UNL     1      -4.902 -10.825  11.039  0.00  0.00    +0.105 A 
ATOM     21  C   UNL     1      -4.985 -10.066   9.882  0.00  0.00    +0.028 A 
ATOM     22  C   UNL     1      -3.772 -10.799  11.839  0.00  0.00    +0.028 A 
ATOM     24  C   UNL     1      -3.907  -9.259   9.517  0.00  0.00    +0.002 A 
ATOM     25  C   UNL     1      -2.695  -9.991  11.474  0.00  0.00    +0.002 A 
ATOM     26  C   UNL     1      -2.763  -9.222  10.313  0.00  0.00    +0.000 A 
ENDBRANCH   2  19
ENDBRANCH   6   2
BRANCH  15  20
ATOM     20  C   UNL     1      -6.045 -11.456  17.165  0.00  0.00    +0.010 C 
ATOM     23  C   UNL     1      -6.819 -10.380  17.027  0.00  0.00    +0.008 C 
BRANCH  23  27
ATOM      1 CL   UNL     1     -12.098  -9.668  19.712  0.00  0.00    -0.084 Cl
ATOM     27  C   UNL     1      -8.122 -10.203  17.690  0.00  0.00    -0.025 A 
ATOM     28  C   UNL     1      -9.003  -9.245  17.213  0.00  0.00    +0.009 A 
ATOM     29  C   UNL     1      -8.444 -11.000  18.778  0.00  0.00    +0.009 A 
ATOM     30  C   UNL     1     -10.238  -9.079  17.841  0.00  0.00    +0.020 A 
ATOM     31  C   UNL     1      -9.678 -10.833  19.406  0.00  0.00    +0.020 A 
ATOM     32  C   UNL     1     -10.575  -9.873  18.938  0.00  0.00    +0.041 A 
ENDBRANCH  23  27
ENDBRANCH  15  20
TORSDOF 4
ENDMDL
MODEL 9
REMARK VINA RESULT:      -6.0     28.474     30.817
REMARK  Name = 7687228
REMARK  4 active torsions:
REMARK  status: ('A' for Active; 'I' for Inactive)
REMARK    1  A    between atoms: S_2  and  N_6
REMARK    2  A    between atoms: S_2  and  C_19
REMARK    3  A    between atoms: C_15  and  C_20
REMARK    4  A    between atoms: C_23  and  C_27
REMARK                            x       y       z     vdW  Elec       q    Type
REMARK                         _______ _______ _______ _____ _____    ______ ____
ROOT
ATOM      5  O   UNL     1      -6.328 -11.550  20.632  0.00  0.00    -0.268 OA
ATOM      6  N   UNL     1      -9.433 -12.270  16.808  0.00  0.00    -0.176 NA
ATOM      7  N   UNL     1      -7.364 -10.780  18.678  0.00  0.00    -0.311 N 
ATOM      8  C   UNL     1      -9.912 -10.527  18.528  0.00  0.00    +0.025 C 
ATOM      9  C   UNL     1      -8.510  -9.973  16.593  0.00  0.00    +0.052 C 
ATOM     10  C   UNL     1      -9.595  -9.435  17.523  0.00  0.00    +0.017 C 
ATOM     11  C   UNL     1     -10.419 -11.794  17.820  0.00  0.00    +0.114 C 
ATOM     12  C   UNL     1      -9.048 -11.203  15.838  0.00  0.00    +0.119 C 
ATOM     13  C   UNL     1      -8.661 -10.787  19.368  0.00  0.00    +0.130 C 
ATOM     14  C   UNL     1      -7.225 -10.329  17.349  0.00  0.00    +0.033 A 
ATOM     15  C   UNL     1      -5.993 -10.241  16.779  0.00  0.00    -0.005 A 
ATOM     16  C   UNL     1      -6.264 -11.164  19.465  0.00  0.00    +0.252 A 
ATOM     17  C   UNL     1      -4.838 -10.629  17.573  0.00  0.00    +0.015 A 
ATOM     18  C   UNL     1      -4.935 -11.073  18.826  0.00  0.00    +0.071 A 
ENDROOT
BRANCH   6   2
ATOM      2  S   UNL     1      -9.756 -13.808  16.128  0.00  0.00    +0.061 S 
ATOM      3  O   UNL     1     -10.306 -13.632  14.800  0.00  0.00    -0.153 OA
ATOM      4  O   UNL     1     -10.432 -14.625  17.113  0.00  0.00    -0.153 OA
BRANCH   2  19
ATOM     19  C   UNL     1      -8.109 -14.419  15.953  0.00  0.00    +0.105 A 
ATOM     21  C   UNL     1      -7.828 -15.329  14.945  0.00  0.00    +0.028 A 
ATOM     22  C   UNL     1      -7.126 -13.980  16.824  0.00  0.00    +0.028 A 
ATOM     24  C   UNL     1      -6.526 -15.812  14.807  0.00  0.00    +0.002 A 
ATOM     25  C   UNL     1      -5.824 -14.464  16.685  0.00  0.00    +0.002 A 
ATOM     26  C   UNL     1      -5.525 -15.380  15.677  0.00  0.00    +0.000 A 
ENDBRANCH   2  19
ENDBRANCH   6   2
BRANCH  15  20
ATOM     20  C   UNL     1      -5.786  -9.806  15.407  0.00  0.00    +0.010 C 
ATOM     23  C   UNL     1      -5.129 -10.546  14.515  0.00  0.00    +0.008 C 
BRANCH  23  27
ATOM      1 CL   UNL     1      -4.144  -8.916   8.862  0.00  0.00    -0.084 Cl
ATOM     27  C   UNL     1      -4.887 -10.144  13.118  0.00  0.00    -0.025 A 
ATOM     28  C   UNL     1      -5.883  -9.480  12.419  0.00  0.00    +0.009 A 
ATOM     29  C   UNL     1      -3.667 -10.436  12.531  0.00  0.00    +0.009 A 
ATOM     30  C   UNL     1      -5.652  -9.099  11.097  0.00  0.00    +0.020 A 
ATOM     31  C   UNL     1      -3.436 -10.055  11.208  0.00  0.00    +0.020 A 
ATOM     32  C   UNL     1      -4.429  -9.387  10.492  0.00  0.00    +0.041 A 
ENDBRANCH  23  27
ENDBRANCH  15  20
TORSDOF 4
ENDMDL
MODEL 10
REMARK VINA RESULT:      -5.8     28.921     31.206
REMARK  Name = 7687228
REMARK  4 active torsions:
REMARK  status: ('A' for Active; 'I' for Inactive)
REMARK    1  A    between atoms: S_2  and  N_6
REMARK    2  A    between atoms: S_2  and  C_19
REMARK    3  A    between atoms: C_15  and  C_20
REMARK    4  A    between atoms: C_23  and  C_27
REMARK                            x       y       z     vdW  Elec       q    Type
REMARK                         _______ _______ _______ _____ _____    ______ ____
ROOT
ATOM      5  O   UNL     1     -15.605  11.588  34.187  0.00  0.00    -0.268 OA
ATOM      6  N   UNL     1     -11.905  10.492  31.041  0.00  0.00    -0.176 NA
ATOM      7  N   UNL     1     -13.834  10.203  33.529  0.00  0.00    -0.311 N 
ATOM      8  C   UNL     1     -11.425  11.077  33.418  0.00  0.00    +0.025 C 
ATOM      9  C   UNL     1     -11.914   8.749  32.813  0.00  0.00    +0.052 C 
ATOM     10  C   UNL     1     -11.047   9.635  33.707  0.00  0.00    +0.017 C 
ATOM     11  C   UNL     1     -11.172  11.425  31.943  0.00  0.00    +0.114 C 
ATOM     12  C   UNL     1     -11.607   9.060  31.336  0.00  0.00    +0.119 C 
ATOM     13  C   UNL     1     -12.884  11.284  33.827  0.00  0.00    +0.130 C 
ATOM     14  C   UNL     1     -13.409   8.930  33.098  0.00  0.00    +0.033 A 
ATOM     15  C   UNL     1     -14.311   7.925  32.932  0.00  0.00    -0.005 A 
ATOM     16  C   UNL     1     -15.182  10.501  33.795  0.00  0.00    +0.252 A 
ATOM     17  C   UNL     1     -15.712   8.205  33.203  0.00  0.00    +0.015 A 
ATOM     18  C   UNL     1     -16.149   9.400  33.597  0.00  0.00    +0.071 A 
ENDROOT
BRANCH   6   2
ATOM      2  S   UNL     1     -11.915  10.920  29.383  0.00  0.00    +0.061 S 
ATOM      3  O   UNL     1     -11.135   9.953  28.640  0.00  0.00    -0.153 OA
ATOM      4  O   UNL     1     -11.656  12.339  29.262  0.00  0.00    -0.153 OA
BRANCH   2  19
ATOM     19  C   UNL     1     -13.617  10.645  29.003  0.00  0.00    +0.105 A 
ATOM     21  C   UNL     1     -14.533  10.531  30.038  0.00  0.00    +0.028 A 
ATOM     22  C   UNL     1     -14.009  10.546  27.679  0.00  0.00    +0.028 A 
ATOM     24  C   UNL     1     -15.878  10.314  29.737  0.00  0.00    +0.002 A 
ATOM     25  C   UNL     1     -15.354  10.329  27.378  0.00  0.00    +0.002 A 
ATOM     26  C   UNL     1     -16.288  10.212  28.408  0.00  0.00    +0.000 A 
ENDBRANCH   2  19
ENDBRANCH   6   2
BRANCH  15  20
ATOM     20  C   UNL     1     -13.939   6.598  32.468  0.00  0.00    +0.010 C 
ATOM     23  C   UNL     1     -14.843   5.689  32.105  0.00  0.00    +0.008 C 
BRANCH  23  27
ATOM      1 CL   UNL     1     -13.512   0.190  30.214  0.00  0.00    -0.084 Cl
ATOM     27  C   UNL     1     -14.515   4.331  31.638  0.00  0.00    -0.025 A 
ATOM     28  C   UNL     1     -14.958   3.915  30.391  0.00  0.00    +0.009 A 
ATOM     29  C   UNL     1     -13.769   3.495  32.453  0.00  0.00    +0.009 A 
ATOM     30  C   UNL     1     -14.646   2.629  29.949  0.00  0.00    +0.020 A 
ATOM     31  C   UNL     1     -13.458   2.209  32.011  0.00  0.00    +0.020 A 
ATOM     32  C   UNL     1     -13.896   1.776  30.760  0.00  0.00    +0.041 A 
ENDBRANCH  23  27
ENDBRANCH  15  20
TORSDOF 4
ENDMDL
