MODEL 1
REMARK VINA RESULT:      -7.9      0.000      0.000
REMARK  Name = 40777846
REMARK  7 active torsions:
REMARK  status: ('A' for Active; 'I' for Inactive)
REMARK    1  A    between atoms: O_2  and  C_9
REMARK    2  A    between atoms: O_3  and  C_10
REMARK    3  A    between atoms: N_7  and  C_13
REMARK    4  A    between atoms: C_8  and  C_12
REMARK    5  A    between atoms: C_11  and  C_13
REMARK    6  A    between atoms: C_12  and  C_14
REMARK    7  A    between atoms: C_21  and  C_24
REMARK                            x       y       z     vdW  Elec       q    Type
REMARK                         _______ _______ _______ _____ _____    ______ ____
ROOT
ATOM      1  O   UNL     1      11.133   9.672  21.028  0.00  0.00    -0.366 OA
ATOM      8  C   UNL     1      11.944   8.634  20.451  0.00  0.00    +0.159 C 
ATOM      9  C   UNL     1      12.235   7.663  21.582  0.00  0.00    +0.175 C 
ATOM     10  C   UNL     1      10.941   7.716  22.368  0.00  0.00    +0.176 C 
ATOM     11  C   UNL     1      10.571   9.193  22.271  0.00  0.00    +0.167 C 
ENDROOT
BRANCH   9   2
ATOM      2  O   UNL     1      12.546   6.371  21.104  0.00  0.00    -0.387 OA
ATOM     25  H   UNL     1      11.719   5.861  21.086  0.00  0.00    +0.210 HD
ENDBRANCH   9   2
BRANCH  10   3
ATOM      3  O   UNL     1       9.927   6.962  21.704  0.00  0.00    -0.387 OA
ATOM     26  H   UNL     1       9.897   7.266  20.781  0.00  0.00    +0.210 HD
ENDBRANCH  10   3
BRANCH   8  12
ATOM     12  C   UNL     1      13.196   9.243  19.842  0.00  0.00    +0.130 C 
BRANCH  12  14
ATOM      4  O   UNL     1      13.839   7.329  18.600  0.00  0.00    -0.275 OA
ATOM      6  N   UNL     1      15.373   8.177  20.141  0.00  0.00    -0.271 N 
ATOM     14  C   UNL     1      14.164   8.149  19.460  0.00  0.00    +0.222 C 
ATOM     15  C   UNL     1      15.761   9.162  21.172  0.00  0.00    +0.118 C 
ATOM     16  C   UNL     1      17.177   8.813  21.642  0.00  0.00    +0.056 C 
ATOM     17  C   UNL     1      16.441   7.271  19.968  0.00  0.00    +0.039 A 
ATOM     18  C   UNL     1      17.496   7.608  20.819  0.00  0.00    -0.024 A 
ATOM     19  C   UNL     1      16.541   6.180  19.119  0.00  0.00    +0.024 A 
ATOM     20  C   UNL     1      18.668   6.869  20.841  0.00  0.00    +0.005 A 
ATOM     22  C   UNL     1      17.720   5.428  19.135  0.00  0.00    +0.002 A 
ATOM     23  C   UNL     1      18.776   5.770  19.990  0.00  0.00    +0.000 A 
ENDBRANCH  12  14
ENDBRANCH   8  12
BRANCH  11  13
ATOM     13  C   UNL     1      11.157  10.028  23.401  0.00  0.00    +0.138 C 
BRANCH  13   7
ATOM      5  O   UNL     1      11.191  11.960  25.569  0.00  0.00    -0.276 OA
ATOM      7  N   UNL     1      10.625  11.359  23.391  0.00  0.00    -0.313 N 
ATOM     21  C   UNL     1      10.685  12.221  24.481  0.00  0.00    +0.210 C 
ATOM     24  C   UNL     1      10.074  13.565  24.192  0.00  0.00    +0.109 C 
ATOM     27  H   UNL     1      10.197  11.687  22.530  0.00  0.00    +0.149 HD
ENDBRANCH  13   7
ENDBRANCH  11  13
TORSDOF 6
ENDMDL
MODEL 2
REMARK VINA RESULT:      -7.6      3.461      4.841
REMARK  Name = 40777846
REMARK  7 active torsions:
REMARK  status: ('A' for Active; 'I' for Inactive)
REMARK    1  A    between atoms: O_2  and  C_9
REMARK    2  A    between atoms: O_3  and  C_10
REMARK    3  A    between atoms: N_7  and  C_13
REMARK    4  A    between atoms: C_8  and  C_12
REMARK    5  A    between atoms: C_11  and  C_13
REMARK    6  A    between atoms: C_12  and  C_14
REMARK    7  A    between atoms: C_21  and  C_24
REMARK                            x       y       z     vdW  Elec       q    Type
REMARK                         _______ _______ _______ _____ _____    ______ ____
ROOT
ATOM      1  O   UNL     1      13.819   7.244  18.319  0.00  0.00    -0.366 OA
ATOM      8  C   UNL     1      14.422   7.016  19.605  0.00  0.00    +0.159 C 
ATOM      9  C   UNL     1      13.418   7.527  20.625  0.00  0.00    +0.175 C 
ATOM     10  C   UNL     1      12.104   7.165  19.966  0.00  0.00    +0.176 C 
ATOM     11  C   UNL     1      12.399   7.448  18.496  0.00  0.00    +0.167 C 
ENDROOT
BRANCH   9   2
ATOM      2  O   UNL     1      13.594   6.923  21.889  0.00  0.00    -0.387 OA
ATOM     25  H   UNL     1      12.945   6.203  21.960  0.00  0.00    +0.210 HD
ENDBRANCH   9   2
BRANCH  10   3
ATOM      3  O   UNL     1      11.847   5.769  20.105  0.00  0.00    -0.387 OA
ATOM     26  H   UNL     1      11.383   5.641  20.950  0.00  0.00    +0.210 HD
ENDBRANCH  10   3
BRANCH   8  12
ATOM     12  C   UNL     1      15.764   7.724  19.674  0.00  0.00    +0.130 C 
BRANCH  12  14
ATOM      4  O   UNL     1      16.800   5.723  18.939  0.00  0.00    -0.275 OA
ATOM      6  N   UNL     1      17.930   6.996  20.536  0.00  0.00    -0.271 N 
ATOM     14  C   UNL     1      16.881   6.708  19.674  0.00  0.00    +0.222 C 
ATOM     15  C   UNL     1      18.025   8.179  21.416  0.00  0.00    +0.118 C 
ATOM     16  C   UNL     1      19.351   8.088  22.179  0.00  0.00    +0.056 C 
ATOM     17  C   UNL     1      19.087   6.210  20.721  0.00  0.00    +0.039 A 
ATOM     18  C   UNL     1      19.926   6.810  21.662  0.00  0.00    -0.024 A 
ATOM     19  C   UNL     1      19.444   5.013  20.120  0.00  0.00    +0.024 A 
ATOM     20  C   UNL     1      21.134   6.233  22.023  0.00  0.00    +0.005 A 
ATOM     22  C   UNL     1      20.661   4.423  20.479  0.00  0.00    +0.002 A 
ATOM     23  C   UNL     1      21.500   5.029  21.423  0.00  0.00    +0.000 A 
ENDBRANCH  12  14
ENDBRANCH   8  12
BRANCH  11  13
ATOM     13  C   UNL     1      12.077   8.879  18.088  0.00  0.00    +0.138 C 
BRANCH  13   7
ATOM      5  O   UNL     1      12.430   9.026  15.209  0.00  0.00    -0.276 OA
ATOM      7  N   UNL     1      13.169   9.471  17.373  0.00  0.00    -0.313 N 
ATOM     21  C   UNL     1      13.257   9.497  15.985  0.00  0.00    +0.210 C 
ATOM     24  C   UNL     1      14.493  10.202  15.496  0.00  0.00    +0.109 C 
ATOM     27  H   UNL     1      13.905   9.909  17.919  0.00  0.00    +0.149 HD
ENDBRANCH  13   7
ENDBRANCH  11  13
TORSDOF 6
ENDMDL
MODEL 3
REMARK VINA RESULT:      -7.0      1.922      2.556
REMARK  Name = 40777846
REMARK  7 active torsions:
REMARK  status: ('A' for Active; 'I' for Inactive)
REMARK    1  A    between atoms: O_2  and  C_9
REMARK    2  A    between atoms: O_3  and  C_10
REMARK    3  A    between atoms: N_7  and  C_13
REMARK    4  A    between atoms: C_8  and  C_12
REMARK    5  A    between atoms: C_11  and  C_13
REMARK    6  A    between atoms: C_12  and  C_14
REMARK    7  A    between atoms: C_21  and  C_24
REMARK                            x       y       z     vdW  Elec       q    Type
REMARK                         _______ _______ _______ _____ _____    ______ ____
ROOT
ATOM      1  O   UNL     1      11.278   8.777  20.067  0.00  0.00    -0.366 OA
ATOM      8  C   UNL     1      11.674   7.398  19.968  0.00  0.00    +0.159 C 
ATOM      9  C   UNL     1      11.982   6.956  21.389  0.00  0.00    +0.175 C 
ATOM     10  C   UNL     1      10.949   7.732  22.179  0.00  0.00    +0.176 C 
ATOM     11  C   UNL     1      10.919   9.065  21.438  0.00  0.00    +0.167 C 
ENDROOT
BRANCH   9   2
ATOM      2  O   UNL     1      11.869   5.557  21.544  0.00  0.00    -0.387 OA
ATOM     25  H   UNL     1      11.881   5.368  22.498  0.00  0.00    +0.210 HD
ENDBRANCH   9   2
BRANCH  10   3
ATOM      3  O   UNL     1       9.665   7.124  22.047  0.00  0.00    -0.387 OA
ATOM     26  H   UNL     1       9.805   6.214  21.733  0.00  0.00    +0.210 HD
ENDBRANCH  10   3
BRANCH   8  12
ATOM     12  C   UNL     1      12.860   7.273  19.028  0.00  0.00    +0.130 C 
BRANCH  12  14
ATOM      4  O   UNL     1      14.586   6.444  20.425  0.00  0.00    -0.275 OA
ATOM      6  N   UNL     1      14.734   8.669  19.738  0.00  0.00    -0.271 N 
ATOM     14  C   UNL     1      14.148   7.413  19.805  0.00  0.00    +0.222 C 
ATOM     15  C   UNL     1      14.207   9.831  18.992  0.00  0.00    +0.118 C 
ATOM     16  C   UNL     1      15.179  10.997  19.196  0.00  0.00    +0.056 C 
ATOM     17  C   UNL     1      15.934   9.056  20.372  0.00  0.00    +0.039 A 
ATOM     18  C   UNL     1      16.219  10.392  20.081  0.00  0.00    -0.024 A 
ATOM     19  C   UNL     1      16.782   8.314  21.180  0.00  0.00    +0.024 A 
ATOM     20  C   UNL     1      17.349  11.014  20.586  0.00  0.00    +0.005 A 
ATOM     22  C   UNL     1      17.925   8.934  21.695  0.00  0.00    +0.002 A 
ATOM     23  C   UNL     1      18.207  10.275  21.399  0.00  0.00    +0.000 A 
ENDBRANCH  12  14
ENDBRANCH   8  12
BRANCH  11  13
ATOM     13  C   UNL     1      11.923  10.072  21.982  0.00  0.00    +0.138 C 
BRANCH  13   7
ATOM      5  O   UNL     1      10.874  12.561  23.048  0.00  0.00    -0.276 OA
ATOM      7  N   UNL     1      11.813  11.331  21.307  0.00  0.00    -0.313 N 
ATOM     21  C   UNL     1      11.295  12.479  21.897  0.00  0.00    +0.210 C 
ATOM     24  C   UNL     1      11.317  13.667  20.974  0.00  0.00    +0.109 C 
ATOM     27  H   UNL     1      12.150  11.382  20.350  0.00  0.00    +0.149 HD
ENDBRANCH  13   7
ENDBRANCH  11  13
TORSDOF 6
ENDMDL
MODEL 4
REMARK VINA RESULT:      -6.8     26.209     28.111
REMARK  Name = 40777846
REMARK  7 active torsions:
REMARK  status: ('A' for Active; 'I' for Inactive)
REMARK    1  A    between atoms: O_2  and  C_9
REMARK    2  A    between atoms: O_3  and  C_10
REMARK    3  A    between atoms: N_7  and  C_13
REMARK    4  A    between atoms: C_8  and  C_12
REMARK    5  A    between atoms: C_11  and  C_13
REMARK    6  A    between atoms: C_12  and  C_14
REMARK    7  A    between atoms: C_21  and  C_24
REMARK                            x       y       z     vdW  Elec       q    Type
REMARK                         _______ _______ _______ _____ _____    ______ ____
ROOT
ATOM      1  O   UNL     1      -3.921 -12.296  14.541  0.00  0.00    -0.366 OA
ATOM      8  C   UNL     1      -2.512 -12.266  14.825  0.00  0.00    +0.159 C 
ATOM      9  C   UNL     1      -2.276 -10.977  15.595  0.00  0.00    +0.175 C 
ATOM     10  C   UNL     1      -3.548 -10.874  16.411  0.00  0.00    +0.176 C 
ATOM     11  C   UNL     1      -4.599 -11.374  15.424  0.00  0.00    +0.167 C 
ENDROOT
BRANCH   9   2
ATOM      2  O   UNL     1      -1.108 -11.039  16.386  0.00  0.00    -0.387 OA
ATOM     25  H   UNL     1      -0.373 -11.290  15.800  0.00  0.00    +0.210 HD
ENDBRANCH   9   2
BRANCH  10   3
ATOM      3  O   UNL     1      -3.506 -11.782  17.511  0.00  0.00    -0.387 OA
ATOM     26  H   UNL     1      -4.134 -11.457  18.179  0.00  0.00    +0.210 HD
ENDBRANCH  10   3
BRANCH   8  12
ATOM     12  C   UNL     1      -1.727 -12.344  13.527  0.00  0.00    +0.130 C 
BRANCH  12  14
ATOM      4  O   UNL     1      -1.853 -10.085  12.822  0.00  0.00    -0.275 OA
ATOM      6  N   UNL     1      -2.938 -11.683  11.513  0.00  0.00    -0.271 N 
ATOM     14  C   UNL     1      -2.176 -11.250  12.588  0.00  0.00    +0.222 C 
ATOM     15  C   UNL     1      -3.325 -13.082  11.234  0.00  0.00    +0.118 C 
ATOM     16  C   UNL     1      -4.155 -13.090   9.946  0.00  0.00    +0.056 C 
ATOM     17  C   UNL     1      -3.477 -10.863  10.498  0.00  0.00    +0.039 A 
ATOM     18  C   UNL     1      -4.185 -11.642   9.580  0.00  0.00    -0.024 A 
ATOM     19  C   UNL     1      -3.385  -9.489  10.334  0.00  0.00    +0.024 A 
ATOM     20  C   UNL     1      -4.812 -11.072   8.484  0.00  0.00    +0.005 A 
ATOM     22  C   UNL     1      -4.016  -8.905   9.231  0.00  0.00    +0.002 A 
ATOM     23  C   UNL     1      -4.724  -9.691   8.312  0.00  0.00    +0.000 A 
ENDBRANCH  12  14
ENDBRANCH   8  12
BRANCH  11  13
ATOM     13  C   UNL     1      -5.192 -10.261  14.571  0.00  0.00    +0.138 C 
BRANCH  13   7
ATOM      5  O   UNL     1      -6.288  -8.810  12.308  0.00  0.00    -0.276 OA
ATOM      7  N   UNL     1      -5.956 -10.794  13.483  0.00  0.00    -0.313 N 
ATOM     21  C   UNL     1      -6.444 -10.022  12.433  0.00  0.00    +0.210 C 
ATOM     24  C   UNL     1      -7.191 -10.836  11.412  0.00  0.00    +0.109 C 
ATOM     27  H   UNL     1      -6.130 -11.795  13.476  0.00  0.00    +0.149 HD
ENDBRANCH  13   7
ENDBRANCH  11  13
TORSDOF 6
ENDMDL
MODEL 5
REMARK VINA RESULT:      -6.5     16.158     18.019
REMARK  Name = 40777846
REMARK  7 active torsions:
REMARK  status: ('A' for Active; 'I' for Inactive)
REMARK    1  A    between atoms: O_2  and  C_9
REMARK    2  A    between atoms: O_3  and  C_10
REMARK    3  A    between atoms: N_7  and  C_13
REMARK    4  A    between atoms: C_8  and  C_12
REMARK    5  A    between atoms: C_11  and  C_13
REMARK    6  A    between atoms: C_12  and  C_14
REMARK    7  A    between atoms: C_21  and  C_24
REMARK                            x       y       z     vdW  Elec       q    Type
REMARK                         _______ _______ _______ _____ _____    ______ ____
ROOT
ATOM      1  O   UNL     1       9.441   6.090   5.795  0.00  0.00    -0.366 OA
ATOM      8  C   UNL     1      10.843   6.144   5.478  0.00  0.00    +0.159 C 
ATOM      9  C   UNL     1      11.519   6.725   6.708  0.00  0.00    +0.175 C 
ATOM     10  C   UNL     1      10.683   6.134   7.823  0.00  0.00    +0.176 C 
ATOM     11  C   UNL     1       9.279   6.186   7.228  0.00  0.00    +0.167 C 
ENDROOT
BRANCH   9   2
ATOM      2  O   UNL     1      12.883   6.367   6.781  0.00  0.00    -0.387 OA
ATOM     25  H   UNL     1      13.383   7.017   6.259  0.00  0.00    +0.210 HD
ENDBRANCH   9   2
BRANCH  10   3
ATOM      3  O   UNL     1      11.026   4.764   8.027  0.00  0.00    -0.387 OA
ATOM     26  H   UNL     1      10.710   4.514   8.913  0.00  0.00    +0.210 HD
ENDBRANCH  10   3
BRANCH   8  12
ATOM     12  C   UNL     1      11.052   6.976   4.225  0.00  0.00    +0.130 C 
BRANCH  12  14
ATOM      4  O   UNL     1      13.328   6.563   3.705  0.00  0.00    -0.275 OA
ATOM      6  N   UNL     1      11.717   5.630   2.298  0.00  0.00    -0.271 N 
ATOM     14  C   UNL     1      12.154   6.372   3.386  0.00  0.00    +0.222 C 
ATOM     15  C   UNL     1      10.307   5.401   1.918  0.00  0.00    +0.118 C 
ATOM     16  C   UNL     1      10.298   4.524   0.661  0.00  0.00    +0.056 C 
ATOM     17  C   UNL     1      12.541   4.967   1.365  0.00  0.00    +0.039 A 
ATOM     18  C   UNL     1      11.756   4.320   0.408  0.00  0.00    -0.024 A 
ATOM     19  C   UNL     1      13.925   4.897   1.306  0.00  0.00    +0.024 A 
ATOM     20  C   UNL     1      12.330   3.594  -0.624  0.00  0.00    +0.005 A 
ATOM     22  C   UNL     1      14.512   4.167   0.267  0.00  0.00    +0.002 A 
ATOM     23  C   UNL     1      13.721   3.519  -0.691  0.00  0.00    +0.000 A 
ENDBRANCH  12  14
ENDBRANCH   8  12
BRANCH  11  13
ATOM     13  C   UNL     1       8.552   7.489   7.530  0.00  0.00    +0.138 C 
BRANCH  13   7
ATOM      5  O   UNL     1       9.303   9.802   5.943  0.00  0.00    -0.276 OA
ATOM      7  N   UNL     1       7.892   7.996   6.364  0.00  0.00    -0.313 N 
ATOM     21  C   UNL     1       8.323   9.117   5.661  0.00  0.00    +0.210 C 
ATOM     24  C   UNL     1       7.464   9.416   4.463  0.00  0.00    +0.109 C 
ATOM     27  H   UNL     1       7.075   7.493   6.030  0.00  0.00    +0.149 HD
ENDBRANCH  13   7
ENDBRANCH  11  13
TORSDOF 6
ENDMDL
MODEL 6
REMARK VINA RESULT:      -6.3     27.233     28.414
REMARK  Name = 40777846
REMARK  7 active torsions:
REMARK  status: ('A' for Active; 'I' for Inactive)
REMARK    1  A    between atoms: O_2  and  C_9
REMARK    2  A    between atoms: O_3  and  C_10
REMARK    3  A    between atoms: N_7  and  C_13
REMARK    4  A    between atoms: C_8  and  C_12
REMARK    5  A    between atoms: C_11  and  C_13
REMARK    6  A    between atoms: C_12  and  C_14
REMARK    7  A    between atoms: C_21  and  C_24
REMARK                            x       y       z     vdW  Elec       q    Type
REMARK                         _______ _______ _______ _____ _____    ______ ____
ROOT
ATOM      1  O   UNL     1      -6.596 -12.145  17.071  0.00  0.00    -0.366 OA
ATOM      8  C   UNL     1      -5.340 -11.657  16.568  0.00  0.00    +0.159 C 
ATOM      9  C   UNL     1      -4.463 -11.445  17.791  0.00  0.00    +0.175 C 
ATOM     10  C   UNL     1      -4.903 -12.587  18.682  0.00  0.00    +0.176 C 
ATOM     11  C   UNL     1      -6.405 -12.637  18.417  0.00  0.00    +0.167 C 
ENDROOT
BRANCH   9   2
ATOM      2  O   UNL     1      -3.089 -11.483  17.470  0.00  0.00    -0.387 OA
ATOM     25  H   UNL     1      -2.796 -12.406  17.558  0.00  0.00    +0.210 HD
ENDBRANCH   9   2
BRANCH  10   3
ATOM      3  O   UNL     1      -4.334 -13.815  18.231  0.00  0.00    -0.387 OA
ATOM     26  H   UNL     1      -3.682 -14.095  18.897  0.00  0.00    +0.210 HD
ENDBRANCH  10   3
BRANCH   8  12
ATOM     12  C   UNL     1      -5.569 -10.390  15.763  0.00  0.00    +0.130 C 
BRANCH  12  14
ATOM      4  O   UNL     1      -3.515 -10.755  14.638  0.00  0.00    -0.275 OA
ATOM      6  N   UNL     1      -5.313  -9.980  13.369  0.00  0.00    -0.271 N 
ATOM     14  C   UNL     1      -4.688 -10.396  14.536  0.00  0.00    +0.222 C 
ATOM     15  C   UNL     1      -6.722  -9.550  13.248  0.00  0.00    +0.118 C 
ATOM     16  C   UNL     1      -6.976  -9.188  11.781  0.00  0.00    +0.056 C 
ATOM     17  C   UNL     1      -4.713  -9.895  12.095  0.00  0.00    +0.039 A 
ATOM     18  C   UNL     1      -5.643  -9.442  11.157  0.00  0.00    -0.024 A 
ATOM     19  C   UNL     1      -3.412 -10.190  11.713  0.00  0.00    +0.024 A 
ATOM     20  C   UNL     1      -5.299  -9.272   9.825  0.00  0.00    +0.005 A 
ATOM     22  C   UNL     1      -3.057 -10.021  10.370  0.00  0.00    +0.002 A 
ATOM     23  C   UNL     1      -3.994  -9.565   9.433  0.00  0.00    +0.000 A 
ENDBRANCH  12  14
ENDBRANCH   8  12
BRANCH  11  13
ATOM     13  C   UNL     1      -7.206 -11.747  19.357  0.00  0.00    +0.138 C 
BRANCH  13   7
ATOM      5  O   UNL     1      -9.761 -10.834  20.390  0.00  0.00    -0.276 OA
ATOM      7  N   UNL     1      -8.225 -11.030  18.650  0.00  0.00    -0.313 N 
ATOM     21  C   UNL     1      -9.426 -10.629  19.227  0.00  0.00    +0.210 C 
ATOM     24  C   UNL     1     -10.305  -9.873  18.269  0.00  0.00    +0.109 C 
ATOM     27  H   UNL     1      -8.044 -10.792  17.679  0.00  0.00    +0.149 HD
ENDBRANCH  13   7
ENDBRANCH  11  13
TORSDOF 6
ENDMDL
MODEL 7
REMARK VINA RESULT:      -6.3     18.684     21.655
REMARK  Name = 40777846
REMARK  7 active torsions:
REMARK  status: ('A' for Active; 'I' for Inactive)
REMARK    1  A    between atoms: O_2  and  C_9
REMARK    2  A    between atoms: O_3  and  C_10
REMARK    3  A    between atoms: N_7  and  C_13
REMARK    4  A    between atoms: C_8  and  C_12
REMARK    5  A    between atoms: C_11  and  C_13
REMARK    6  A    between atoms: C_12  and  C_14
REMARK    7  A    between atoms: C_21  and  C_24
REMARK                            x       y       z     vdW  Elec       q    Type
REMARK                         _______ _______ _______ _____ _____    ______ ____
ROOT
ATOM      1  O   UNL     1      13.131   5.466  -0.544  0.00  0.00    -0.366 OA
ATOM      8  C   UNL     1      12.885   4.787   0.700  0.00  0.00    +0.159 C 
ATOM      9  C   UNL     1      13.787   3.564   0.685  0.00  0.00    +0.175 C 
ATOM     10  C   UNL     1      15.008   4.096  -0.035  0.00  0.00    +0.176 C 
ATOM     11  C   UNL     1      14.383   4.998  -1.095  0.00  0.00    +0.167 C 
ENDROOT
BRANCH   9   2
ATOM      2  O   UNL     1      14.066   3.097   1.988  0.00  0.00    -0.387 OA
ATOM     25  H   UNL     1      15.002   2.836   2.009  0.00  0.00    +0.210 HD
ENDBRANCH   9   2
BRANCH  10   3
ATOM      3  O   UNL     1      15.783   4.914   0.841  0.00  0.00    -0.387 OA
ATOM     26  H   UNL     1      16.411   5.414   0.292  0.00  0.00    +0.210 HD
ENDBRANCH  10   3
BRANCH   8  12
ATOM     12  C   UNL     1      11.409   4.445   0.813  0.00  0.00    +0.130 C 
BRANCH  12  14
ATOM      4  O   UNL     1      11.300   3.577   3.016  0.00  0.00    -0.275 OA
ATOM      6  N   UNL     1      10.240   5.615   2.610  0.00  0.00    -0.271 N 
ATOM     14  C   UNL     1      10.980   4.495   2.260  0.00  0.00    +0.222 C 
ATOM     15  C   UNL     1       9.857   6.717   1.701  0.00  0.00    +0.118 C 
ATOM     16  C   UNL     1       9.054   7.737   2.515  0.00  0.00    +0.056 C 
ATOM     17  C   UNL     1       9.723   5.898   3.892  0.00  0.00    +0.039 A 
ATOM     18  C   UNL     1       9.033   7.112   3.872  0.00  0.00    -0.024 A 
ATOM     19  C   UNL     1       9.820   5.161   5.062  0.00  0.00    +0.024 A 
ATOM     20  C   UNL     1       8.429   7.616   5.013  0.00  0.00    +0.005 A 
ATOM     22  C   UNL     1       9.213   5.662   6.218  0.00  0.00    +0.002 A 
ATOM     23  C   UNL     1       8.522   6.881   6.194  0.00  0.00    +0.000 A 
ENDBRANCH  12  14
ENDBRANCH   8  12
BRANCH  11  13
ATOM     13  C   UNL     1      14.078   4.267  -2.394  0.00  0.00    +0.138 C 
BRANCH  13   7
ATOM      5  O   UNL     1      12.157   2.090  -2.359  0.00  0.00    -0.276 OA
ATOM      7  N   UNL     1      12.682   4.332  -2.710  0.00  0.00    -0.313 N 
ATOM     21  C   UNL     1      11.830   3.233  -2.666  0.00  0.00    +0.210 C 
ATOM     24  C   UNL     1      10.410   3.585  -3.020  0.00  0.00    +0.109 C 
ATOM     27  H   UNL     1      12.298   5.239  -2.962  0.00  0.00    +0.149 HD
ENDBRANCH  13   7
ENDBRANCH  11  13
TORSDOF 6
ENDMDL
MODEL 8
REMARK VINA RESULT:      -6.3     26.152     28.194
REMARK  Name = 40777846
REMARK  7 active torsions:
REMARK  status: ('A' for Active; 'I' for Inactive)
REMARK    1  A    between atoms: O_2  and  C_9
REMARK    2  A    between atoms: O_3  and  C_10
REMARK    3  A    between atoms: N_7  and  C_13
REMARK    4  A    between atoms: C_8  and  C_12
REMARK    5  A    between atoms: C_11  and  C_13
REMARK    6  A    between atoms: C_12  and  C_14
REMARK    7  A    between atoms: C_21  and  C_24
REMARK                            x       y       z     vdW  Elec       q    Type
REMARK                         _______ _______ _______ _____ _____    ______ ____
ROOT
ATOM      1  O   UNL     1      -4.033 -12.029  14.496  0.00  0.00    -0.366 OA
ATOM      8  C   UNL     1      -2.632 -11.979  14.817  0.00  0.00    +0.159 C 
ATOM      9  C   UNL     1      -2.485 -10.868  15.844  0.00  0.00    +0.175 C 
ATOM     10  C   UNL     1      -3.772 -11.008  16.629  0.00  0.00    +0.176 C 
ATOM     11  C   UNL     1      -4.777 -11.349  15.533  0.00  0.00    +0.167 C 
ENDROOT
BRANCH   9   2
ATOM      2  O   UNL     1      -1.327 -11.029  16.635  0.00  0.00    -0.387 OA
ATOM     25  H   UNL     1      -0.756 -11.675  16.187  0.00  0.00    +0.210 HD
ENDBRANCH   9   2
BRANCH  10   3
ATOM      3  O   UNL     1      -3.692 -12.122  17.518  0.00  0.00    -0.387 OA
ATOM     26  H   UNL     1      -3.532 -12.914  16.977  0.00  0.00    +0.210 HD
ENDBRANCH  10   3
BRANCH   8  12
ATOM     12  C   UNL     1      -1.825 -11.742  13.553  0.00  0.00    +0.130 C 
BRANCH  12  14
ATOM      4  O   UNL     1      -2.621 -13.611  12.330  0.00  0.00    -0.275 OA
ATOM      6  N   UNL     1      -2.989 -11.494  11.420  0.00  0.00    -0.271 N 
ATOM     14  C   UNL     1      -2.518 -12.384  12.374  0.00  0.00    +0.222 C 
ATOM     15  C   UNL     1      -2.865 -10.022  11.475  0.00  0.00    +0.118 C 
ATOM     16  C   UNL     1      -3.532  -9.449  10.220  0.00  0.00    +0.056 C 
ATOM     17  C   UNL     1      -3.669 -11.838  10.232  0.00  0.00    +0.039 A 
ATOM     18  C   UNL     1      -3.995 -10.684   9.517  0.00  0.00    -0.024 A 
ATOM     19  C   UNL     1      -4.014 -13.090   9.747  0.00  0.00    +0.024 A 
ATOM     20  C   UNL     1      -4.669 -10.751   8.308  0.00  0.00    +0.005 A 
ATOM     22  C   UNL     1      -4.694 -13.168   8.527  0.00  0.00    +0.002 A 
ATOM     23  C   UNL     1      -5.020 -12.007   7.813  0.00  0.00    +0.000 A 
ENDBRANCH  12  14
ENDBRANCH   8  12
BRANCH  11  13
ATOM     13  C   UNL     1      -5.424 -10.118  14.913  0.00  0.00    +0.138 C 
BRANCH  13   7
ATOM      5  O   UNL     1      -8.200 -10.733  15.500  0.00  0.00    -0.276 OA
ATOM      7  N   UNL     1      -6.283  -9.458  15.851  0.00  0.00    -0.313 N 
ATOM     21  C   UNL     1      -7.608  -9.820  16.070  0.00  0.00    +0.210 C 
ATOM     24  C   UNL     1      -8.273  -8.978  17.124  0.00  0.00    +0.109 C 
ATOM     27  H   UNL     1      -5.888  -8.694  16.393  0.00  0.00    +0.149 HD
ENDBRANCH  13   7
ENDBRANCH  11  13
TORSDOF 6
ENDMDL
MODEL 9
REMARK VINA RESULT:      -6.1     26.761     28.423
REMARK  Name = 40777846
REMARK  7 active torsions:
REMARK  status: ('A' for Active; 'I' for Inactive)
REMARK    1  A    between atoms: O_2  and  C_9
REMARK    2  A    between atoms: O_3  and  C_10
REMARK    3  A    between atoms: N_7  and  C_13
REMARK    4  A    between atoms: C_8  and  C_12
REMARK    5  A    between atoms: C_11  and  C_13
REMARK    6  A    between atoms: C_12  and  C_14
REMARK    7  A    between atoms: C_21  and  C_24
REMARK                            x       y       z     vdW  Elec       q    Type
REMARK                         _______ _______ _______ _____ _____    ______ ____
ROOT
ATOM      1  O   UNL     1      -8.256 -11.181  17.420  0.00  0.00    -0.366 OA
ATOM      8  C   UNL     1      -6.833 -11.126  17.618  0.00  0.00    +0.159 C 
ATOM      9  C   UNL     1      -6.627 -11.118  19.123  0.00  0.00    +0.175 C 
ATOM     10  C   UNL     1      -7.751 -12.020  19.588  0.00  0.00    +0.176 C 
ATOM     11  C   UNL     1      -8.883 -11.628  18.644  0.00  0.00    +0.167 C 
ENDROOT
BRANCH   9   2
ATOM      2  O   UNL     1      -5.345 -11.589  19.484  0.00  0.00    -0.387 OA
ATOM     25  H   UNL     1      -4.954 -10.933  20.086  0.00  0.00    +0.210 HD
ENDBRANCH   9   2
BRANCH  10   3
ATOM      3  O   UNL     1      -7.423 -13.387  19.343  0.00  0.00    -0.387 OA
ATOM     26  H   UNL     1      -6.763 -13.404  18.628  0.00  0.00    +0.210 HD
ENDBRANCH  10   3
BRANCH   8  12
ATOM     12  C   UNL     1      -6.268  -9.898  16.925  0.00  0.00    +0.130 C 
BRANCH  12  14
ATOM      4  O   UNL     1      -3.997 -10.566  16.805  0.00  0.00    -0.275 OA
ATOM      6  N   UNL     1      -5.127 -10.229  14.791  0.00  0.00    -0.271 N 
ATOM     14  C   UNL     1      -5.011 -10.266  16.173  0.00  0.00    +0.222 C 
ATOM     15  C   UNL     1      -6.345  -9.868  14.035  0.00  0.00    +0.118 C 
ATOM     16  C   UNL     1      -6.015  -9.970  12.542  0.00  0.00    +0.056 C 
ATOM     17  C   UNL     1      -4.103 -10.527  13.867  0.00  0.00    +0.039 A 
ATOM     18  C   UNL     1      -4.581 -10.387  12.562  0.00  0.00    -0.024 A 
ATOM     19  C   UNL     1      -2.791 -10.911  14.100  0.00  0.00    +0.024 A 
ATOM     20  C   UNL     1      -3.766 -10.625  11.467  0.00  0.00    +0.005 A 
ATOM     22  C   UNL     1      -1.961 -11.153  13.000  0.00  0.00    +0.002 A 
ATOM     23  C   UNL     1      -2.446 -11.011  11.693  0.00  0.00    +0.000 A 
ENDBRANCH  12  14
ENDBRANCH   8  12
BRANCH  11  13
ATOM     13  C   UNL     1      -9.735 -10.485  19.178  0.00  0.00    +0.138 C 
BRANCH  13   7
ATOM      5  O   UNL     1     -11.962  -9.063  17.975  0.00  0.00    -0.276 OA
ATOM      7  N   UNL     1      -9.674  -9.346  18.311  0.00  0.00    -0.313 N 
ATOM     21  C   UNL     1     -10.798  -8.723  17.777  0.00  0.00    +0.210 C 
ATOM     24  C   UNL     1     -10.452  -7.536  16.921  0.00  0.00    +0.109 C 
ATOM     27  H   UNL     1      -8.756  -8.968  18.094  0.00  0.00    +0.149 HD
ENDBRANCH  13   7
ENDBRANCH  11  13
TORSDOF 6
ENDMDL
MODEL 10
REMARK VINA RESULT:      -6.1     27.373     28.534
REMARK  Name = 40777846
REMARK  7 active torsions:
REMARK  status: ('A' for Active; 'I' for Inactive)
REMARK    1  A    between atoms: O_2  and  C_9
REMARK    2  A    between atoms: O_3  and  C_10
REMARK    3  A    between atoms: N_7  and  C_13
REMARK    4  A    between atoms: C_8  and  C_12
REMARK    5  A    between atoms: C_11  and  C_13
REMARK    6  A    between atoms: C_12  and  C_14
REMARK    7  A    between atoms: C_21  and  C_24
REMARK                            x       y       z     vdW  Elec       q    Type
REMARK                         _______ _______ _______ _____ _____    ______ ____
ROOT
ATOM      1  O   UNL     1      -5.338  -8.850  11.325  0.00  0.00    -0.366 OA
ATOM      8  C   UNL     1      -4.684  -9.925  12.021  0.00  0.00    +0.159 C 
ATOM      9  C   UNL     1      -4.059 -10.794  10.942  0.00  0.00    +0.175 C 
ATOM     10  C   UNL     1      -3.646  -9.756   9.919  0.00  0.00    +0.176 C 
ATOM     11  C   UNL     1      -4.807  -8.769   9.982  0.00  0.00    +0.167 C 
ENDROOT
BRANCH   9   2
ATOM      2  O   UNL     1      -2.976 -11.554  11.435  0.00  0.00    -0.387 OA
ATOM     25  H   UNL     1      -2.470 -10.983  12.036  0.00  0.00    +0.210 HD
ENDBRANCH   9   2
BRANCH  10   3
ATOM      3  O   UNL     1      -2.466  -9.079  10.348  0.00  0.00    -0.387 OA
ATOM     26  H   UNL     1      -2.727  -8.184  10.622  0.00  0.00    +0.210 HD
ENDBRANCH  10   3
BRANCH   8  12
ATOM     12  C   UNL     1      -5.693 -10.666  12.881  0.00  0.00    +0.130 C 
BRANCH  12  14
ATOM      4  O   UNL     1      -3.965 -11.608  14.202  0.00  0.00    -0.275 OA
ATOM      6  N   UNL     1      -5.808 -10.714  15.321  0.00  0.00    -0.271 N 
ATOM     14  C   UNL     1      -5.061 -11.048  14.199  0.00  0.00    +0.222 C 
ATOM     15  C   UNL     1      -7.123 -10.041  15.314  0.00  0.00    +0.118 C 
ATOM     16  C   UNL     1      -7.567  -9.869  16.771  0.00  0.00    +0.056 C 
ATOM     17  C   UNL     1      -5.442 -10.961  16.661  0.00  0.00    +0.039 A 
ATOM     18  C   UNL     1      -6.434 -10.487  17.522  0.00  0.00    -0.024 A 
ATOM     19  C   UNL     1      -4.302 -11.570  17.164  0.00  0.00    +0.024 A 
ATOM     20  C   UNL     1      -6.312 -10.609  18.897  0.00  0.00    +0.005 A 
ATOM     22  C   UNL     1      -4.172 -11.697  18.551  0.00  0.00    +0.002 A 
ATOM     23  C   UNL     1      -5.170 -11.220  19.412  0.00  0.00    +0.000 A 
ENDBRANCH  12  14
ENDBRANCH   8  12
BRANCH  11  13
ATOM     13  C   UNL     1      -5.932  -9.108   9.014  0.00  0.00    +0.138 C 
BRANCH  13   7
ATOM      5  O   UNL     1      -8.655  -8.183   9.412  0.00  0.00    -0.276 OA
ATOM      7  N   UNL     1      -6.535  -7.921   8.484  0.00  0.00    -0.313 N 
ATOM     21  C   UNL     1      -7.854  -7.553   8.727  0.00  0.00    +0.210 C 
ATOM     24  C   UNL     1      -8.223  -6.250   8.071  0.00  0.00    +0.109 C 
ATOM     27  H   UNL     1      -5.954  -7.313   7.914  0.00  0.00    +0.149 HD
ENDBRANCH  13   7
ENDBRANCH  11  13
TORSDOF 6
ENDMDL
