REMARK  Name = 7674727
REMARK  5 active torsions:
REMARK  status: ('A' for Active; 'I' for Inactive)
REMARK    1  A    between atoms: O_6  and  C_30
REMARK    2  A    between atoms: O_6  and  C_35
REMARK    3  A    between atoms: N_9  and  C_23
REMARK    4  A    between atoms: C_20  and  C_22
REMARK    5  A    between atoms: C_33  and  C_34
REMARK                            x       y       z     vdW  Elec       q    Type
REMARK                         _______ _______ _______ _____ _____    ______ ____
ROOT
ATOM      4  O   UNL     1       0.469  -1.245  -1.827  0.00  0.00    -0.267 OA
ATOM      5  O   UNL     1      -3.507   0.585   1.968  0.00  0.00    -0.252 OA
ATOM      7  N   UNL     1      -4.088  -0.838   0.238  0.00  0.00    -0.284 N 
ATOM      8  N   UNL     1      -1.342  -2.177  -0.692  0.00  0.00    -0.311 N 
ATOM      9  N   UNL     1      -3.799   1.470  -0.156  0.00  0.00    -0.269 N 
ATOM     10  C   UNL     1      -3.677  -2.342  -1.724  0.00  0.00    +0.027 C 
ATOM     11  C   UNL     1      -3.290  -3.175   0.554  0.00  0.00    +0.054 C 
ATOM     12  C   UNL     1      -3.848  -3.552  -0.816  0.00  0.00    +0.018 C 
ATOM     13  C   UNL     1      -4.431  -1.118  -1.166  0.00  0.00    +0.114 C 
ATOM     14  C   UNL     1      -2.179  -2.062  -1.893  0.00  0.00    +0.130 C 
ATOM     15  C   UNL     1      -4.110  -2.006   1.128  0.00  0.00    +0.119 C 
ATOM     16  C   UNL     1      -1.827  -2.784   0.469  0.00  0.00    +0.027 A 
ATOM     17  C   UNL     1      -1.009  -2.990   1.513  0.00  0.00    +0.022 A 
ATOM     18  C   UNL     1      -0.005  -1.749  -0.808  0.00  0.00    +0.259 A 
ATOM     19  C   UNL     1      -3.768   0.430   0.772  0.00  0.00    +0.306 C 
ATOM     20  C   UNL     1       0.877  -1.955   0.395  0.00  0.00    +0.047 A 
ATOM     21  C   UNL     1       0.360  -2.562   1.474  0.00  0.00    +0.015 A 
ATOM     36  H   UNL     1      -4.416   1.381  -0.956  0.00  0.00    +0.156 HD
ENDROOT
BRANCH   9  23
ATOM     23  C   UNL     1      -3.090   2.695  -0.094  0.00  0.00    +0.035 A 
ATOM     26  C   UNL     1      -3.307   3.670  -1.063  0.00  0.00    +0.023 A 
ATOM     27  C   UNL     1      -2.179   2.916   0.936  0.00  0.00    +0.023 A 
ATOM     31  C   UNL     1      -2.609   4.876  -1.002  0.00  0.00    +0.005 A 
ATOM     32  C   UNL     1      -1.481   4.122   0.997  0.00  0.00    +0.005 A 
ATOM     33  C   UNL     1      -1.696   5.102   0.028  0.00  0.00    -0.050 A 
ATOM     34  C   UNL     1      -0.948   6.391   0.093  0.00  0.00    +0.044 C 
ENDBRANCH   9  23
BRANCH  20  22
ATOM     22  C   UNL     1       2.276  -1.495   0.403  0.00  0.00    -0.012 A 
ATOM     24  C   UNL     1       3.294  -2.347  -0.026  0.00  0.00    +0.012 A 
ATOM     25  C   UNL     1       2.585  -0.206   0.840  0.00  0.00    +0.012 A 
ATOM     28  C   UNL     1       4.619  -1.912  -0.018  0.00  0.00    +0.046 A 
ATOM     29  C   UNL     1       3.910   0.229   0.848  0.00  0.00    +0.046 A 
ATOM     30  C   UNL     1       4.927  -0.623   0.419  0.00  0.00    +0.130 A 
BRANCH  30   6
ATOM      6  O   UNL     1       6.220  -0.199   0.428  0.00  0.00    -0.406 OA
BRANCH   6  35
ATOM      1  F   UNL     1       7.838   0.807  -0.783  0.00  0.00    -0.133 F 
ATOM      2  F   UNL     1       5.768   1.033  -1.446  0.00  0.00    -0.133 F 
ATOM      3  F   UNL     1       6.480   2.073   0.370  0.00  0.00    -0.133 F 
ATOM     35  C   UNL     1       6.561   0.938  -0.357  0.00  0.00    +0.575 C 
ENDBRANCH   6  35
ENDBRANCH  30   6
ENDBRANCH  20  22
TORSDOF 4
