MODEL 1
REMARK VINA RESULT:      -6.3      0.000      0.000
REMARK  Name = 26744052
REMARK  8 active torsions:
REMARK  status: ('A' for Active; 'I' for Inactive)
REMARK    1  A    between atoms: S_1  and  C_19
REMARK    2  A    between atoms: S_1  and  C_20
REMARK    3  A    between atoms: O_2  and  C_16
REMARK    4  A    between atoms: N_6  and  C_12
REMARK    5  A    between atoms: C_9  and  C_12
REMARK    6  A    between atoms: C_13  and  C_17
REMARK    7  A    between atoms: C_18  and  C_19
REMARK    8  A    between atoms: C_25  and  C_26
REMARK                            x       y       z     vdW  Elec       q    Type
REMARK                         _______ _______ _______ _____ _____    ______ ____
ROOT
ATOM      3  O   UNL     1      15.310   7.173  21.461  0.00  0.00    -0.336 OA
ATOM      7  N   UNL     1      15.151   7.265  19.228  0.00  0.00    -0.193 NA
ATOM      8  N   UNL     1      13.958   6.965  21.158  0.00  0.00    -0.060 NA
ATOM     17  C   UNL     1      15.941   7.341  20.269  0.00  0.00    +0.245 A 
ATOM     18  C   UNL     1      13.944   7.034  19.824  0.00  0.00    +0.193 A 
ENDROOT
BRANCH  17  13
ATOM      6  N   UNL     1      17.816   8.545  21.377  0.00  0.00    -0.289 NA
ATOM     13  C   UNL     1      17.434   7.582  20.324  0.00  0.00    +0.148 C 
ATOM     14  C   UNL     1      19.164   8.175  21.807  0.00  0.00    +0.116 C 
ATOM     15  C   UNL     1      18.232   6.306  20.650  0.00  0.00    +0.061 C 
ATOM     16  C   UNL     1      19.066   6.663  21.874  0.00  0.00    +0.130 C 
BRANCH  16   2
ATOM      2  O   UNL     1      20.340   6.051  21.810  0.00  0.00    -0.390 OA
ATOM     27  H   UNL     1      20.213   5.148  21.473  0.00  0.00    +0.210 HD
ENDBRANCH  16   2
BRANCH   6  12
ATOM     12  C   UNL     1      17.742   9.932  20.940  0.00  0.00    +0.088 C 
BRANCH  12   9
ATOM      9  C   UNL     1      17.043  10.784  21.951  0.00  0.00    +0.003 C 
ATOM     10  C   UNL     1      15.621  10.474  22.314  0.00  0.00    +0.005 C 
ATOM     11  C   UNL     1      15.939  11.696  21.504  0.00  0.00    +0.005 C 
ENDBRANCH  12   9
ENDBRANCH   6  12
ENDBRANCH  17  13
BRANCH  18  19
ATOM     19  C   UNL     1      12.709   6.870  19.049  0.00  0.00    +0.251 C 
BRANCH  19   1
ATOM      1  S   UNL     1      12.092   8.474  18.619  0.00  0.00    +0.004 S 
ATOM      4  O   UNL     1      10.838   8.287  17.915  0.00  0.00    -0.169 OA
ATOM      5  O   UNL     1      13.171   9.235  18.014  0.00  0.00    -0.169 OA
BRANCH   1  20
ATOM     20  C   UNL     1      11.740   9.223  20.178  0.00  0.00    +0.089 A 
ATOM     21  C   UNL     1      10.862   8.604  21.068  0.00  0.00    +0.027 A 
ATOM     22  C   UNL     1      12.337  10.436  20.520  0.00  0.00    +0.027 A 
ATOM     23  C   UNL     1      10.581   9.197  22.298  0.00  0.00    +0.005 A 
ATOM     24  C   UNL     1      12.057  11.031  21.751  0.00  0.00    +0.005 A 
ATOM     25  C   UNL     1      11.179  10.410  22.640  0.00  0.00    -0.050 A 
ATOM     26  C   UNL     1      10.879  11.044  23.957  0.00  0.00    +0.044 C 
ENDBRANCH   1  20
ENDBRANCH  19   1
ENDBRANCH  18  19
TORSDOF 7
ENDMDL
MODEL 2
REMARK VINA RESULT:      -6.0      3.964      6.765
REMARK  Name = 26744052
REMARK  8 active torsions:
REMARK  status: ('A' for Active; 'I' for Inactive)
REMARK    1  A    between atoms: S_1  and  C_19
REMARK    2  A    between atoms: S_1  and  C_20
REMARK    3  A    between atoms: O_2  and  C_16
REMARK    4  A    between atoms: N_6  and  C_12
REMARK    5  A    between atoms: C_9  and  C_12
REMARK    6  A    between atoms: C_13  and  C_17
REMARK    7  A    between atoms: C_18  and  C_19
REMARK    8  A    between atoms: C_25  and  C_26
REMARK                            x       y       z     vdW  Elec       q    Type
REMARK                         _______ _______ _______ _____ _____    ______ ____
ROOT
ATOM      3  O   UNL     1      10.958   9.891  23.458  0.00  0.00    -0.336 OA
ATOM      7  N   UNL     1      11.355  10.522  21.345  0.00  0.00    -0.193 NA
ATOM      8  N   UNL     1      10.719   8.762  22.663  0.00  0.00    -0.060 NA
ATOM     17  C   UNL     1      11.327  10.882  22.604  0.00  0.00    +0.245 A 
ATOM     18  C   UNL     1      10.974   9.213  21.431  0.00  0.00    +0.193 A 
ENDROOT
BRANCH  17  13
ATOM      6  N   UNL     1      10.489  13.142  23.223  0.00  0.00    -0.289 NA
ATOM     13  C   UNL     1      11.647  12.224  23.225  0.00  0.00    +0.148 C 
ATOM     14  C   UNL     1      10.652  14.016  24.384  0.00  0.00    +0.116 C 
ATOM     15  C   UNL     1      12.058  12.113  24.705  0.00  0.00    +0.061 C 
ATOM     16  C   UNL     1      11.103  13.037  25.451  0.00  0.00    +0.130 C 
BRANCH  16   2
ATOM      2  O   UNL     1      11.767  13.690  26.516  0.00  0.00    -0.390 OA
ATOM     27  H   UNL     1      11.783  13.077  27.269  0.00  0.00    +0.210 HD
ENDBRANCH  16   2
BRANCH   6  12
ATOM     12  C   UNL     1      10.357  13.896  21.984  0.00  0.00    +0.088 C 
BRANCH  12   9
ATOM      9  C   UNL     1      11.689  14.336  21.470  0.00  0.00    +0.003 C 
ATOM     10  C   UNL     1      11.756  15.425  20.441  0.00  0.00    +0.005 C 
ATOM     11  C   UNL     1      12.075  14.010  20.057  0.00  0.00    +0.005 C 
ENDBRANCH  12   9
ENDBRANCH   6  12
ENDBRANCH  17  13
BRANCH  18  19
ATOM     19  C   UNL     1      10.854   8.355  20.248  0.00  0.00    +0.251 C 
BRANCH  19   1
ATOM      1  S   UNL     1      12.461   7.738  19.829  0.00  0.00    +0.004 S 
ATOM      4  O   UNL     1      12.293   6.393  19.314  0.00  0.00    -0.169 OA
ATOM      5  O   UNL     1      13.357   7.995  20.942  0.00  0.00    -0.169 OA
BRANCH   1  20
ATOM     20  C   UNL     1      12.977   8.775  18.496  0.00  0.00    +0.089 A 
ATOM     21  C   UNL     1      14.019   9.685  18.683  0.00  0.00    +0.027 A 
ATOM     22  C   UNL     1      12.343   8.687  17.257  0.00  0.00    +0.027 A 
ATOM     23  C   UNL     1      14.425  10.505  17.631  0.00  0.00    +0.005 A 
ATOM     24  C   UNL     1      12.748   9.508  16.205  0.00  0.00    +0.005 A 
ATOM     25  C   UNL     1      13.790  10.417  16.392  0.00  0.00    -0.050 A 
ATOM     26  C   UNL     1      14.224  11.295  15.267  0.00  0.00    +0.044 C 
ENDBRANCH   1  20
ENDBRANCH  19   1
ENDBRANCH  18  19
TORSDOF 7
ENDMDL
MODEL 3
REMARK VINA RESULT:      -5.9     26.829     29.147
REMARK  Name = 26744052
REMARK  8 active torsions:
REMARK  status: ('A' for Active; 'I' for Inactive)
REMARK    1  A    between atoms: S_1  and  C_19
REMARK    2  A    between atoms: S_1  and  C_20
REMARK    3  A    between atoms: O_2  and  C_16
REMARK    4  A    between atoms: N_6  and  C_12
REMARK    5  A    between atoms: C_9  and  C_12
REMARK    6  A    between atoms: C_13  and  C_17
REMARK    7  A    between atoms: C_18  and  C_19
REMARK    8  A    between atoms: C_25  and  C_26
REMARK                            x       y       z     vdW  Elec       q    Type
REMARK                         _______ _______ _______ _____ _____    ______ ____
ROOT
ATOM      3  O   UNL     1      -4.946 -11.275  18.239  0.00  0.00    -0.336 OA
ATOM      7  N   UNL     1      -4.827 -10.218  16.268  0.00  0.00    -0.193 NA
ATOM      8  N   UNL     1      -3.626 -11.426  17.795  0.00  0.00    -0.060 NA
ATOM     17  C   UNL     1      -5.585 -10.553  17.281  0.00  0.00    +0.245 A 
ATOM     18  C   UNL     1      -3.634 -10.776  16.628  0.00  0.00    +0.193 A 
ENDROOT
BRANCH  17  13
ATOM      6  N   UNL     1      -7.937 -11.341  17.090  0.00  0.00    -0.289 NA
ATOM     13  C   UNL     1      -7.047 -10.247  17.528  0.00  0.00    +0.148 C 
ATOM     14  C   UNL     1      -9.112 -11.291  17.960  0.00  0.00    +0.116 C 
ATOM     15  C   UNL     1      -7.370 -10.050  19.021  0.00  0.00    +0.061 C 
ATOM     16  C   UNL     1      -8.485 -11.045  19.318  0.00  0.00    +0.130 C 
BRANCH  16   2
ATOM      2  O   UNL     1      -9.414 -10.499  20.235  0.00  0.00    -0.390 OA
ATOM     27  H   UNL     1      -9.708  -9.644  19.878  0.00  0.00    +0.210 HD
ENDBRANCH  16   2
BRANCH   6  12
ATOM     12  C   UNL     1      -8.295 -11.261  15.681  0.00  0.00    +0.088 C 
BRANCH  12   9
ATOM      9  C   UNL     1      -8.488  -9.843  15.249  0.00  0.00    +0.003 C 
ATOM     10  C   UNL     1      -9.854  -9.382  14.832  0.00  0.00    +0.005 C 
ATOM     11  C   UNL     1      -8.772  -9.548  13.806  0.00  0.00    +0.005 C 
ENDBRANCH  12   9
ENDBRANCH   6  12
ENDBRANCH  17  13
BRANCH  18  19
ATOM     19  C   UNL     1      -2.435 -10.670  15.789  0.00  0.00    +0.251 C 
BRANCH  19   1
ATOM      1  S   UNL     1      -2.515 -11.910  14.527  0.00  0.00    +0.004 S 
ATOM      4  O   UNL     1      -3.629 -12.784  14.842  0.00  0.00    -0.169 OA
ATOM      5  O   UNL     1      -1.184 -12.454  14.330  0.00  0.00    -0.169 OA
BRANCH   1  20
ATOM     20  C   UNL     1      -2.926 -11.003  13.068  0.00  0.00    +0.089 A 
ATOM     21  C   UNL     1      -1.914 -10.519  12.239  0.00  0.00    +0.027 A 
ATOM     22  C   UNL     1      -4.263 -10.768  12.746  0.00  0.00    +0.027 A 
ATOM     23  C   UNL     1      -2.238  -9.800  11.089  0.00  0.00    +0.005 A 
ATOM     24  C   UNL     1      -4.588 -10.048  11.596  0.00  0.00    +0.005 A 
ATOM     25  C   UNL     1      -3.575  -9.565  10.767  0.00  0.00    -0.050 A 
ATOM     26  C   UNL     1      -3.922  -8.796   9.537  0.00  0.00    +0.044 C 
ENDBRANCH   1  20
ENDBRANCH  19   1
ENDBRANCH  18  19
TORSDOF 7
ENDMDL
MODEL 4
REMARK VINA RESULT:      -5.8     15.510     18.277
REMARK  Name = 26744052
REMARK  8 active torsions:
REMARK  status: ('A' for Active; 'I' for Inactive)
REMARK    1  A    between atoms: S_1  and  C_19
REMARK    2  A    between atoms: S_1  and  C_20
REMARK    3  A    between atoms: O_2  and  C_16
REMARK    4  A    between atoms: N_6  and  C_12
REMARK    5  A    between atoms: C_9  and  C_12
REMARK    6  A    between atoms: C_13  and  C_17
REMARK    7  A    between atoms: C_18  and  C_19
REMARK    8  A    between atoms: C_25  and  C_26
REMARK                            x       y       z     vdW  Elec       q    Type
REMARK                         _______ _______ _______ _____ _____    ______ ____
ROOT
ATOM      3  O   UNL     1      12.399   6.913   5.014  0.00  0.00    -0.336 OA
ATOM      7  N   UNL     1      10.305   6.485   4.342  0.00  0.00    -0.193 NA
ATOM      8  N   UNL     1      12.475   6.661   3.638  0.00  0.00    -0.060 NA
ATOM     17  C   UNL     1      11.087   6.789   5.347  0.00  0.00    +0.245 A 
ATOM     18  C   UNL     1      11.202   6.417   3.315  0.00  0.00    +0.193 A 
ENDROOT
BRANCH  17  13
ATOM      6  N   UNL     1       9.279   7.127   7.023  0.00  0.00    -0.289 NA
ATOM     13  C   UNL     1      10.735   7.020   6.801  0.00  0.00    +0.148 C 
ATOM     14  C   UNL     1       9.031   6.640   8.380  0.00  0.00    +0.116 C 
ATOM     15  C   UNL     1      11.189   5.866   7.714  0.00  0.00    +0.061 C 
ATOM     16  C   UNL     1       9.928   5.419   8.442  0.00  0.00    +0.130 C 
BRANCH  16   2
ATOM      2  O   UNL     1      10.222   5.051   9.776  0.00  0.00    -0.390 OA
ATOM     27  H   UNL     1       9.376   4.897  10.230  0.00  0.00    +0.210 HD
ENDBRANCH  16   2
BRANCH   6  12
ATOM     12  C   UNL     1       8.765   8.475   6.822  0.00  0.00    +0.088 C 
BRANCH  12   9
ATOM      9  C   UNL     1       9.761   9.505   7.244  0.00  0.00    +0.003 C 
ATOM     10  C   UNL     1       9.544  10.257   8.524  0.00  0.00    +0.005 C 
ATOM     11  C   UNL     1       9.378  10.955   7.206  0.00  0.00    +0.005 C 
ENDBRANCH  12   9
ENDBRANCH   6  12
ENDBRANCH  17  13
BRANCH  18  19
ATOM     19  C   UNL     1      10.795   6.097   1.942  0.00  0.00    +0.251 C 
BRANCH  19   1
ATOM      1  S   UNL     1      11.046   4.365   1.666  0.00  0.00    +0.004 S 
ATOM      4  O   UNL     1      10.092   3.939   0.659  0.00  0.00    -0.169 OA
ATOM      5  O   UNL     1      11.105   3.697   2.954  0.00  0.00    -0.169 OA
BRANCH   1  20
ATOM     20  C   UNL     1      12.663   4.279   0.961  0.00  0.00    +0.089 A 
ATOM     21  C   UNL     1      13.705   3.688   1.675  0.00  0.00    +0.027 A 
ATOM     22  C   UNL     1      12.898   4.804  -0.310  0.00  0.00    +0.027 A 
ATOM     23  C   UNL     1      14.982   3.623   1.119  0.00  0.00    +0.005 A 
ATOM     24  C   UNL     1      14.176   4.740  -0.866  0.00  0.00    +0.005 A 
ATOM     25  C   UNL     1      15.218   4.149  -0.151  0.00  0.00    -0.050 A 
ATOM     26  C   UNL     1      16.584   4.079  -0.745  0.00  0.00    +0.044 C 
ENDBRANCH   1  20
ENDBRANCH  19   1
ENDBRANCH  18  19
TORSDOF 7
ENDMDL
MODEL 5
REMARK VINA RESULT:      -5.8     26.077     28.777
REMARK  Name = 26744052
REMARK  8 active torsions:
REMARK  status: ('A' for Active; 'I' for Inactive)
REMARK    1  A    between atoms: S_1  and  C_19
REMARK    2  A    between atoms: S_1  and  C_20
REMARK    3  A    between atoms: O_2  and  C_16
REMARK    4  A    between atoms: N_6  and  C_12
REMARK    5  A    between atoms: C_9  and  C_12
REMARK    6  A    between atoms: C_13  and  C_17
REMARK    7  A    between atoms: C_18  and  C_19
REMARK    8  A    between atoms: C_25  and  C_26
REMARK                            x       y       z     vdW  Elec       q    Type
REMARK                         _______ _______ _______ _____ _____    ______ ____
ROOT
ATOM      3  O   UNL     1      -5.367 -11.751  17.033  0.00  0.00    -0.336 OA
ATOM      7  N   UNL     1      -5.594  -9.810  15.938  0.00  0.00    -0.193 NA
ATOM      8  N   UNL     1      -6.581 -11.201  17.464  0.00  0.00    -0.060 NA
ATOM     17  C   UNL     1      -4.851 -10.870  16.136  0.00  0.00    +0.245 A 
ATOM     18  C   UNL     1      -6.644 -10.058  16.775  0.00  0.00    +0.193 A 
ENDROOT
BRANCH  17  13
ATOM      6  N   UNL     1      -3.256 -10.501  14.262  0.00  0.00    -0.289 NA
ATOM     13  C   UNL     1      -3.523 -11.241  15.512  0.00  0.00    +0.148 C 
ATOM     14  C   UNL     1      -1.803 -10.374  14.158  0.00  0.00    +0.116 C 
ATOM     15  C   UNL     1      -2.325 -10.916  16.425  0.00  0.00    +0.061 C 
ATOM     16  C   UNL     1      -1.418 -10.027  15.584  0.00  0.00    +0.130 C 
BRANCH  16   2
ATOM      2  O   UNL     1      -0.056 -10.310  15.844  0.00  0.00    -0.390 OA
ATOM     27  H   UNL     1       0.056 -11.274  15.793  0.00  0.00    +0.210 HD
ENDBRANCH  16   2
BRANCH   6  12
ATOM     12  C   UNL     1      -3.836 -11.135  13.085  0.00  0.00    +0.088 C 
BRANCH  12   9
ATOM      9  C   UNL     1      -2.965 -10.950  11.885  0.00  0.00    +0.003 C 
ATOM     10  C   UNL     1      -3.370  -9.962  10.830  0.00  0.00    +0.005 C 
ATOM     11  C   UNL     1      -3.447 -11.434  10.548  0.00  0.00    +0.005 C 
ENDBRANCH  12   9
ENDBRANCH   6  12
ENDBRANCH  17  13
BRANCH  18  19
ATOM     19  C   UNL     1      -7.772  -9.130  16.909  0.00  0.00    +0.251 C 
BRANCH  19   1
ATOM      1  S   UNL     1      -9.225  -9.906  16.257  0.00  0.00    +0.004 S 
ATOM      4  O   UNL     1      -9.926 -10.525  17.366  0.00  0.00    -0.169 OA
ATOM      5  O   UNL     1      -8.847 -10.690  15.095  0.00  0.00    -0.169 OA
BRANCH   1  20
ATOM     20  C   UNL     1     -10.202  -8.554  15.677  0.00  0.00    +0.089 A 
ATOM     21  C   UNL     1     -11.020  -8.713  14.558  0.00  0.00    +0.027 A 
ATOM     22  C   UNL     1     -10.154  -7.326  16.336  0.00  0.00    +0.027 A 
ATOM     23  C   UNL     1     -11.788  -7.645  14.098  0.00  0.00    +0.005 A 
ATOM     24  C   UNL     1     -10.923  -6.256  15.876  0.00  0.00    +0.005 A 
ATOM     25  C   UNL     1     -11.741  -6.416  14.757  0.00  0.00    -0.050 A 
ATOM     26  C   UNL     1     -12.563  -5.274  14.265  0.00  0.00    +0.044 C 
ENDBRANCH   1  20
ENDBRANCH  19   1
ENDBRANCH  18  19
TORSDOF 7
ENDMDL
MODEL 6
REMARK VINA RESULT:      -5.7      3.557      6.382
REMARK  Name = 26744052
REMARK  8 active torsions:
REMARK  status: ('A' for Active; 'I' for Inactive)
REMARK    1  A    between atoms: S_1  and  C_19
REMARK    2  A    between atoms: S_1  and  C_20
REMARK    3  A    between atoms: O_2  and  C_16
REMARK    4  A    between atoms: N_6  and  C_12
REMARK    5  A    between atoms: C_9  and  C_12
REMARK    6  A    between atoms: C_13  and  C_17
REMARK    7  A    between atoms: C_18  and  C_19
REMARK    8  A    between atoms: C_25  and  C_26
REMARK                            x       y       z     vdW  Elec       q    Type
REMARK                         _______ _______ _______ _____ _____    ______ ____
ROOT
ATOM      3  O   UNL     1      10.945   9.379  23.549  0.00  0.00    -0.336 OA
ATOM      7  N   UNL     1      11.430  10.404  21.617  0.00  0.00    -0.193 NA
ATOM      8  N   UNL     1      10.718   8.435  22.540  0.00  0.00    -0.060 NA
ATOM     17  C   UNL     1      11.362  10.510  22.920  0.00  0.00    +0.245 A 
ATOM     18  C   UNL     1      11.025   9.113  21.431  0.00  0.00    +0.193 A 
ENDROOT
BRANCH  17  13
ATOM      6  N   UNL     1      12.524  12.701  23.125  0.00  0.00    -0.289 NA
ATOM     13  C   UNL     1      11.681  11.696  23.805  0.00  0.00    +0.148 C 
ATOM     14  C   UNL     1      12.182  13.995  23.716  0.00  0.00    +0.116 C 
ATOM     15  C   UNL     1      10.422  12.468  24.242  0.00  0.00    +0.061 C 
ATOM     16  C   UNL     1      10.670  13.907  23.805  0.00  0.00    +0.130 C 
BRANCH  16   2
ATOM      2  O   UNL     1      10.147  14.817  24.754  0.00  0.00    -0.390 OA
ATOM     27  H   UNL     1       9.309  15.158  24.399  0.00  0.00    +0.210 HD
ENDBRANCH  16   2
BRANCH   6  12
ATOM     12  C   UNL     1      13.948  12.415  23.221  0.00  0.00    +0.088 C 
BRANCH  12   9
ATOM      9  C   UNL     1      14.555  12.215  21.870  0.00  0.00    +0.003 C 
ATOM     10  C   UNL     1      15.161  10.887  21.526  0.00  0.00    +0.005 C 
ATOM     11  C   UNL     1      16.044  12.079  21.747  0.00  0.00    +0.005 C 
ENDBRANCH  12   9
ENDBRANCH   6  12
ENDBRANCH  17  13
BRANCH  18  19
ATOM     19  C   UNL     1      10.933   8.508  20.098  0.00  0.00    +0.251 C 
BRANCH  19   1
ATOM      1  S   UNL     1      12.465   7.694  19.739  0.00  0.00    +0.004 S 
ATOM      4  O   UNL     1      12.151   6.363  19.256  0.00  0.00    -0.169 OA
ATOM      5  O   UNL     1      13.360   7.877  20.868  0.00  0.00    -0.169 OA
BRANCH   1  20
ATOM     20  C   UNL     1      13.132   8.623  18.393  0.00  0.00    +0.089 A 
ATOM     21  C   UNL     1      13.534   7.972  17.226  0.00  0.00    +0.027 A 
ATOM     22  C   UNL     1      13.257  10.008  18.496  0.00  0.00    +0.027 A 
ATOM     23  C   UNL     1      14.063   8.705  16.165  0.00  0.00    +0.005 A 
ATOM     24  C   UNL     1      13.786  10.743  17.434  0.00  0.00    +0.005 A 
ATOM     25  C   UNL     1      14.188  10.091  16.269  0.00  0.00    -0.050 A 
ATOM     26  C   UNL     1      14.754  10.875  15.133  0.00  0.00    +0.044 C 
ENDBRANCH   1  20
ENDBRANCH  19   1
ENDBRANCH  18  19
TORSDOF 7
ENDMDL
MODEL 7
REMARK VINA RESULT:      -5.7     26.404     29.074
REMARK  Name = 26744052
REMARK  8 active torsions:
REMARK  status: ('A' for Active; 'I' for Inactive)
REMARK    1  A    between atoms: S_1  and  C_19
REMARK    2  A    between atoms: S_1  and  C_20
REMARK    3  A    between atoms: O_2  and  C_16
REMARK    4  A    between atoms: N_6  and  C_12
REMARK    5  A    between atoms: C_9  and  C_12
REMARK    6  A    between atoms: C_13  and  C_17
REMARK    7  A    between atoms: C_18  and  C_19
REMARK    8  A    between atoms: C_25  and  C_26
REMARK                            x       y       z     vdW  Elec       q    Type
REMARK                         _______ _______ _______ _____ _____    ______ ____
ROOT
ATOM      3  O   UNL     1      -5.075 -11.478  17.353  0.00  0.00    -0.336 OA
ATOM      7  N   UNL     1      -5.603  -9.830  15.931  0.00  0.00    -0.193 NA
ATOM      8  N   UNL     1      -6.277 -10.930  17.821  0.00  0.00    -0.060 NA
ATOM     17  C   UNL     1      -4.749 -10.772  16.239  0.00  0.00    +0.245 A 
ATOM     18  C   UNL     1      -6.524  -9.965  16.931  0.00  0.00    +0.193 A 
ENDROOT
BRANCH  17  13
ATOM      6  N   UNL     1      -3.230 -10.396  14.303  0.00  0.00    -0.289 NA
ATOM     13  C   UNL     1      -3.472 -11.177  15.533  0.00  0.00    +0.148 C 
ATOM     14  C   UNL     1      -1.779 -10.333  14.131  0.00  0.00    +0.116 C 
ATOM     15  C   UNL     1      -2.217 -10.951  16.396  0.00  0.00    +0.061 C 
ATOM     16  C   UNL     1      -1.309 -10.069  15.549  0.00  0.00    +0.130 C 
BRANCH  16   2
ATOM      2  O   UNL     1       0.048 -10.427  15.727  0.00  0.00    -0.390 OA
ATOM     27  H   UNL     1       0.084 -11.087  16.440  0.00  0.00    +0.210 HD
ENDBRANCH  16   2
BRANCH   6  12
ATOM     12  C   UNL     1      -3.897 -10.949  13.132  0.00  0.00    +0.088 C 
BRANCH  12   9
ATOM      9  C   UNL     1      -2.976 -10.999  11.956  0.00  0.00    +0.003 C 
ATOM     10  C   UNL     1      -3.386 -10.337  10.673  0.00  0.00    +0.005 C 
ATOM     11  C   UNL     1      -3.350 -11.834  10.766  0.00  0.00    +0.005 C 
ENDBRANCH  12   9
ENDBRANCH   6  12
ENDBRANCH  17  13
BRANCH  18  19
ATOM     19  C   UNL     1      -7.709  -9.106  17.023  0.00  0.00    +0.251 C 
BRANCH  19   1
ATOM      1  S   UNL     1      -9.084  -9.958  16.300  0.00  0.00    +0.004 S 
ATOM      4  O   UNL     1      -8.693 -11.343  16.116  0.00  0.00    -0.169 OA
ATOM      5  O   UNL     1      -9.574  -9.176  15.180  0.00  0.00    -0.169 OA
BRANCH   1  20
ATOM     20  C   UNL     1     -10.325  -9.901  17.556  0.00  0.00    +0.089 A 
ATOM     21  C   UNL     1     -10.012 -10.270  18.864  0.00  0.00    +0.027 A 
ATOM     22  C   UNL     1     -11.619  -9.487  17.239  0.00  0.00    +0.027 A 
ATOM     23  C   UNL     1     -10.992 -10.227  19.854  0.00  0.00    +0.005 A 
ATOM     24  C   UNL     1     -12.600  -9.444  18.229  0.00  0.00    +0.005 A 
ATOM     25  C   UNL     1     -12.286  -9.813  19.537  0.00  0.00    -0.050 A 
ATOM     26  C   UNL     1     -13.335  -9.767  20.597  0.00  0.00    +0.044 C 
ENDBRANCH   1  20
ENDBRANCH  19   1
ENDBRANCH  18  19
TORSDOF 7
ENDMDL
MODEL 8
REMARK VINA RESULT:      -5.6     16.919     19.691
REMARK  Name = 26744052
REMARK  8 active torsions:
REMARK  status: ('A' for Active; 'I' for Inactive)
REMARK    1  A    between atoms: S_1  and  C_19
REMARK    2  A    between atoms: S_1  and  C_20
REMARK    3  A    between atoms: O_2  and  C_16
REMARK    4  A    between atoms: N_6  and  C_12
REMARK    5  A    between atoms: C_9  and  C_12
REMARK    6  A    between atoms: C_13  and  C_17
REMARK    7  A    between atoms: C_18  and  C_19
REMARK    8  A    between atoms: C_25  and  C_26
REMARK                            x       y       z     vdW  Elec       q    Type
REMARK                         _______ _______ _______ _____ _____    ______ ____
ROOT
ATOM      3  O   UNL     1      10.052   7.002   2.975  0.00  0.00    -0.336 OA
ATOM      7  N   UNL     1      11.288   5.236   3.585  0.00  0.00    -0.193 NA
ATOM      8  N   UNL     1      10.092   6.152   1.862  0.00  0.00    -0.060 NA
ATOM     17  C   UNL     1      10.780   6.388   3.945  0.00  0.00    +0.245 A 
ATOM     18  C   UNL     1      10.839   5.134   2.300  0.00  0.00    +0.193 A 
ENDROOT
BRANCH  17  13
ATOM      6  N   UNL     1      11.170   6.201   6.396  0.00  0.00    -0.289 NA
ATOM     13  C   UNL     1      10.890   7.114   5.269  0.00  0.00    +0.148 C 
ATOM     14  C   UNL     1      11.925   6.977   7.379  0.00  0.00    +0.116 C 
ATOM     15  C   UNL     1      12.042   8.136   5.293  0.00  0.00    +0.061 C 
ATOM     16  C   UNL     1      12.892   7.743   6.496  0.00  0.00    +0.130 C 
BRANCH  16   2
ATOM      2  O   UNL     1      13.401   8.891   7.147  0.00  0.00    -0.390 OA
ATOM     27  H   UNL     1      12.743   9.168   7.807  0.00  0.00    +0.210 HD
ENDBRANCH  16   2
BRANCH   6  12
ATOM     12  C   UNL     1       9.968   5.611   6.969  0.00  0.00    +0.088 C 
BRANCH  12   9
ATOM      9  C   UNL     1      10.204   5.155   8.373  0.00  0.00    +0.003 C 
ATOM     10  C   UNL     1       9.466   3.954   8.888  0.00  0.00    +0.005 C 
ATOM     11  C   UNL     1       9.114   5.323   9.391  0.00  0.00    +0.005 C 
ENDBRANCH  12   9
ENDBRANCH   6  12
ENDBRANCH  17  13
BRANCH  18  19
ATOM     19  C   UNL     1      11.154   3.979   1.451  0.00  0.00    +0.251 C 
BRANCH  19   1
ATOM      1  S   UNL     1      12.853   4.083   0.961  0.00  0.00    +0.004 S 
ATOM      4  O   UNL     1      13.564   3.000   1.614  0.00  0.00    -0.169 OA
ATOM      5  O   UNL     1      13.296   5.457   1.121  0.00  0.00    -0.169 OA
BRANCH   1  20
ATOM     20  C   UNL     1      12.814   3.748  -0.772  0.00  0.00    +0.089 A 
ATOM     21  C   UNL     1      13.818   4.247  -1.602  0.00  0.00    +0.027 A 
ATOM     22  C   UNL     1      11.778   2.986  -1.312  0.00  0.00    +0.027 A 
ATOM     23  C   UNL     1      13.785   3.984  -2.971  0.00  0.00    +0.005 A 
ATOM     24  C   UNL     1      11.745   2.723  -2.682  0.00  0.00    +0.005 A 
ATOM     25  C   UNL     1      12.749   3.222  -3.511  0.00  0.00    -0.050 A 
ATOM     26  C   UNL     1      12.715   2.942  -4.976  0.00  0.00    +0.044 C 
ENDBRANCH   1  20
ENDBRANCH  19   1
ENDBRANCH  18  19
TORSDOF 7
ENDMDL
MODEL 9
REMARK VINA RESULT:      -5.6     26.498     29.203
REMARK  Name = 26744052
REMARK  8 active torsions:
REMARK  status: ('A' for Active; 'I' for Inactive)
REMARK    1  A    between atoms: S_1  and  C_19
REMARK    2  A    between atoms: S_1  and  C_20
REMARK    3  A    between atoms: O_2  and  C_16
REMARK    4  A    between atoms: N_6  and  C_12
REMARK    5  A    between atoms: C_9  and  C_12
REMARK    6  A    between atoms: C_13  and  C_17
REMARK    7  A    between atoms: C_18  and  C_19
REMARK    8  A    between atoms: C_25  and  C_26
REMARK                            x       y       z     vdW  Elec       q    Type
REMARK                         _______ _______ _______ _____ _____    ______ ____
ROOT
ATOM      3  O   UNL     1      -6.172 -10.771  14.506  0.00  0.00    -0.336 OA
ATOM      7  N   UNL     1      -5.471 -10.205  16.557  0.00  0.00    -0.193 NA
ATOM      8  N   UNL     1      -7.300 -10.292  15.185  0.00  0.00    -0.060 NA
ATOM     17  C   UNL     1      -5.139 -10.686  15.386  0.00  0.00    +0.245 A 
ATOM     18  C   UNL     1      -6.807  -9.978  16.386  0.00  0.00    +0.193 A 
ENDROOT
BRANCH  17  13
ATOM      6  N   UNL     1      -3.294 -10.341  13.751  0.00  0.00    -0.289 NA
ATOM     13  C   UNL     1      -3.787 -11.148  14.886  0.00  0.00    +0.148 C 
ATOM     14  C   UNL     1      -1.834 -10.366  13.829  0.00  0.00    +0.116 C 
ATOM     15  C   UNL     1      -2.686 -11.034  15.957  0.00  0.00    +0.061 C 
ATOM     16  C   UNL     1      -1.597 -10.183  15.315  0.00  0.00    +0.130 C 
BRANCH  16   2
ATOM      2  O   UNL     1      -0.313 -10.634  15.702  0.00  0.00    -0.390 OA
ATOM     27  H   UNL     1      -0.410 -11.092  16.554  0.00  0.00    +0.210 HD
ENDBRANCH  16   2
BRANCH   6  12
ATOM     12  C   UNL     1      -3.782 -10.808  12.461  0.00  0.00    +0.088 C 
BRANCH  12   9
ATOM      9  C   UNL     1      -3.384  -9.879  11.361  0.00  0.00    +0.003 C 
ATOM     10  C   UNL     1      -4.446  -9.127  10.614  0.00  0.00    +0.005 C 
ATOM     11  C   UNL     1      -3.704 -10.243   9.940  0.00  0.00    +0.005 C 
ENDBRANCH  12   9
ENDBRANCH   6  12
ENDBRANCH  17  13
BRANCH  18  19
ATOM     19  C   UNL     1      -7.648  -9.424  17.452  0.00  0.00    +0.251 C 
BRANCH  19   1
ATOM      1  S   UNL     1      -8.173 -10.748  18.506  0.00  0.00    +0.004 S 
ATOM      4  O   UNL     1      -7.456 -10.618  19.760  0.00  0.00    -0.169 OA
ATOM      5  O   UNL     1      -8.119 -11.987  17.751  0.00  0.00    -0.169 OA
BRANCH   1  20
ATOM     20  C   UNL     1      -9.877 -10.397  18.809  0.00  0.00    +0.089 A 
ATOM     21  C   UNL     1     -10.682  -9.908  17.780  0.00  0.00    +0.027 A 
ATOM     22  C   UNL     1     -10.418 -10.607  20.077  0.00  0.00    +0.027 A 
ATOM     23  C   UNL     1     -12.027  -9.629  18.020  0.00  0.00    +0.005 A 
ATOM     24  C   UNL     1     -11.763 -10.328  20.317  0.00  0.00    +0.005 A 
ATOM     25  C   UNL     1     -12.568  -9.839  19.288  0.00  0.00    -0.050 A 
ATOM     26  C   UNL     1     -14.007  -9.540  19.544  0.00  0.00    +0.044 C 
ENDBRANCH   1  20
ENDBRANCH  19   1
ENDBRANCH  18  19
TORSDOF 7
ENDMDL
MODEL 10
REMARK VINA RESULT:      -5.6     27.770     29.344
REMARK  Name = 26744052
REMARK  8 active torsions:
REMARK  status: ('A' for Active; 'I' for Inactive)
REMARK    1  A    between atoms: S_1  and  C_19
REMARK    2  A    between atoms: S_1  and  C_20
REMARK    3  A    between atoms: O_2  and  C_16
REMARK    4  A    between atoms: N_6  and  C_12
REMARK    5  A    between atoms: C_9  and  C_12
REMARK    6  A    between atoms: C_13  and  C_17
REMARK    7  A    between atoms: C_18  and  C_19
REMARK    8  A    between atoms: C_25  and  C_26
REMARK                            x       y       z     vdW  Elec       q    Type
REMARK                         _______ _______ _______ _____ _____    ______ ____
ROOT
ATOM      3  O   UNL     1      -6.280 -10.199  15.032  0.00  0.00    -0.336 OA
ATOM      7  N   UNL     1      -4.923 -11.775  15.863  0.00  0.00    -0.193 NA
ATOM      8  N   UNL     1      -5.612 -10.756  13.933  0.00  0.00    -0.060 NA
ATOM     17  C   UNL     1      -5.816 -10.855  16.127  0.00  0.00    +0.245 A 
ATOM     18  C   UNL     1      -4.830 -11.677  14.504  0.00  0.00    +0.193 A 
ENDROOT
BRANCH  17  13
ATOM      6  N   UNL     1      -7.614 -11.184  17.816  0.00  0.00    -0.289 NA
ATOM     13  C   UNL     1      -6.392 -10.434  17.462  0.00  0.00    +0.148 C 
ATOM     14  C   UNL     1      -7.655 -11.244  19.276  0.00  0.00    +0.116 C 
ATOM     15  C   UNL     1      -5.424 -10.682  18.634  0.00  0.00    +0.061 C 
ATOM     16  C   UNL     1      -6.208 -11.544  19.616  0.00  0.00    +0.130 C 
BRANCH  16   2
ATOM      2  O   UNL     1      -5.898 -11.192  20.951  0.00  0.00    -0.390 OA
ATOM     27  H   UNL     1      -5.858 -10.222  20.994  0.00  0.00    +0.210 HD
ENDBRANCH  16   2
BRANCH   6  12
ATOM     12  C   UNL     1      -8.827 -10.602  17.257  0.00  0.00    +0.088 C 
BRANCH  12   9
ATOM      9  C   UNL     1      -8.833  -9.115  17.404  0.00  0.00    +0.003 C 
ATOM     10  C   UNL     1     -10.142  -8.398  17.560  0.00  0.00    +0.005 C 
ATOM     11  C   UNL     1      -9.364  -8.270  16.283  0.00  0.00    +0.005 C 
ENDBRANCH  12   9
ENDBRANCH   6  12
ENDBRANCH  17  13
BRANCH  18  19
ATOM     19  C   UNL     1      -3.931 -12.529  13.718  0.00  0.00    +0.251 C 
BRANCH  19   1
ATOM      1  S   UNL     1      -2.680 -11.510  12.986  0.00  0.00    +0.004 S 
ATOM      4  O   UNL     1      -1.510 -12.340  12.771  0.00  0.00    -0.169 OA
ATOM      5  O   UNL     1      -2.581 -10.281  13.752  0.00  0.00    -0.169 OA
BRANCH   1  20
ATOM     20  C   UNL     1      -3.350 -11.086  11.408  0.00  0.00    +0.089 A 
ATOM     21  C   UNL     1      -3.262  -9.774  10.942  0.00  0.00    +0.027 A 
ATOM     22  C   UNL     1      -3.970 -12.063  10.628  0.00  0.00    +0.027 A 
ATOM     23  C   UNL     1      -3.794  -9.440   9.697  0.00  0.00    +0.005 A 
ATOM     24  C   UNL     1      -4.502 -11.728   9.383  0.00  0.00    +0.005 A 
ATOM     25  C   UNL     1      -4.413 -10.416   8.917  0.00  0.00    -0.050 A 
ATOM     26  C   UNL     1      -4.982 -10.058   7.586  0.00  0.00    +0.044 C 
ENDBRANCH   1  20
ENDBRANCH  19   1
ENDBRANCH  18  19
TORSDOF 7
ENDMDL
