MODEL 1
REMARK VINA RESULT:      -6.3      0.000      0.000
REMARK  Name = 75536517
REMARK  10 active torsions:
REMARK  status: ('A' for Active; 'I' for Inactive)
REMARK    1  A    between atoms: O_4  and  C_10
REMARK    2  A    between atoms: N_6  and  C_8
REMARK    3  A    between atoms: N_6  and  C_9
REMARK    4  A    between atoms: N_7  and  C_18
REMARK    5  A    between atoms: C_13  and  C_18
REMARK    6  A    between atoms: C_19  and  C_20
REMARK    7  A    between atoms: C_19  and  C_22
REMARK    8  A    between atoms: C_19  and  C_23
REMARK    9  A    between atoms: C_19  and  C_24
REMARK   10  A    between atoms: C_20  and  C_21
REMARK                            x       y       z     vdW  Elec       q    Type
REMARK                         _______ _______ _______ _____ _____    ______ ____
ROOT
ATOM      3  O   UNL     1      12.052   7.124  19.764  0.00  0.00    -0.371 OA
ATOM      8  C   UNL     1      14.386   6.831  20.090  0.00  0.00    +0.111 C 
ATOM     10  C   UNL     1      13.828   7.661  21.231  0.00  0.00    +0.164 C 
ATOM     13  C   UNL     1      12.349   7.302  21.158  0.00  0.00    +0.165 C 
ATOM     14  C   UNL     1      13.290   6.977  19.047  0.00  0.00    +0.181 C 
ENDROOT
BRANCH  10   4
ATOM      4  O   UNL     1      14.392   7.320  22.482  0.00  0.00    -0.388 OA
ATOM     26  H   UNL     1      14.322   6.357  22.596  0.00  0.00    +0.210 HD
ENDBRANCH  10   4
BRANCH   8   6
ATOM      6  N   UNL     1      15.682   7.288  19.616  0.00  0.00    -0.306 NA
ATOM     25  H   UNL     1      15.793   8.285  19.799  0.00  0.00    +0.123 HD
BRANCH   6   9
ATOM      1  F   UNL     1      20.246   7.080  20.041  0.00  0.00    -0.206 F 
ATOM      2  F   UNL     1      20.615   5.387  21.355  0.00  0.00    -0.206 F 
ATOM      9  C   UNL     1      16.767   6.540  20.250  0.00  0.00    +0.054 C 
ATOM     11  C   UNL     1      17.558   7.463  21.185  0.00  0.00    +0.024 C 
ATOM     12  C   UNL     1      17.675   5.929  19.176  0.00  0.00    +0.024 C 
ATOM     15  C   UNL     1      18.744   6.733  21.812  0.00  0.00    +0.077 C 
ATOM     16  C   UNL     1      18.862   5.199  19.802  0.00  0.00    +0.077 C 
ATOM     17  C   UNL     1      19.630   6.100  20.754  0.00  0.00    +0.249 C 
ENDBRANCH   6   9
ENDBRANCH   8   6
BRANCH  13  18
ATOM     18  C   UNL     1      11.442   8.369  21.745  0.00  0.00    +0.138 C 
BRANCH  18   7
ATOM      5  O   UNL     1      11.381  11.264  21.673  0.00  0.00    -0.276 OA
ATOM      7  N   UNL     1      12.177   9.282  22.590  0.00  0.00    -0.313 N 
ATOM     21  C   UNL     1      12.084  10.659  22.481  0.00  0.00    +0.214 C 
ATOM     27  H   UNL     1      12.780   8.880  23.301  0.00  0.00    +0.149 HD
BRANCH  21  20
ATOM     20  C   UNL     1      12.962  11.396  23.479  0.00  0.00    +0.102 C 
BRANCH  20  19
ATOM     19  C   UNL     1      12.192  12.275  24.493  0.00  0.00    -0.029 C 
ATOM     22  C   UNL     1      11.063  11.420  25.103  0.00  0.00    +0.011 C 
ATOM     23  C   UNL     1      11.560  13.494  23.801  0.00  0.00    +0.011 C 
ATOM     24  C   UNL     1      13.107  12.755  25.632  0.00  0.00    +0.011 C 
ENDBRANCH  20  19
ENDBRANCH  21  20
ENDBRANCH  18   7
ENDBRANCH  13  18
TORSDOF 7
ENDMDL
MODEL 2
REMARK VINA RESULT:      -6.3      3.615      4.639
REMARK  Name = 75536517
REMARK  10 active torsions:
REMARK  status: ('A' for Active; 'I' for Inactive)
REMARK    1  A    between atoms: O_4  and  C_10
REMARK    2  A    between atoms: N_6  and  C_8
REMARK    3  A    between atoms: N_6  and  C_9
REMARK    4  A    between atoms: N_7  and  C_18
REMARK    5  A    between atoms: C_13  and  C_18
REMARK    6  A    between atoms: C_19  and  C_20
REMARK    7  A    between atoms: C_19  and  C_22
REMARK    8  A    between atoms: C_19  and  C_23
REMARK    9  A    between atoms: C_19  and  C_24
REMARK   10  A    between atoms: C_20  and  C_21
REMARK                            x       y       z     vdW  Elec       q    Type
REMARK                         _______ _______ _______ _____ _____    ______ ____
ROOT
ATOM      3  O   UNL     1      11.394   6.681  20.577  0.00  0.00    -0.371 OA
ATOM      8  C   UNL     1      13.717   7.041  20.241  0.00  0.00    +0.111 C 
ATOM     10  C   UNL     1      13.224   7.980  21.326  0.00  0.00    +0.164 C 
ATOM     13  C   UNL     1      11.946   7.275  21.763  0.00  0.00    +0.165 C 
ATOM     14  C   UNL     1      12.414   6.653  19.563  0.00  0.00    +0.181 C 
ENDROOT
BRANCH  10   4
ATOM      4  O   UNL     1      14.143   8.113  22.393  0.00  0.00    -0.388 OA
ATOM     26  H   UNL     1      15.042   8.108  22.023  0.00  0.00    +0.210 HD
ENDBRANCH  10   4
BRANCH   8   6
ATOM      6  N   UNL     1      14.669   7.655  19.328  0.00  0.00    -0.306 NA
ATOM     25  H   UNL     1      15.187   6.936  18.824  0.00  0.00    +0.123 HD
BRANCH   6   9
ATOM      1  F   UNL     1      15.386  10.509  15.808  0.00  0.00    -0.206 F 
ATOM      2  F   UNL     1      13.411  11.235  15.257  0.00  0.00    -0.206 F 
ATOM      9  C   UNL     1      13.993   8.539  18.380  0.00  0.00    +0.054 C 
ATOM     11  C   UNL     1      14.233   8.049  16.947  0.00  0.00    +0.024 C 
ATOM     12  C   UNL     1      14.491   9.978  18.565  0.00  0.00    +0.024 C 
ATOM     15  C   UNL     1      13.599   8.990  15.925  0.00  0.00    +0.077 C 
ATOM     16  C   UNL     1      13.858  10.921  17.542  0.00  0.00    +0.077 C 
ATOM     17  C   UNL     1      14.066  10.422  16.123  0.00  0.00    +0.249 C 
ENDBRANCH   6   9
ENDBRANCH   8   6
BRANCH  13  18
ATOM     18  C   UNL     1      10.929   8.212  22.391  0.00  0.00    +0.138 C 
BRANCH  18   7
ATOM      5  O   UNL     1      11.075  10.699  23.868  0.00  0.00    -0.276 OA
ATOM      7  N   UNL     1      11.034   9.547  21.850  0.00  0.00    -0.313 N 
ATOM     21  C   UNL     1      11.098  10.683  22.638  0.00  0.00    +0.214 C 
ATOM     27  H   UNL     1      11.072   9.641  20.840  0.00  0.00    +0.149 HD
BRANCH  21  20
ATOM     20  C   UNL     1      11.196  11.965  21.829  0.00  0.00    +0.102 C 
BRANCH  20  19
ATOM     19  C   UNL     1      12.605  12.606  21.802  0.00  0.00    -0.029 C 
ATOM     22  C   UNL     1      12.692  13.614  22.965  0.00  0.00    +0.011 C 
ATOM     23  C   UNL     1      12.843  13.363  20.484  0.00  0.00    +0.011 C 
ATOM     24  C   UNL     1      13.708  11.552  21.987  0.00  0.00    +0.011 C 
ENDBRANCH  20  19
ENDBRANCH  21  20
ENDBRANCH  18   7
ENDBRANCH  13  18
TORSDOF 7
ENDMDL
MODEL 3
REMARK VINA RESULT:      -6.2     26.777     29.023
REMARK  Name = 75536517
REMARK  10 active torsions:
REMARK  status: ('A' for Active; 'I' for Inactive)
REMARK    1  A    between atoms: O_4  and  C_10
REMARK    2  A    between atoms: N_6  and  C_8
REMARK    3  A    between atoms: N_6  and  C_9
REMARK    4  A    between atoms: N_7  and  C_18
REMARK    5  A    between atoms: C_13  and  C_18
REMARK    6  A    between atoms: C_19  and  C_20
REMARK    7  A    between atoms: C_19  and  C_22
REMARK    8  A    between atoms: C_19  and  C_23
REMARK    9  A    between atoms: C_19  and  C_24
REMARK   10  A    between atoms: C_20  and  C_21
REMARK                            x       y       z     vdW  Elec       q    Type
REMARK                         _______ _______ _______ _____ _____    ______ ____
ROOT
ATOM      3  O   UNL     1      -1.126 -11.435  15.103  0.00  0.00    -0.371 OA
ATOM      8  C   UNL     1      -3.229 -10.981  16.110  0.00  0.00    +0.111 C 
ATOM     10  C   UNL     1      -3.458 -11.596  14.742  0.00  0.00    +0.164 C 
ATOM     13  C   UNL     1      -2.119 -12.281  14.501  0.00  0.00    +0.165 C 
ATOM     14  C   UNL     1      -1.786 -10.518  15.994  0.00  0.00    +0.181 C 
ENDROOT
BRANCH  10   4
ATOM      4  O   UNL     1      -4.531 -12.517  14.730  0.00  0.00    -0.388 OA
ATOM     26  H   UNL     1      -4.977 -12.456  13.868  0.00  0.00    +0.210 HD
ENDBRANCH  10   4
BRANCH   8   6
ATOM      6  N   UNL     1      -4.147  -9.898  16.423  0.00  0.00    -0.306 NA
ATOM     25  H   UNL     1      -4.728  -9.683  15.614  0.00  0.00    +0.123 HD
BRANCH   6   9
ATOM      1  F   UNL     1      -6.668 -13.262  18.260  0.00  0.00    -0.206 F 
ATOM      2  F   UNL     1      -7.461 -12.431  20.107  0.00  0.00    -0.206 F 
ATOM      9  C   UNL     1      -4.991 -10.238  17.568  0.00  0.00    +0.054 C 
ATOM     11  C   UNL     1      -4.376 -11.412  18.338  0.00  0.00    +0.024 C 
ATOM     12  C   UNL     1      -6.409 -10.572  17.086  0.00  0.00    +0.024 C 
ATOM     15  C   UNL     1      -5.268 -11.842  19.501  0.00  0.00    +0.077 C 
ATOM     16  C   UNL     1      -7.303 -11.002  18.249  0.00  0.00    +0.077 C 
ATOM     17  C   UNL     1      -6.682 -12.145  19.034  0.00  0.00    +0.249 C 
ENDBRANCH   6   9
ENDBRANCH   8   6
BRANCH  13  18
ATOM     18  C   UNL     1      -1.802 -12.478  13.029  0.00  0.00    +0.138 C 
BRANCH  18   7
ATOM      5  O   UNL     1      -3.451 -12.540  10.648  0.00  0.00    -0.276 OA
ATOM      7  N   UNL     1      -2.241 -11.351  12.237  0.00  0.00    -0.313 N 
ATOM     21  C   UNL     1      -3.032 -11.479  11.108  0.00  0.00    +0.214 C 
ATOM     27  H   UNL     1      -1.956 -10.426  12.542  0.00  0.00    +0.149 HD
BRANCH  21  20
ATOM     20  C   UNL     1      -3.349 -10.147  10.450  0.00  0.00    +0.102 C 
BRANCH  20  19
ATOM     19  C   UNL     1      -4.816  -9.680  10.609  0.00  0.00    -0.029 C 
ATOM     22  C   UNL     1      -5.670 -10.428   9.567  0.00  0.00    +0.011 C 
ATOM     23  C   UNL     1      -4.947  -8.169  10.352  0.00  0.00    +0.011 C 
ATOM     24  C   UNL     1      -5.362 -10.005  12.009  0.00  0.00    +0.011 C 
ENDBRANCH  20  19
ENDBRANCH  21  20
ENDBRANCH  18   7
ENDBRANCH  13  18
TORSDOF 7
ENDMDL
MODEL 4
REMARK VINA RESULT:      -6.1      4.663      9.437
REMARK  Name = 75536517
REMARK  10 active torsions:
REMARK  status: ('A' for Active; 'I' for Inactive)
REMARK    1  A    between atoms: O_4  and  C_10
REMARK    2  A    between atoms: N_6  and  C_8
REMARK    3  A    between atoms: N_6  and  C_9
REMARK    4  A    between atoms: N_7  and  C_18
REMARK    5  A    between atoms: C_13  and  C_18
REMARK    6  A    between atoms: C_19  and  C_20
REMARK    7  A    between atoms: C_19  and  C_22
REMARK    8  A    between atoms: C_19  and  C_23
REMARK    9  A    between atoms: C_19  and  C_24
REMARK   10  A    between atoms: C_20  and  C_21
REMARK                            x       y       z     vdW  Elec       q    Type
REMARK                         _______ _______ _______ _____ _____    ______ ____
ROOT
ATOM      3  O   UNL     1      17.608   5.827  18.893  0.00  0.00    -0.371 OA
ATOM      8  C   UNL     1      16.701   7.342  20.480  0.00  0.00    +0.111 C 
ATOM     10  C   UNL     1      17.769   6.501  21.154  0.00  0.00    +0.164 C 
ATOM     13  C   UNL     1      18.564   6.017  19.948  0.00  0.00    +0.165 C 
ATOM     14  C   UNL     1      16.391   6.506  19.250  0.00  0.00    +0.181 C 
ENDROOT
BRANCH  10   4
ATOM      4  O   UNL     1      18.571   7.249  22.048  0.00  0.00    -0.388 OA
ATOM     26  H   UNL     1      18.081   7.355  22.881  0.00  0.00    +0.210 HD
ENDBRANCH  10   4
BRANCH   8   6
ATOM      6  N   UNL     1      15.532   7.576  21.314  0.00  0.00    -0.306 NA
ATOM     25  H   UNL     1      15.639   8.446  21.834  0.00  0.00    +0.123 HD
BRANCH   6   9
ATOM      1  F   UNL     1      11.320   9.384  21.123  0.00  0.00    -0.206 F 
ATOM      2  F   UNL     1      10.455   8.612  19.283  0.00  0.00    -0.206 F 
ATOM      9  C   UNL     1      14.313   7.624  20.508  0.00  0.00    +0.054 C 
ATOM     11  C   UNL     1      14.046   9.063  20.052  0.00  0.00    +0.024 C 
ATOM     12  C   UNL     1      13.133   7.069  21.317  0.00  0.00    +0.024 C 
ATOM     15  C   UNL     1      12.740   9.163  19.266  0.00  0.00    +0.077 C 
ATOM     16  C   UNL     1      11.826   7.169  20.532  0.00  0.00    +0.077 C 
ATOM     17  C   UNL     1      11.573   8.588  20.051  0.00  0.00    +0.249 C 
ENDBRANCH   6   9
ENDBRANCH   8   6
BRANCH  13  18
ATOM     18  C   UNL     1      19.313   4.721  20.203  0.00  0.00    +0.138 C 
BRANCH  18   7
ATOM      5  O   UNL     1      21.321   4.798  22.290  0.00  0.00    -0.276 OA
ATOM      7  N   UNL     1      20.739   4.894  20.042  0.00  0.00    -0.313 N 
ATOM     21  C   UNL     1      21.626   4.918  21.104  0.00  0.00    +0.214 C 
ATOM     27  H   UNL     1      21.094   4.991  19.096  0.00  0.00    +0.149 HD
BRANCH  21  20
ATOM     20  C   UNL     1      23.068   5.120  20.671  0.00  0.00    +0.102 C 
BRANCH  20  19
ATOM     19  C   UNL     1      23.995   3.905  20.921  0.00  0.00    -0.029 C 
ATOM     22  C   UNL     1      24.998   3.824  19.753  0.00  0.00    +0.011 C 
ATOM     23  C   UNL     1      23.190   2.595  20.963  0.00  0.00    +0.011 C 
ATOM     24  C   UNL     1      24.784   4.058  22.231  0.00  0.00    +0.011 C 
ENDBRANCH  20  19
ENDBRANCH  21  20
ENDBRANCH  18   7
ENDBRANCH  13  18
TORSDOF 7
ENDMDL
MODEL 5
REMARK VINA RESULT:      -6.0     27.542     29.009
REMARK  Name = 75536517
REMARK  10 active torsions:
REMARK  status: ('A' for Active; 'I' for Inactive)
REMARK    1  A    between atoms: O_4  and  C_10
REMARK    2  A    between atoms: N_6  and  C_8
REMARK    3  A    between atoms: N_6  and  C_9
REMARK    4  A    between atoms: N_7  and  C_18
REMARK    5  A    between atoms: C_13  and  C_18
REMARK    6  A    between atoms: C_19  and  C_20
REMARK    7  A    between atoms: C_19  and  C_22
REMARK    8  A    between atoms: C_19  and  C_23
REMARK    9  A    between atoms: C_19  and  C_24
REMARK   10  A    between atoms: C_20  and  C_21
REMARK                            x       y       z     vdW  Elec       q    Type
REMARK                         _______ _______ _______ _____ _____    ______ ____
ROOT
ATOM      3  O   UNL     1      -3.248 -14.103  12.752  0.00  0.00    -0.371 OA
ATOM      8  C   UNL     1      -2.089 -12.035  12.881  0.00  0.00    +0.111 C 
ATOM     10  C   UNL     1      -2.699 -12.344  14.235  0.00  0.00    +0.164 C 
ATOM     13  C   UNL     1      -2.908 -13.849  14.125  0.00  0.00    +0.165 C 
ATOM     14  C   UNL     1      -2.894 -12.948  11.972  0.00  0.00    +0.181 C 
ENDROOT
BRANCH  10   4
ATOM      4  O   UNL     1      -1.843 -12.008  15.310  0.00  0.00    -0.388 OA
ATOM     26  H   UNL     1      -1.163 -12.698  15.386  0.00  0.00    +0.210 HD
ENDBRANCH  10   4
BRANCH   8   6
ATOM      6  N   UNL     1      -2.186 -10.634  12.504  0.00  0.00    -0.306 NA
ATOM     25  H   UNL     1      -1.289 -10.301  12.150  0.00  0.00    +0.123 HD
BRANCH   6   9
ATOM      1  F   UNL     1      -4.969  -7.478  10.676  0.00  0.00    -0.206 F 
ATOM      2  F   UNL     1      -6.102  -8.537   9.151  0.00  0.00    -0.206 F 
ATOM      9  C   UNL     1      -3.225 -10.431  11.496  0.00  0.00    +0.054 C 
ATOM     11  C   UNL     1      -2.752  -9.406  10.458  0.00  0.00    +0.024 C 
ATOM     12  C   UNL     1      -4.524  -9.976  12.172  0.00  0.00    +0.024 C 
ATOM     15  C   UNL     1      -3.841  -9.116   9.427  0.00  0.00    +0.077 C 
ATOM     16  C   UNL     1      -5.615  -9.686  11.142  0.00  0.00    +0.077 C 
ATOM     17  C   UNL     1      -5.139  -8.694  10.094  0.00  0.00    +0.249 C 
ENDBRANCH   6   9
ENDBRANCH   8   6
BRANCH  13  18
ATOM     18  C   UNL     1      -4.008 -14.370  15.033  0.00  0.00    +0.138 C 
BRANCH  18   7
ATOM      5  O   UNL     1      -6.158 -14.444  16.973  0.00  0.00    -0.276 OA
ATOM      7  N   UNL     1      -4.146 -13.557  16.219  0.00  0.00    -0.313 N 
ATOM     21  C   UNL     1      -5.214 -13.663  17.092  0.00  0.00    +0.214 C 
ATOM     27  H   UNL     1      -3.410 -12.886  16.414  0.00  0.00    +0.149 HD
BRANCH  21  20
ATOM     20  C   UNL     1      -5.130 -12.691  18.257  0.00  0.00    +0.102 C 
BRANCH  20  19
ATOM     19  C   UNL     1      -5.655 -11.267  17.951  0.00  0.00    -0.029 C 
ATOM     22  C   UNL     1      -6.014 -10.594  19.290  0.00  0.00    +0.011 C 
ATOM     23  C   UNL     1      -6.921 -11.320  17.079  0.00  0.00    +0.011 C 
ATOM     24  C   UNL     1      -4.589 -10.413  17.247  0.00  0.00    +0.011 C 
ENDBRANCH  20  19
ENDBRANCH  21  20
ENDBRANCH  18   7
ENDBRANCH  13  18
TORSDOF 7
ENDMDL
MODEL 6
REMARK VINA RESULT:      -6.0     17.446     20.281
REMARK  Name = 75536517
REMARK  10 active torsions:
REMARK  status: ('A' for Active; 'I' for Inactive)
REMARK    1  A    between atoms: O_4  and  C_10
REMARK    2  A    between atoms: N_6  and  C_8
REMARK    3  A    between atoms: N_6  and  C_9
REMARK    4  A    between atoms: N_7  and  C_18
REMARK    5  A    between atoms: C_13  and  C_18
REMARK    6  A    between atoms: C_19  and  C_20
REMARK    7  A    between atoms: C_19  and  C_22
REMARK    8  A    between atoms: C_19  and  C_23
REMARK    9  A    between atoms: C_19  and  C_24
REMARK   10  A    between atoms: C_20  and  C_21
REMARK                            x       y       z     vdW  Elec       q    Type
REMARK                         _______ _______ _______ _____ _____    ______ ____
ROOT
ATOM      3  O   UNL     1      -0.241   2.338  23.196  0.00  0.00    -0.371 OA
ATOM      8  C   UNL     1      -0.873   3.454  25.195  0.00  0.00    +0.111 C 
ATOM     10  C   UNL     1      -0.118   2.188  25.553  0.00  0.00    +0.164 C 
ATOM     13  C   UNL     1       0.634   1.918  24.256  0.00  0.00    +0.165 C 
ATOM     14  C   UNL     1      -1.273   3.169  23.757  0.00  0.00    +0.181 C 
ENDROOT
BRANCH  10   4
ATOM      4  O   UNL     1       0.764   2.368  26.645  0.00  0.00    -0.388 OA
ATOM     26  H   UNL     1       0.975   3.315  26.714  0.00  0.00    +0.210 HD
ENDBRANCH  10   4
BRANCH   8   6
ATOM      6  N   UNL     1      -2.014   3.715  26.057  0.00  0.00    -0.306 NA
ATOM     25  H   UNL     1      -1.998   4.683  26.379  0.00  0.00    +0.123 HD
BRANCH   6   9
ATOM      1  F   UNL     1      -5.944   1.367  26.357  0.00  0.00    -0.206 F 
ATOM      2  F   UNL     1      -7.038   1.860  24.543  0.00  0.00    -0.206 F 
ATOM      9  C   UNL     1      -3.272   3.442  25.363  0.00  0.00    +0.054 C 
ATOM     11  C   UNL     1      -4.453   3.904  26.224  0.00  0.00    +0.024 C 
ATOM     12  C   UNL     1      -3.373   1.946  25.040  0.00  0.00    +0.024 C 
ATOM     15  C   UNL     1      -5.788   3.570  25.561  0.00  0.00    +0.077 C 
ATOM     16  C   UNL     1      -4.708   1.610  24.376  0.00  0.00    +0.077 C 
ATOM     17  C   UNL     1      -5.881   2.095  25.211  0.00  0.00    +0.249 C 
ENDBRANCH   6   9
ENDBRANCH   8   6
BRANCH  13  18
ATOM     18  C   UNL     1       1.004   0.457  24.069  0.00  0.00    +0.138 C 
BRANCH  18   7
ATOM      5  O   UNL     1      -0.239  -1.669  25.594  0.00  0.00    -0.276 OA
ATOM      7  N   UNL     1      -0.144  -0.336  23.692  0.00  0.00    -0.313 N 
ATOM     21  C   UNL     1      -0.670  -1.336  24.490  0.00  0.00    +0.214 C 
ATOM     27  H   UNL     1      -0.581  -0.130  22.800  0.00  0.00    +0.149 HD
BRANCH  21  20
ATOM     20  C   UNL     1      -1.870  -2.027  23.865  0.00  0.00    +0.102 C 
BRANCH  20  19
ATOM     19  C   UNL     1      -3.151  -2.011  24.734  0.00  0.00    -0.029 C 
ATOM     22  C   UNL     1      -3.407  -3.447  25.233  0.00  0.00    +0.011 C 
ATOM     23  C   UNL     1      -4.370  -1.556  23.914  0.00  0.00    +0.011 C 
ATOM     24  C   UNL     1      -2.991  -1.092  25.956  0.00  0.00    +0.011 C 
ENDBRANCH  20  19
ENDBRANCH  21  20
ENDBRANCH  18   7
ENDBRANCH  13  18
TORSDOF 7
ENDMDL
MODEL 7
REMARK VINA RESULT:      -5.9     27.141     29.682
REMARK  Name = 75536517
REMARK  10 active torsions:
REMARK  status: ('A' for Active; 'I' for Inactive)
REMARK    1  A    between atoms: O_4  and  C_10
REMARK    2  A    between atoms: N_6  and  C_8
REMARK    3  A    between atoms: N_6  and  C_9
REMARK    4  A    between atoms: N_7  and  C_18
REMARK    5  A    between atoms: C_13  and  C_18
REMARK    6  A    between atoms: C_19  and  C_20
REMARK    7  A    between atoms: C_19  and  C_22
REMARK    8  A    between atoms: C_19  and  C_23
REMARK    9  A    between atoms: C_19  and  C_24
REMARK   10  A    between atoms: C_20  and  C_21
REMARK                            x       y       z     vdW  Elec       q    Type
REMARK                         _______ _______ _______ _____ _____    ______ ____
ROOT
ATOM      3  O   UNL     1     -16.524   6.759  20.540  0.00  0.00    -0.371 OA
ATOM      8  C   UNL     1     -14.175   6.906  20.860  0.00  0.00    +0.111 C 
ATOM     10  C   UNL     1     -14.711   5.737  21.665  0.00  0.00    +0.164 C 
ATOM     13  C   UNL     1     -16.032   5.474  20.954  0.00  0.00    +0.165 C 
ATOM     14  C   UNL     1     -15.443   7.706  20.609  0.00  0.00    +0.181 C 
ENDROOT
BRANCH  10   4
ATOM      4  O   UNL     1     -13.858   4.610  21.626  0.00  0.00    -0.388 OA
ATOM     26  H   UNL     1     -14.410   3.809  21.632  0.00  0.00    +0.210 HD
ENDBRANCH  10   4
BRANCH   8   6
ATOM      6  N   UNL     1     -13.152   7.671  21.554  0.00  0.00    -0.306 NA
ATOM     25  H   UNL     1     -12.861   7.184  22.401  0.00  0.00    +0.123 HD
BRANCH   6   9
ATOM      1  F   UNL     1     -11.873   9.453  17.524  0.00  0.00    -0.206 F 
ATOM      2  F   UNL     1      -9.722   9.145  17.427  0.00  0.00    -0.206 F 
ATOM      9  C   UNL     1     -11.995   7.907  20.691  0.00  0.00    +0.054 C 
ATOM     11  C   UNL     1     -11.809   9.413  20.470  0.00  0.00    +0.024 C 
ATOM     12  C   UNL     1     -12.181   7.169  19.360  0.00  0.00    +0.024 C 
ATOM     15  C   UNL     1     -10.651   9.694  19.515  0.00  0.00    +0.077 C 
ATOM     16  C   UNL     1     -11.022   7.449  18.404  0.00  0.00    +0.077 C 
ATOM     17  C   UNL     1     -10.814   8.941  18.206  0.00  0.00    +0.249 C 
ENDBRANCH   6   9
ENDBRANCH   8   6
BRANCH  13  18
ATOM     18  C   UNL     1     -17.063   4.789  21.835  0.00  0.00    +0.138 C 
BRANCH  18   7
ATOM      5  O   UNL     1     -16.735   2.125  22.925  0.00  0.00    -0.276 OA
ATOM      7  N   UNL     1     -16.506   4.430  23.120  0.00  0.00    -0.313 N 
ATOM     21  C   UNL     1     -16.390   3.122  23.557  0.00  0.00    +0.214 C 
ATOM     27  H   UNL     1     -16.179   5.184  23.715  0.00  0.00    +0.149 HD
BRANCH  21  20
ATOM     20  C   UNL     1     -15.780   3.011  24.945  0.00  0.00    +0.102 C 
BRANCH  20  19
ATOM     19  C   UNL     1     -16.749   2.493  26.036  0.00  0.00    -0.029 C 
ATOM     22  C   UNL     1     -16.249   3.010  27.400  0.00  0.00    +0.011 C 
ATOM     23  C   UNL     1     -16.768   0.956  26.076  0.00  0.00    +0.011 C 
ATOM     24  C   UNL     1     -18.178   3.013  25.814  0.00  0.00    +0.011 C 
ENDBRANCH  20  19
ENDBRANCH  21  20
ENDBRANCH  18   7
ENDBRANCH  13  18
TORSDOF 7
ENDMDL
MODEL 8
REMARK VINA RESULT:      -5.9     26.633     28.677
REMARK  Name = 75536517
REMARK  10 active torsions:
REMARK  status: ('A' for Active; 'I' for Inactive)
REMARK    1  A    between atoms: O_4  and  C_10
REMARK    2  A    between atoms: N_6  and  C_8
REMARK    3  A    between atoms: N_6  and  C_9
REMARK    4  A    between atoms: N_7  and  C_18
REMARK    5  A    between atoms: C_13  and  C_18
REMARK    6  A    between atoms: C_19  and  C_20
REMARK    7  A    between atoms: C_19  and  C_22
REMARK    8  A    between atoms: C_19  and  C_23
REMARK    9  A    between atoms: C_19  and  C_24
REMARK   10  A    between atoms: C_20  and  C_21
REMARK                            x       y       z     vdW  Elec       q    Type
REMARK                         _______ _______ _______ _____ _____    ______ ____
ROOT
ATOM      3  O   UNL     1      -6.556 -11.091  19.799  0.00  0.00    -0.371 OA
ATOM      8  C   UNL     1      -4.851 -10.891  18.158  0.00  0.00    +0.111 C 
ATOM     10  C   UNL     1      -6.190 -10.569  17.522  0.00  0.00    +0.164 C 
ATOM     13  C   UNL     1      -7.023 -10.228  18.750  0.00  0.00    +0.165 C 
ATOM     14  C   UNL     1      -5.284 -11.638  19.409  0.00  0.00    +0.181 C 
ENDROOT
BRANCH  10   4
ATOM      4  O   UNL     1      -6.118  -9.485  16.616  0.00  0.00    -0.388 OA
ATOM     26  H   UNL     1      -6.834  -9.582  15.966  0.00  0.00    +0.210 HD
ENDBRANCH  10   4
BRANCH   8   6
ATOM      6  N   UNL     1      -3.974 -11.677  17.305  0.00  0.00    -0.306 NA
ATOM     25  H   UNL     1      -4.465 -12.501  16.959  0.00  0.00    +0.123 HD
BRANCH   6   9
ATOM      1  F   UNL     1      -1.382 -11.865  13.525  0.00  0.00    -0.206 F 
ATOM      2  F   UNL     1      -1.467  -9.862  12.680  0.00  0.00    -0.206 F 
ATOM      9  C   UNL     1      -3.481 -10.882  16.182  0.00  0.00    +0.054 C 
ATOM     11  C   UNL     1      -3.979 -11.480  14.861  0.00  0.00    +0.024 C 
ATOM     12  C   UNL     1      -1.949 -10.821  16.221  0.00  0.00    +0.024 C 
ATOM     15  C   UNL     1      -3.425 -10.715  13.661  0.00  0.00    +0.077 C 
ATOM     16  C   UNL     1      -1.393 -10.056  15.021  0.00  0.00    +0.077 C 
ATOM     17  C   UNL     1      -1.909 -10.626  13.711  0.00  0.00    +0.249 C 
ENDBRANCH   6   9
ENDBRANCH   8   6
BRANCH  13  18
ATOM     18  C   UNL     1      -8.513 -10.434  18.540  0.00  0.00    +0.138 C 
BRANCH  18   7
ATOM      5  O   UNL     1      -9.070  -9.586  15.827  0.00  0.00    -0.276 OA
ATOM      7  N   UNL     1      -9.163  -9.213  18.120  0.00  0.00    -0.313 N 
ATOM     21  C   UNL     1      -9.386  -8.892  16.792  0.00  0.00    +0.214 C 
ATOM     27  H   UNL     1      -9.473  -8.575  18.845  0.00  0.00    +0.149 HD
BRANCH  21  20
ATOM     20  C   UNL     1     -10.078  -7.550  16.613  0.00  0.00    +0.102 C 
BRANCH  20  19
ATOM     19  C   UNL     1     -11.491  -7.629  15.988  0.00  0.00    -0.029 C 
ATOM     22  C   UNL     1     -12.332  -8.606  16.834  0.00  0.00    +0.011 C 
ATOM     23  C   UNL     1     -11.431  -8.162  14.547  0.00  0.00    +0.011 C 
ATOM     24  C   UNL     1     -12.188  -6.259  15.993  0.00  0.00    +0.011 C 
ENDBRANCH  20  19
ENDBRANCH  21  20
ENDBRANCH  18   7
ENDBRANCH  13  18
TORSDOF 7
ENDMDL
MODEL 9
REMARK VINA RESULT:      -5.9      2.195      3.515
REMARK  Name = 75536517
REMARK  10 active torsions:
REMARK  status: ('A' for Active; 'I' for Inactive)
REMARK    1  A    between atoms: O_4  and  C_10
REMARK    2  A    between atoms: N_6  and  C_8
REMARK    3  A    between atoms: N_6  and  C_9
REMARK    4  A    between atoms: N_7  and  C_18
REMARK    5  A    between atoms: C_13  and  C_18
REMARK    6  A    between atoms: C_19  and  C_20
REMARK    7  A    between atoms: C_19  and  C_22
REMARK    8  A    between atoms: C_19  and  C_23
REMARK    9  A    between atoms: C_19  and  C_24
REMARK   10  A    between atoms: C_20  and  C_21
REMARK                            x       y       z     vdW  Elec       q    Type
REMARK                         _______ _______ _______ _____ _____    ______ ____
ROOT
ATOM      3  O   UNL     1      16.186   5.965  19.215  0.00  0.00    -0.371 OA
ATOM      8  C   UNL     1      17.097   6.677  21.289  0.00  0.00    +0.111 C 
ATOM     10  C   UNL     1      15.706   7.262  21.134  0.00  0.00    +0.164 C 
ATOM     13  C   UNL     1      15.108   6.323  20.095  0.00  0.00    +0.165 C 
ATOM     14  C   UNL     1      17.429   6.304  19.854  0.00  0.00    +0.181 C 
ENDROOT
BRANCH  10   4
ATOM      4  O   UNL     1      14.970   7.250  22.342  0.00  0.00    -0.388 OA
ATOM     26  H   UNL     1      15.424   7.824  22.982  0.00  0.00    +0.210 HD
ENDBRANCH  10   4
BRANCH   8   6
ATOM      6  N   UNL     1      18.057   7.601  21.870  0.00  0.00    -0.306 NA
ATOM     25  H   UNL     1      17.990   7.587  22.888  0.00  0.00    +0.123 HD
BRANCH   6   9
ATOM      1  F   UNL     1      22.462   7.967  23.101  0.00  0.00    -0.206 F 
ATOM      2  F   UNL     1      23.578   6.999  21.505  0.00  0.00    -0.206 F 
ATOM      9  C   UNL     1      19.421   7.272  21.457  0.00  0.00    +0.054 C 
ATOM     11  C   UNL     1      20.073   6.353  22.496  0.00  0.00    +0.024 C 
ATOM     12  C   UNL     1      20.232   8.560  21.269  0.00  0.00    +0.024 C 
ATOM     15  C   UNL     1      21.524   6.045  22.133  0.00  0.00    +0.077 C 
ATOM     16  C   UNL     1      21.684   8.253  20.905  0.00  0.00    +0.077 C 
ATOM     17  C   UNL     1      22.325   7.317  21.915  0.00  0.00    +0.249 C 
ENDBRANCH   6   9
ENDBRANCH   8   6
BRANCH  13  18
ATOM     18  C   UNL     1      13.979   6.951  19.296  0.00  0.00    +0.138 C 
BRANCH  18   7
ATOM      5  O   UNL     1      11.385   8.240  19.309  0.00  0.00    -0.276 OA
ATOM      7  N   UNL     1      13.661   8.275  19.781  0.00  0.00    -0.313 N 
ATOM     21  C   UNL     1      12.385   8.809  19.745  0.00  0.00    +0.214 C 
ATOM     27  H   UNL     1      14.419   8.824  20.173  0.00  0.00    +0.149 HD
BRANCH  21  20
ATOM     20  C   UNL     1      12.314  10.220  20.307  0.00  0.00    +0.102 C 
BRANCH  20  19
ATOM     19  C   UNL     1      12.068  10.296  21.833  0.00  0.00    -0.029 C 
ATOM     22  C   UNL     1      13.433  10.465  22.528  0.00  0.00    +0.011 C 
ATOM     23  C   UNL     1      11.413   9.006  22.354  0.00  0.00    +0.011 C 
ATOM     24  C   UNL     1      11.183  11.499  22.201  0.00  0.00    +0.011 C 
ENDBRANCH  20  19
ENDBRANCH  21  20
ENDBRANCH  18   7
ENDBRANCH  13  18
TORSDOF 7
ENDMDL
MODEL 10
REMARK VINA RESULT:      -5.8     28.369     30.465
REMARK  Name = 75536517
REMARK  10 active torsions:
REMARK  status: ('A' for Active; 'I' for Inactive)
REMARK    1  A    between atoms: O_4  and  C_10
REMARK    2  A    between atoms: N_6  and  C_8
REMARK    3  A    between atoms: N_6  and  C_9
REMARK    4  A    between atoms: N_7  and  C_18
REMARK    5  A    between atoms: C_13  and  C_18
REMARK    6  A    between atoms: C_19  and  C_20
REMARK    7  A    between atoms: C_19  and  C_22
REMARK    8  A    between atoms: C_19  and  C_23
REMARK    9  A    between atoms: C_19  and  C_24
REMARK   10  A    between atoms: C_20  and  C_21
REMARK                            x       y       z     vdW  Elec       q    Type
REMARK                         _______ _______ _______ _____ _____    ______ ____
ROOT
ATOM      3  O   UNL     1     -10.308 -12.676  18.530  0.00  0.00    -0.371 OA
ATOM      8  C   UNL     1      -8.685 -11.232  19.489  0.00  0.00    +0.111 C 
ATOM     10  C   UNL     1     -10.058 -10.602  19.639  0.00  0.00    +0.164 C 
ATOM     13  C   UNL     1     -10.957 -11.821  19.485  0.00  0.00    +0.165 C 
ATOM     14  C   UNL     1      -8.940 -12.252  18.393  0.00  0.00    +0.181 C 
ENDROOT
BRANCH  10   4
ATOM      4  O   UNL     1     -10.235  -9.970  20.892  0.00  0.00    -0.388 OA
ATOM     26  H   UNL     1     -10.427  -9.030  20.735  0.00  0.00    +0.210 HD
ENDBRANCH  10   4
BRANCH   8   6
ATOM      6  N   UNL     1      -7.642 -10.280  19.144  0.00  0.00    -0.306 NA
ATOM     25  H   UNL     1      -7.077 -10.063  19.964  0.00  0.00    +0.123 HD
BRANCH   6   9
ATOM      1  F   UNL     1      -3.725  -9.532  16.874  0.00  0.00    -0.206 F 
ATOM      2  F   UNL     1      -3.598 -11.142  15.418  0.00  0.00    -0.206 F 
ATOM      9  C   UNL     1      -6.789 -10.798  18.074  0.00  0.00    +0.054 C 
ATOM     11  C   UNL     1      -5.416 -11.176  18.641  0.00  0.00    +0.024 C 
ATOM     12  C   UNL     1      -6.662  -9.753  16.959  0.00  0.00    +0.024 C 
ATOM     15  C   UNL     1      -4.474 -11.656  17.538  0.00  0.00    +0.077 C 
ATOM     16  C   UNL     1      -5.720 -10.233  15.855  0.00  0.00    +0.077 C 
ATOM     17  C   UNL     1      -4.368 -10.638  16.415  0.00  0.00    +0.249 C 
ENDBRANCH   6   9
ENDBRANCH   8   6
BRANCH  13  18
ATOM     18  C   UNL     1     -12.356 -11.479  19.002  0.00  0.00    +0.138 C 
BRANCH  18   7
ATOM      5  O   UNL     1     -12.100 -10.637  16.242  0.00  0.00    -0.276 OA
ATOM      7  N   UNL     1     -12.423 -10.130  18.487  0.00  0.00    -0.313 N 
ATOM     21  C   UNL     1     -12.288  -9.822  17.145  0.00  0.00    +0.214 C 
ATOM     27  H   UNL     1     -12.587  -9.384  19.155  0.00  0.00    +0.149 HD
BRANCH  21  20
ATOM     20  C   UNL     1     -12.388  -8.332  16.863  0.00  0.00    +0.102 C 
BRANCH  20  19
ATOM     19  C   UNL     1     -11.079  -7.680  16.357  0.00  0.00    -0.029 C 
ATOM     22  C   UNL     1     -11.297  -6.155  16.302  0.00  0.00    +0.011 C 
ATOM     23  C   UNL     1     -10.726  -8.173  14.943  0.00  0.00    +0.011 C 
ATOM     24  C   UNL     1      -9.903  -7.970  17.303  0.00  0.00    +0.011 C 
ENDBRANCH  20  19
ENDBRANCH  21  20
ENDBRANCH  18   7
ENDBRANCH  13  18
TORSDOF 7
ENDMDL
