MODEL 1
REMARK VINA RESULT:      -6.5      0.000      0.000
REMARK  Name = 75368618
REMARK  7 active torsions:
REMARK  status: ('A' for Active; 'I' for Inactive)
REMARK    1  A    between atoms: O_2  and  C_25
REMARK    2  A    between atoms: O_2  and  C_28
REMARK    3  A    between atoms: N_4  and  C_13
REMARK    4  A    between atoms: N_5  and  C_14
REMARK    5  A    between atoms: C_13  and  C_15
REMARK    6  A    between atoms: C_14  and  C_16
REMARK    7  A    between atoms: C_21  and  C_27
REMARK                            x       y       z     vdW  Elec       q    Type
REMARK                         _______ _______ _______ _____ _____    ______ ____
ROOT
ATOM      1  O   UNL     1     -13.093  -8.554  13.869  0.00  0.00    -0.252 OA
ATOM      3  N   UNL     1     -10.977  -8.487  14.888  0.00  0.00    -0.278 N 
ATOM      4  N   UNL     1      -8.816  -9.279  16.506  0.00  0.00    -0.295 NA
ATOM      5  N   UNL     1     -12.181  -6.593  14.810  0.00  0.00    -0.279 N 
ATOM      7  C   UNL     1     -10.095  -7.473  15.426  0.00  0.00    +0.109 C 
ATOM      8  C   UNL     1      -9.451  -7.963  16.723  0.00  0.00    +0.109 C 
ATOM      9  C   UNL     1     -10.997  -6.252  15.580  0.00  0.00    +0.133 C 
ATOM     10  C   UNL     1     -10.503  -9.850  14.771  0.00  0.00    +0.125 C 
ATOM     11  C   UNL     1      -9.813 -10.278  16.069  0.00  0.00    +0.104 C 
ATOM     12  C   UNL     1     -12.196  -7.954  14.445  0.00  0.00    +0.305 C 
ENDROOT
BRANCH   4  13
ATOM     13  C   UNL     1      -8.145  -9.729  17.724  0.00  0.00    +0.119 C 
BRANCH  13  15
ATOM     15  C   UNL     1      -6.716 -10.112  17.470  0.00  0.00    -0.032 A 
ATOM     17  C   UNL     1      -5.996 -10.807  18.441  0.00  0.00    +0.023 A 
ATOM     18  C   UNL     1      -6.109  -9.773  16.261  0.00  0.00    +0.005 A 
ATOM     21  C   UNL     1      -4.668 -11.164  18.203  0.00  0.00    +0.052 A 
ATOM     22  C   UNL     1      -4.781 -10.129  16.023  0.00  0.00    +0.002 A 
ATOM     26  C   UNL     1      -4.061 -10.824  16.994  0.00  0.00    +0.019 A 
BRANCH  21  27
ATOM      6  N   UNL     1      -3.329 -12.456  20.004  0.00  0.00    -0.191 NA
ATOM     27  C   UNL     1      -3.929 -11.877  19.197  0.00  0.00    +0.099 C 
ENDBRANCH  21  27
ENDBRANCH  13  15
ENDBRANCH   4  13
BRANCH   5  14
ATOM     14  C   UNL     1     -13.258  -5.651  14.601  0.00  0.00    +0.144 C 
BRANCH  14  16
ATOM     16  C   UNL     1     -13.229  -5.062  13.220  0.00  0.00    -0.030 A 
ATOM     19  C   UNL     1     -12.315  -4.054  12.911  0.00  0.00    +0.009 A 
ATOM     20  C   UNL     1     -14.114  -5.523  12.246  0.00  0.00    +0.009 A 
ATOM     23  C   UNL     1     -12.286  -3.507  11.628  0.00  0.00    +0.046 A 
ATOM     24  C   UNL     1     -14.086  -4.976  10.962  0.00  0.00    +0.046 A 
ATOM     25  C   UNL     1     -13.172  -3.968  10.654  0.00  0.00    +0.120 A 
BRANCH  25   2
ATOM      2  O   UNL     1     -13.144  -3.436   9.402  0.00  0.00    -0.495 OA
ATOM     28  C   UNL     1     -11.861  -3.246   8.807  0.00  0.00    +0.277 C 
ENDBRANCH  25   2
ENDBRANCH  14  16
ENDBRANCH   5  14
TORSDOF 6
ENDMDL
MODEL 2
REMARK VINA RESULT:      -6.2      1.464      1.877
REMARK  Name = 75368618
REMARK  7 active torsions:
REMARK  status: ('A' for Active; 'I' for Inactive)
REMARK    1  A    between atoms: O_2  and  C_25
REMARK    2  A    between atoms: O_2  and  C_28
REMARK    3  A    between atoms: N_4  and  C_13
REMARK    4  A    between atoms: N_5  and  C_14
REMARK    5  A    between atoms: C_13  and  C_15
REMARK    6  A    between atoms: C_14  and  C_16
REMARK    7  A    between atoms: C_21  and  C_27
REMARK                            x       y       z     vdW  Elec       q    Type
REMARK                         _______ _______ _______ _____ _____    ______ ____
ROOT
ATOM      1  O   UNL     1     -13.272  -8.859  14.580  0.00  0.00    -0.252 OA
ATOM      3  N   UNL     1     -11.091  -8.931  15.449  0.00  0.00    -0.278 N 
ATOM      4  N   UNL     1      -8.947  -9.695  17.102  0.00  0.00    -0.295 NA
ATOM      5  N   UNL     1     -11.982  -6.924  14.975  0.00  0.00    -0.279 N 
ATOM      7  C   UNL     1     -10.015  -7.991  15.682  0.00  0.00    +0.109 C 
ATOM      8  C   UNL     1      -9.344  -8.275  17.026  0.00  0.00    +0.109 C 
ATOM      9  C   UNL     1     -10.696  -6.628  15.580  0.00  0.00    +0.133 C 
ATOM     10  C   UNL     1     -10.851 -10.346  15.641  0.00  0.00    +0.125 C 
ATOM     11  C   UNL     1     -10.125 -10.578  16.968  0.00  0.00    +0.104 C 
ATOM     12  C   UNL     1     -12.244  -8.309  14.950  0.00  0.00    +0.305 C 
ENDROOT
BRANCH   4  13
ATOM     13  C   UNL     1      -8.250  -9.963  18.359  0.00  0.00    +0.119 C 
BRANCH  13  15
ATOM     15  C   UNL     1      -6.842 -10.431  18.131  0.00  0.00    -0.032 A 
ATOM     17  C   UNL     1      -6.268 -10.327  16.864  0.00  0.00    +0.023 A 
ATOM     18  C   UNL     1      -6.107 -10.968  19.187  0.00  0.00    +0.005 A 
ATOM     21  C   UNL     1      -4.958 -10.760  16.654  0.00  0.00    +0.052 A 
ATOM     22  C   UNL     1      -4.798 -11.402  18.978  0.00  0.00    +0.002 A 
ATOM     26  C   UNL     1      -4.224 -11.298  17.711  0.00  0.00    +0.019 A 
BRANCH  21  27
ATOM      6  N   UNL     1      -3.891 -10.568  14.303  0.00  0.00    -0.191 NA
ATOM     27  C   UNL     1      -4.369 -10.654  15.356  0.00  0.00    +0.099 C 
ENDBRANCH  21  27
ENDBRANCH  13  15
ENDBRANCH   4  13
BRANCH   5  14
ATOM     14  C   UNL     1     -12.910  -5.882  14.597  0.00  0.00    +0.144 C 
BRANCH  14  16
ATOM     16  C   UNL     1     -12.620  -5.341  13.227  0.00  0.00    -0.030 A 
ATOM     19  C   UNL     1     -12.399  -3.975  13.049  0.00  0.00    +0.009 A 
ATOM     20  C   UNL     1     -12.571  -6.203  12.132  0.00  0.00    +0.009 A 
ATOM     23  C   UNL     1     -12.129  -3.471  11.777  0.00  0.00    +0.046 A 
ATOM     24  C   UNL     1     -12.300  -5.700  10.859  0.00  0.00    +0.046 A 
ATOM     25  C   UNL     1     -12.080  -4.334  10.682  0.00  0.00    +0.120 A 
BRANCH  25   2
ATOM      2  O   UNL     1     -11.815  -3.843   9.440  0.00  0.00    -0.495 OA
ATOM     28  C   UNL     1     -10.492  -4.032   8.938  0.00  0.00    +0.277 C 
ENDBRANCH  25   2
ENDBRANCH  14  16
ENDBRANCH   5  14
TORSDOF 6
ENDMDL
MODEL 3
REMARK VINA RESULT:      -6.1     29.259     31.154
REMARK  Name = 75368618
REMARK  7 active torsions:
REMARK  status: ('A' for Active; 'I' for Inactive)
REMARK    1  A    between atoms: O_2  and  C_25
REMARK    2  A    between atoms: O_2  and  C_28
REMARK    3  A    between atoms: N_4  and  C_13
REMARK    4  A    between atoms: N_5  and  C_14
REMARK    5  A    between atoms: C_13  and  C_15
REMARK    6  A    between atoms: C_14  and  C_16
REMARK    7  A    between atoms: C_21  and  C_27
REMARK                            x       y       z     vdW  Elec       q    Type
REMARK                         _______ _______ _______ _____ _____    ______ ____
ROOT
ATOM      1  O   UNL     1      11.875  10.337   6.510  0.00  0.00    -0.252 OA
ATOM      3  N   UNL     1      14.132   9.700   6.375  0.00  0.00    -0.278 N 
ATOM      4  N   UNL     1      16.896   9.912   5.897  0.00  0.00    -0.295 NA
ATOM      5  N   UNL     1      12.577   8.279   5.597  0.00  0.00    -0.279 N 
ATOM      7  C   UNL     1      14.875   8.512   6.013  0.00  0.00    +0.109 C 
ATOM      8  C   UNL     1      16.106   8.886   5.187  0.00  0.00    +0.109 C 
ATOM      9  C   UNL     1      13.849   7.652   5.279  0.00  0.00    +0.133 C 
ATOM     10  C   UNL     1      14.836  10.831   6.944  0.00  0.00    +0.125 C 
ATOM     11  C   UNL     1      16.092  11.132   6.123  0.00  0.00    +0.104 C 
ATOM     12  C   UNL     1      12.750   9.539   6.204  0.00  0.00    +0.305 C 
ENDROOT
BRANCH   4  13
ATOM     13  C   UNL     1      18.108  10.234   5.144  0.00  0.00    +0.119 C 
BRANCH  13  15
ATOM     15  C   UNL     1      19.202   9.235   5.389  0.00  0.00    -0.032 A 
ATOM     17  C   UNL     1      19.783   8.559   4.316  0.00  0.00    +0.023 A 
ATOM     18  C   UNL     1      19.638   8.984   6.689  0.00  0.00    +0.005 A 
ATOM     21  C   UNL     1      20.801   7.633   4.543  0.00  0.00    +0.052 A 
ATOM     22  C   UNL     1      20.656   8.058   6.917  0.00  0.00    +0.002 A 
ATOM     26  C   UNL     1      21.237   7.382   5.844  0.00  0.00    +0.019 A 
BRANCH  21  27
ATOM      6  N   UNL     1      21.881   6.377   2.553  0.00  0.00    -0.191 NA
ATOM     27  C   UNL     1      21.397   6.940   3.445  0.00  0.00    +0.099 C 
ENDBRANCH  21  27
ENDBRANCH  13  15
ENDBRANCH   4  13
BRANCH   5  14
ATOM     14  C   UNL     1      11.315   7.707   5.184  0.00  0.00    +0.144 C 
BRANCH  14  16
ATOM     16  C   UNL     1      10.807   6.695   6.170  0.00  0.00    -0.030 A 
ATOM     19  C   UNL     1      10.236   5.505   5.717  0.00  0.00    +0.009 A 
ATOM     20  C   UNL     1      10.906   6.943   7.539  0.00  0.00    +0.009 A 
ATOM     23  C   UNL     1       9.764   4.564   6.632  0.00  0.00    +0.046 A 
ATOM     24  C   UNL     1      10.434   6.002   8.455  0.00  0.00    +0.046 A 
ATOM     25  C   UNL     1       9.863   4.813   8.001  0.00  0.00    +0.120 A 
BRANCH  25   2
ATOM      2  O   UNL     1       9.404   3.895   8.894  0.00  0.00    -0.495 OA
ATOM     28  C   UNL     1       9.009   4.381  10.177  0.00  0.00    +0.277 C 
ENDBRANCH  25   2
ENDBRANCH  14  16
ENDBRANCH   5  14
TORSDOF 6
ENDMDL
MODEL 4
REMARK VINA RESULT:      -6.1     29.594     33.373
REMARK  Name = 75368618
REMARK  7 active torsions:
REMARK  status: ('A' for Active; 'I' for Inactive)
REMARK    1  A    between atoms: O_2  and  C_25
REMARK    2  A    between atoms: O_2  and  C_28
REMARK    3  A    between atoms: N_4  and  C_13
REMARK    4  A    between atoms: N_5  and  C_14
REMARK    5  A    between atoms: C_13  and  C_15
REMARK    6  A    between atoms: C_14  and  C_16
REMARK    7  A    between atoms: C_21  and  C_27
REMARK                            x       y       z     vdW  Elec       q    Type
REMARK                         _______ _______ _______ _____ _____    ______ ____
ROOT
ATOM      1  O   UNL     1      19.959   9.519  22.751  0.00  0.00    -0.252 OA
ATOM      3  N   UNL     1      18.334   8.343  21.527  0.00  0.00    -0.278 N 
ATOM      4  N   UNL     1      15.789   7.497  20.680  0.00  0.00    -0.295 NA
ATOM      5  N   UNL     1      20.119   7.211  22.289  0.00  0.00    -0.279 N 
ATOM      7  C   UNL     1      18.185   7.015  20.972  0.00  0.00    +0.109 C 
ATOM      8  C   UNL     1      16.760   6.506  21.187  0.00  0.00    +0.109 C 
ATOM      9  C   UNL     1      19.269   6.203  21.679  0.00  0.00    +0.133 C 
ATOM     10  C   UNL     1      17.350   9.358  21.213  0.00  0.00    +0.125 C 
ATOM     11  C   UNL     1      15.939   8.788  21.383  0.00  0.00    +0.104 C 
ATOM     12  C   UNL     1      19.527   8.490  22.249  0.00  0.00    +0.305 C 
ENDROOT
BRANCH   4  13
ATOM     13  C   UNL     1      14.424   6.994  20.825  0.00  0.00    +0.119 C 
BRANCH  13  15
ATOM     15  C   UNL     1      13.494   7.594  19.811  0.00  0.00    -0.032 A 
ATOM     17  C   UNL     1      13.924   7.789  18.498  0.00  0.00    +0.023 A 
ATOM     18  C   UNL     1      12.199   7.955  20.181  0.00  0.00    +0.005 A 
ATOM     21  C   UNL     1      13.059   8.345  17.555  0.00  0.00    +0.052 A 
ATOM     22  C   UNL     1      11.333   8.511  19.239  0.00  0.00    +0.002 A 
ATOM     26  C   UNL     1      11.764   8.706  17.927  0.00  0.00    +0.019 A 
BRANCH  21  27
ATOM      6  N   UNL     1      13.855   8.708  15.118  0.00  0.00    -0.191 NA
ATOM     27  C   UNL     1      13.498   8.546  16.211  0.00  0.00    +0.099 C 
ENDBRANCH  21  27
ENDBRANCH  13  15
ENDBRANCH   4  13
BRANCH   5  14
ATOM     14  C   UNL     1      21.344   6.869  22.974  0.00  0.00    +0.144 C 
BRANCH  14  16
ATOM     16  C   UNL     1      22.073   5.745  22.294  0.00  0.00    -0.030 A 
ATOM     19  C   UNL     1      22.652   5.947  21.041  0.00  0.00    +0.009 A 
ATOM     20  C   UNL     1      22.171   4.500  22.916  0.00  0.00    +0.009 A 
ATOM     23  C   UNL     1      23.329   4.904  20.409  0.00  0.00    +0.046 A 
ATOM     24  C   UNL     1      22.849   3.457  22.284  0.00  0.00    +0.046 A 
ATOM     25  C   UNL     1      23.428   3.659  21.031  0.00  0.00    +0.120 A 
BRANCH  25   2
ATOM      2  O   UNL     1      24.089   2.641  20.416  0.00  0.00    -0.495 OA
ATOM     28  C   UNL     1      24.131   1.389  21.100  0.00  0.00    +0.277 C 
ENDBRANCH  25   2
ENDBRANCH  14  16
ENDBRANCH   5  14
TORSDOF 6
ENDMDL
MODEL 5
REMARK VINA RESULT:      -6.0     29.046     31.358
REMARK  Name = 75368618
REMARK  7 active torsions:
REMARK  status: ('A' for Active; 'I' for Inactive)
REMARK    1  A    between atoms: O_2  and  C_25
REMARK    2  A    between atoms: O_2  and  C_28
REMARK    3  A    between atoms: N_4  and  C_13
REMARK    4  A    between atoms: N_5  and  C_14
REMARK    5  A    between atoms: C_13  and  C_15
REMARK    6  A    between atoms: C_14  and  C_16
REMARK    7  A    between atoms: C_21  and  C_27
REMARK                            x       y       z     vdW  Elec       q    Type
REMARK                         _______ _______ _______ _____ _____    ______ ____
ROOT
ATOM      1  O   UNL     1      15.761  10.823   3.476  0.00  0.00    -0.252 OA
ATOM      3  N   UNL     1      14.265   9.221   4.321  0.00  0.00    -0.278 N 
ATOM      4  N   UNL     1      11.827   8.070   5.121  0.00  0.00    -0.295 NA
ATOM      5  N   UNL     1      16.202   9.549   5.411  0.00  0.00    -0.279 N 
ATOM      7  C   UNL     1      14.272   8.214   5.361  0.00  0.00    +0.109 C 
ATOM      8  C   UNL     1      12.931   8.198   6.094  0.00  0.00    +0.109 C 
ATOM      9  C   UNL     1      15.471   8.595   6.226  0.00  0.00    +0.133 C 
ATOM     10  C   UNL     1      13.150   9.282   3.399  0.00  0.00    +0.125 C 
ATOM     11  C   UNL     1      11.830   9.202   4.170  0.00  0.00    +0.104 C 
ATOM     12  C   UNL     1      15.450   9.970   4.295  0.00  0.00    +0.305 C 
ENDROOT
BRANCH   4  13
ATOM     13  C   UNL     1      10.542   7.993   5.816  0.00  0.00    +0.119 C 
BRANCH  13  15
ATOM     15  C   UNL     1      10.252   6.604   6.307  0.00  0.00    -0.032 A 
ATOM     17  C   UNL     1      10.179   6.348   7.676  0.00  0.00    +0.023 A 
ATOM     18  C   UNL     1      10.055   5.569   5.393  0.00  0.00    +0.005 A 
ATOM     21  C   UNL     1       9.908   5.058   8.132  0.00  0.00    +0.052 A 
ATOM     22  C   UNL     1       9.784   4.279   5.848  0.00  0.00    +0.002 A 
ATOM     26  C   UNL     1       9.711   4.023   7.218  0.00  0.00    +0.019 A 
BRANCH  21  27
ATOM      6  N   UNL     1       9.772   4.581  10.673  0.00  0.00    -0.191 NA
ATOM     27  C   UNL     1       9.833   4.795   9.534  0.00  0.00    +0.099 C 
ENDBRANCH  21  27
ENDBRANCH  13  15
ENDBRANCH   4  13
BRANCH   5  14
ATOM     14  C   UNL     1      17.481  10.086   5.818  0.00  0.00    +0.144 C 
BRANCH  14  16
ATOM     16  C   UNL     1      18.599   9.113   5.582  0.00  0.00    -0.030 A 
ATOM     19  C   UNL     1      19.472   8.787   6.620  0.00  0.00    +0.009 A 
ATOM     20  C   UNL     1      18.766   8.534   4.324  0.00  0.00    +0.009 A 
ATOM     23  C   UNL     1      20.511   7.883   6.402  0.00  0.00    +0.046 A 
ATOM     24  C   UNL     1      19.805   7.629   4.104  0.00  0.00    +0.046 A 
ATOM     25  C   UNL     1      20.678   7.304   5.144  0.00  0.00    +0.120 A 
BRANCH  25   2
ATOM      2  O   UNL     1      21.690   6.420   4.930  0.00  0.00    -0.495 OA
ATOM     28  C   UNL     1      22.074   6.191   3.574  0.00  0.00    +0.277 C 
ENDBRANCH  25   2
ENDBRANCH  14  16
ENDBRANCH   5  14
TORSDOF 6
ENDMDL
MODEL 6
REMARK VINA RESULT:      -5.9      5.479     10.965
REMARK  Name = 75368618
REMARK  7 active torsions:
REMARK  status: ('A' for Active; 'I' for Inactive)
REMARK    1  A    between atoms: O_2  and  C_25
REMARK    2  A    between atoms: O_2  and  C_28
REMARK    3  A    between atoms: N_4  and  C_13
REMARK    4  A    between atoms: N_5  and  C_14
REMARK    5  A    between atoms: C_13  and  C_15
REMARK    6  A    between atoms: C_14  and  C_16
REMARK    7  A    between atoms: C_21  and  C_27
REMARK                            x       y       z     vdW  Elec       q    Type
REMARK                         _______ _______ _______ _____ _____    ______ ____
ROOT
ATOM      1  O   UNL     1      -6.752 -12.076   9.797  0.00  0.00    -0.252 OA
ATOM      3  N   UNL     1      -7.572  -9.875   9.773  0.00  0.00    -0.278 N 
ATOM      4  N   UNL     1      -9.272  -7.713   9.182  0.00  0.00    -0.295 NA
ATOM      5  N   UNL     1      -5.375 -10.196   9.431  0.00  0.00    -0.279 N 
ATOM      7  C   UNL     1      -7.015  -8.540   9.711  0.00  0.00    +0.109 C 
ATOM      8  C   UNL     1      -7.851  -7.658   8.784  0.00  0.00    +0.109 C 
ATOM      9  C   UNL     1      -5.576  -8.769   9.253  0.00  0.00    +0.133 C 
ATOM     10  C   UNL     1      -8.991 -10.041  10.010  0.00  0.00    +0.125 C 
ATOM     11  C   UNL     1      -9.786  -9.097   9.105  0.00  0.00    +0.104 C 
ATOM     12  C   UNL     1      -6.587 -10.869   9.686  0.00  0.00    +0.305 C 
ENDROOT
BRANCH   4  13
ATOM     13  C   UNL     1     -10.073  -6.825   8.339  0.00  0.00    +0.119 C 
BRANCH  13  15
ATOM     15  C   UNL     1     -10.742  -5.745   9.139  0.00  0.00    -0.032 A 
ATOM     17  C   UNL     1     -11.611  -6.082  10.177  0.00  0.00    +0.023 A 
ATOM     18  C   UNL     1     -10.495  -4.405   8.844  0.00  0.00    +0.005 A 
ATOM     21  C   UNL     1     -12.232  -5.078  10.921  0.00  0.00    +0.052 A 
ATOM     22  C   UNL     1     -11.115  -3.401   9.587  0.00  0.00    +0.002 A 
ATOM     26  C   UNL     1     -11.984  -3.738  10.626  0.00  0.00    +0.019 A 
BRANCH  21  27
ATOM      6  N   UNL     1     -13.845  -5.701  12.849  0.00  0.00    -0.191 NA
ATOM     27  C   UNL     1     -13.122  -5.422  11.985  0.00  0.00    +0.099 C 
ENDBRANCH  21  27
ENDBRANCH  13  15
ENDBRANCH   4  13
BRANCH   5  14
ATOM     14  C   UNL     1      -4.091 -10.823   9.214  0.00  0.00    +0.144 C 
BRANCH  14  16
ATOM     16  C   UNL     1      -3.408 -11.168  10.506  0.00  0.00    -0.030 A 
ATOM     19  C   UNL     1      -2.678 -10.195  11.190  0.00  0.00    +0.009 A 
ATOM     20  C   UNL     1      -3.504 -12.460  11.023  0.00  0.00    +0.009 A 
ATOM     23  C   UNL     1      -2.044 -10.515  12.391  0.00  0.00    +0.046 A 
ATOM     24  C   UNL     1      -2.870 -12.780  12.224  0.00  0.00    +0.046 A 
ATOM     25  C   UNL     1      -2.140 -11.806  12.908  0.00  0.00    +0.120 A 
BRANCH  25   2
ATOM      2  O   UNL     1      -1.523 -12.119  14.080  0.00  0.00    -0.495 OA
ATOM     28  C   UNL     1      -1.661 -11.188  15.153  0.00  0.00    +0.277 C 
ENDBRANCH  25   2
ENDBRANCH  14  16
ENDBRANCH   5  14
TORSDOF 6
ENDMDL
MODEL 7
REMARK VINA RESULT:      -5.8      6.813      9.788
REMARK  Name = 75368618
REMARK  7 active torsions:
REMARK  status: ('A' for Active; 'I' for Inactive)
REMARK    1  A    between atoms: O_2  and  C_25
REMARK    2  A    between atoms: O_2  and  C_28
REMARK    3  A    between atoms: N_4  and  C_13
REMARK    4  A    between atoms: N_5  and  C_14
REMARK    5  A    between atoms: C_13  and  C_15
REMARK    6  A    between atoms: C_14  and  C_16
REMARK    7  A    between atoms: C_21  and  C_27
REMARK                            x       y       z     vdW  Elec       q    Type
REMARK                         _______ _______ _______ _____ _____    ______ ____
ROOT
ATOM      1  O   UNL     1      -4.611 -13.335  17.869  0.00  0.00    -0.252 OA
ATOM      3  N   UNL     1      -4.534 -12.480  15.682  0.00  0.00    -0.278 N 
ATOM      4  N   UNL     1      -3.506 -11.875  13.135  0.00  0.00    -0.295 NA
ATOM      5  N   UNL     1      -5.394 -11.184  17.303  0.00  0.00    -0.279 N 
ATOM      7  C   UNL     1      -5.023 -11.307  14.988  0.00  0.00    +0.109 C 
ATOM      8  C   UNL     1      -3.964 -10.784  14.018  0.00  0.00    +0.109 C 
ATOM      9  C   UNL     1      -5.391 -10.346  16.116  0.00  0.00    +0.133 C 
ATOM     10  C   UNL     1      -3.926 -13.552  14.922  0.00  0.00    +0.125 C 
ATOM     11  C   UNL     1      -2.918 -12.978  13.923  0.00  0.00    +0.104 C 
ATOM     12  C   UNL     1      -4.824 -12.448  17.054  0.00  0.00    +0.305 C 
ENDROOT
BRANCH   4  13
ATOM     13  C   UNL     1      -2.537 -11.371  12.163  0.00  0.00    +0.119 C 
BRANCH  13  15
ATOM     15  C   UNL     1      -3.204 -10.854  10.921  0.00  0.00    -0.032 A 
ATOM     17  C   UNL     1      -3.885 -11.732  10.077  0.00  0.00    +0.023 A 
ATOM     18  C   UNL     1      -3.142  -9.497  10.611  0.00  0.00    +0.005 A 
ATOM     21  C   UNL     1      -4.506 -11.251   8.924  0.00  0.00    +0.052 A 
ATOM     22  C   UNL     1      -3.763  -9.015   9.458  0.00  0.00    +0.002 A 
ATOM     26  C   UNL     1      -4.444  -9.893   8.615  0.00  0.00    +0.019 A 
BRANCH  21  27
ATOM      6  N   UNL     1      -5.771 -12.879   7.357  0.00  0.00    -0.191 NA
ATOM     27  C   UNL     1      -5.204 -12.149   8.060  0.00  0.00    +0.099 C 
ENDBRANCH  21  27
ENDBRANCH  13  15
ENDBRANCH   4  13
BRANCH   5  14
ATOM     14  C   UNL     1      -5.805 -10.682  18.595  0.00  0.00    +0.144 C 
BRANCH  14  16
ATOM     16  C   UNL     1      -7.187 -11.140  18.961  0.00  0.00    -0.030 A 
ATOM     19  C   UNL     1      -8.299 -10.409  18.539  0.00  0.00    +0.009 A 
ATOM     20  C   UNL     1      -7.361 -12.295  19.723  0.00  0.00    +0.009 A 
ATOM     23  C   UNL     1      -9.583 -10.834  18.879  0.00  0.00    +0.046 A 
ATOM     24  C   UNL     1      -8.645 -12.720  20.063  0.00  0.00    +0.046 A 
ATOM     25  C   UNL     1      -9.756 -11.989  19.641  0.00  0.00    +0.120 A 
BRANCH  25   2
ATOM      2  O   UNL     1     -11.009 -12.405  19.972  0.00  0.00    -0.495 OA
ATOM     28  C   UNL     1     -11.120 -13.326  21.057  0.00  0.00    +0.277 C 
ENDBRANCH  25   2
ENDBRANCH  14  16
ENDBRANCH   5  14
TORSDOF 6
ENDMDL
MODEL 8
REMARK VINA RESULT:      -5.8     22.052     23.886
REMARK  Name = 75368618
REMARK  7 active torsions:
REMARK  status: ('A' for Active; 'I' for Inactive)
REMARK    1  A    between atoms: O_2  and  C_25
REMARK    2  A    between atoms: O_2  and  C_28
REMARK    3  A    between atoms: N_4  and  C_13
REMARK    4  A    between atoms: N_5  and  C_14
REMARK    5  A    between atoms: C_13  and  C_15
REMARK    6  A    between atoms: C_14  and  C_16
REMARK    7  A    between atoms: C_21  and  C_27
REMARK                            x       y       z     vdW  Elec       q    Type
REMARK                         _______ _______ _______ _____ _____    ______ ____
ROOT
ATOM      1  O   UNL     1     -17.288   6.603  32.691  0.00  0.00    -0.252 OA
ATOM      3  N   UNL     1     -15.106   7.461  32.834  0.00  0.00    -0.278 N 
ATOM      4  N   UNL     1     -12.793   8.888  32.108  0.00  0.00    -0.295 NA
ATOM      5  N   UNL     1     -15.437   5.303  33.361  0.00  0.00    -0.279 N 
ATOM      7  C   UNL     1     -13.819   7.003  33.312  0.00  0.00    +0.109 C 
ATOM      8  C   UNL     1     -12.711   7.434  32.352  0.00  0.00    +0.109 C 
ATOM      9  C   UNL     1     -13.999   5.492  33.447  0.00  0.00    +0.133 C 
ATOM     10  C   UNL     1     -15.259   8.841  32.423  0.00  0.00    +0.125 C 
ATOM     11  C   UNL     1     -14.098   9.248  31.513  0.00  0.00    +0.104 C 
ATOM     12  C   UNL     1     -16.096   6.474  32.936  0.00  0.00    +0.305 C 
ENDROOT
BRANCH   4  13
ATOM     13  C   UNL     1     -11.701   9.322  31.237  0.00  0.00    +0.119 C 
BRANCH  13  15
ATOM     15  C   UNL     1     -10.732  10.216  31.956  0.00  0.00    -0.032 A 
ATOM     17  C   UNL     1     -10.015   9.733  33.051  0.00  0.00    +0.023 A 
ATOM     18  C   UNL     1     -10.549  11.530  31.528  0.00  0.00    +0.005 A 
ATOM     21  C   UNL     1      -9.114  10.564  33.717  0.00  0.00    +0.052 A 
ATOM     22  C   UNL     1      -9.648  12.362  32.194  0.00  0.00    +0.002 A 
ATOM     26  C   UNL     1      -8.931  11.878  33.288  0.00  0.00    +0.019 A 
BRANCH  21  27
ATOM      6  N   UNL     1      -7.782   9.669  35.749  0.00  0.00    -0.191 NA
ATOM     27  C   UNL     1      -8.379  10.070  34.838  0.00  0.00    +0.099 C 
ENDBRANCH  21  27
ENDBRANCH  13  15
ENDBRANCH   4  13
BRANCH   5  14
ATOM     14  C   UNL     1     -16.053   4.010  33.554  0.00  0.00    +0.144 C 
BRANCH  14  16
ATOM     16  C   UNL     1     -15.695   3.048  32.457  0.00  0.00    -0.030 A 
ATOM     19  C   UNL     1     -14.945   1.908  32.747  0.00  0.00    +0.009 A 
ATOM     20  C   UNL     1     -16.113   3.294  31.150  0.00  0.00    +0.009 A 
ATOM     23  C   UNL     1     -14.613   1.014  31.729  0.00  0.00    +0.046 A 
ATOM     24  C   UNL     1     -15.781   2.400  30.131  0.00  0.00    +0.046 A 
ATOM     25  C   UNL     1     -15.030   1.260  30.421  0.00  0.00    +0.120 A 
BRANCH  25   2
ATOM      2  O   UNL     1     -14.708   0.388  29.428  0.00  0.00    -0.495 OA
ATOM     28  C   UNL     1     -13.658  -0.540  29.696  0.00  0.00    +0.277 C 
ENDBRANCH  25   2
ENDBRANCH  14  16
ENDBRANCH   5  14
TORSDOF 6
ENDMDL
MODEL 9
REMARK VINA RESULT:      -5.8      4.880      5.961
REMARK  Name = 75368618
REMARK  7 active torsions:
REMARK  status: ('A' for Active; 'I' for Inactive)
REMARK    1  A    between atoms: O_2  and  C_25
REMARK    2  A    between atoms: O_2  and  C_28
REMARK    3  A    between atoms: N_4  and  C_13
REMARK    4  A    between atoms: N_5  and  C_14
REMARK    5  A    between atoms: C_13  and  C_15
REMARK    6  A    between atoms: C_14  and  C_16
REMARK    7  A    between atoms: C_21  and  C_27
REMARK                            x       y       z     vdW  Elec       q    Type
REMARK                         _______ _______ _______ _____ _____    ______ ____
ROOT
ATOM      1  O   UNL     1     -10.016  -9.569   7.038  0.00  0.00    -0.252 OA
ATOM      3  N   UNL     1      -8.084  -9.511   8.373  0.00  0.00    -0.278 N 
ATOM      4  N   UNL     1      -6.307 -10.174  10.450  0.00  0.00    -0.295 NA
ATOM      5  N   UNL     1      -9.007  -7.560   7.750  0.00  0.00    -0.279 N 
ATOM      7  C   UNL     1      -7.167  -8.503   8.861  0.00  0.00    +0.109 C 
ATOM      8  C   UNL     1      -6.791  -8.786  10.315  0.00  0.00    +0.109 C 
ATOM      9  C   UNL     1      -7.916  -7.191   8.635  0.00  0.00    +0.133 C 
ATOM     10  C   UNL     1      -7.779 -10.910   8.586  0.00  0.00    +0.125 C 
ATOM     11  C   UNL     1      -7.350 -11.137  10.038  0.00  0.00    +0.104 C 
ATOM     12  C   UNL     1      -9.144  -8.958   7.640  0.00  0.00    +0.305 C 
ENDROOT
BRANCH   4  13
ATOM     13  C   UNL     1      -5.888 -10.437  11.826  0.00  0.00    +0.119 C 
BRANCH  13  15
ATOM     15  C   UNL     1      -4.399 -10.332  11.990  0.00  0.00    -0.032 A 
ATOM     17  C   UNL     1      -3.814 -10.581  13.231  0.00  0.00    +0.023 A 
ATOM     18  C   UNL     1      -3.602  -9.986  10.900  0.00  0.00    +0.005 A 
ATOM     21  C   UNL     1      -2.430 -10.484  13.382  0.00  0.00    +0.052 A 
ATOM     22  C   UNL     1      -2.218  -9.889  11.050  0.00  0.00    +0.002 A 
ATOM     26  C   UNL     1      -1.633 -10.138  12.291  0.00  0.00    +0.019 A 
BRANCH  21  27
ATOM      6  N   UNL     1      -1.340 -10.946  15.685  0.00  0.00    -0.191 NA
ATOM     27  C   UNL     1      -1.829 -10.739  14.653  0.00  0.00    +0.099 C 
ENDBRANCH  21  27
ENDBRANCH  13  15
ENDBRANCH   4  13
BRANCH   5  14
ATOM     14  C   UNL     1      -9.909  -6.577   7.194  0.00  0.00    +0.144 C 
BRANCH  14  16
ATOM     16  C   UNL     1     -10.607  -5.786   8.263  0.00  0.00    -0.030 A 
ATOM     19  C   UNL     1     -11.653  -6.361   8.985  0.00  0.00    +0.009 A 
ATOM     20  C   UNL     1     -10.209  -4.478   8.536  0.00  0.00    +0.009 A 
ATOM     23  C   UNL     1     -12.302  -5.628   9.979  0.00  0.00    +0.046 A 
ATOM     24  C   UNL     1     -10.857  -3.744   9.530  0.00  0.00    +0.046 A 
ATOM     25  C   UNL     1     -11.904  -4.320  10.251  0.00  0.00    +0.120 A 
BRANCH  25   2
ATOM      2  O   UNL     1     -12.534  -3.604  11.221  0.00  0.00    -0.495 OA
ATOM     28  C   UNL     1     -12.293  -3.991  12.573  0.00  0.00    +0.277 C 
ENDBRANCH  25   2
ENDBRANCH  14  16
ENDBRANCH   5  14
TORSDOF 6
ENDMDL
MODEL 10
REMARK VINA RESULT:      -5.7     28.935     30.846
REMARK  Name = 75368618
REMARK  7 active torsions:
REMARK  status: ('A' for Active; 'I' for Inactive)
REMARK    1  A    between atoms: O_2  and  C_25
REMARK    2  A    between atoms: O_2  and  C_28
REMARK    3  A    between atoms: N_4  and  C_13
REMARK    4  A    between atoms: N_5  and  C_14
REMARK    5  A    between atoms: C_13  and  C_15
REMARK    6  A    between atoms: C_14  and  C_16
REMARK    7  A    between atoms: C_21  and  C_27
REMARK                            x       y       z     vdW  Elec       q    Type
REMARK                         _______ _______ _______ _____ _____    ______ ____
ROOT
ATOM      1  O   UNL     1      11.625   9.968   3.486  0.00  0.00    -0.252 OA
ATOM      3  N   UNL     1      13.710   9.205   4.252  0.00  0.00    -0.278 N 
ATOM      4  N   UNL     1      16.469   8.656   4.245  0.00  0.00    -0.295 NA
ATOM      5  N   UNL     1      11.917   7.889   4.560  0.00  0.00    -0.279 N 
ATOM      7  C   UNL     1      14.206   8.092   5.033  0.00  0.00    +0.109 C 
ATOM      8  C   UNL     1      15.503   7.554   4.428  0.00  0.00    +0.109 C 
ATOM      9  C   UNL     1      13.042   7.104   5.036  0.00  0.00    +0.133 C 
ATOM     10  C   UNL     1      14.616  10.274   3.886  0.00  0.00    +0.125 C 
ATOM     11  C   UNL     1      15.922   9.691   3.342  0.00  0.00    +0.104 C 
ATOM     12  C   UNL     1      12.328   9.130   4.034  0.00  0.00    +0.305 C 
ENDROOT
BRANCH   4  13
ATOM     13  C   UNL     1      17.735   8.143   3.723  0.00  0.00    +0.119 C 
BRANCH  13  15
ATOM     15  C   UNL     1      18.847   8.269   4.723  0.00  0.00    -0.032 A 
ATOM     17  C   UNL     1      18.777   9.233   5.728  0.00  0.00    +0.023 A 
ATOM     18  C   UNL     1      19.951   7.420   4.648  0.00  0.00    +0.005 A 
ATOM     21  C   UNL     1      19.810   9.349   6.659  0.00  0.00    +0.052 A 
ATOM     22  C   UNL     1      20.985   7.535   5.577  0.00  0.00    +0.002 A 
ATOM     26  C   UNL     1      20.914   8.499   6.582  0.00  0.00    +0.019 A 
BRANCH  21  27
ATOM      6  N   UNL     1      19.681  11.138   8.525  0.00  0.00    -0.191 NA
ATOM     27  C   UNL     1      19.739  10.336   7.689  0.00  0.00    +0.099 C 
ENDBRANCH  21  27
ENDBRANCH  13  15
ENDBRANCH   4  13
BRANCH   5  14
ATOM     14  C   UNL     1      10.574   7.355   4.514  0.00  0.00    +0.144 C 
BRANCH  14  16
ATOM     16  C   UNL     1      10.281   6.469   5.691  0.00  0.00    -0.030 A 
ATOM     19  C   UNL     1      10.106   5.097   5.505  0.00  0.00    +0.009 A 
ATOM     20  C   UNL     1      10.184   7.017   6.969  0.00  0.00    +0.009 A 
ATOM     23  C   UNL     1       9.834   4.274   6.597  0.00  0.00    +0.046 A 
ATOM     24  C   UNL     1       9.912   6.194   8.063  0.00  0.00    +0.046 A 
ATOM     25  C   UNL     1       9.737   4.822   7.876  0.00  0.00    +0.120 A 
BRANCH  25   2
ATOM      2  O   UNL     1       9.474   4.019   8.943  0.00  0.00    -0.495 OA
ATOM     28  C   UNL     1       9.061   4.660  10.149  0.00  0.00    +0.277 C 
ENDBRANCH  25   2
ENDBRANCH  14  16
ENDBRANCH   5  14
TORSDOF 6
ENDMDL
