REMARK  Name = 7142890
REMARK  7 active torsions:
REMARK  status: ('A' for Active; 'I' for Inactive)
REMARK    1  A    between atoms: O_4  and  C_27
REMARK    2  A    between atoms: O_4  and  C_29
REMARK    3  A    between atoms: O_5  and  C_28
REMARK    4  A    between atoms: O_5  and  C_30
REMARK    5  A    between atoms: N_8  and  C_19
REMARK    6  A    between atoms: C_18  and  C_21
REMARK    7  A    between atoms: C_24  and  C_28
REMARK                            x       y       z     vdW  Elec       q    Type
REMARK                         _______ _______ _______ _____ _____    ______ ____
ROOT
ATOM      1  O   UNL     1      -0.126   3.054   1.156  0.00  0.00    -0.266 OA
ATOM      2  O   UNL     1      -3.484  -0.517   2.803  0.00  0.00    -0.270 OA
ATOM      6  N   UNL     1      -4.270   0.306   0.759  0.00  0.00    -0.297 N 
ATOM      7  N   UNL     1      -1.961   2.311  -0.084  0.00  0.00    -0.310 N 
ATOM      9  C   UNL     1      -4.382   2.788   0.605  0.00  0.00    +0.027 C 
ATOM     10  C   UNL     1      -3.922   1.456  -1.414  0.00  0.00    +0.054 C 
ATOM     11  C   UNL     1      -4.679   2.674  -0.886  0.00  0.00    +0.018 C 
ATOM     12  C   UNL     1      -4.845   1.518   1.343  0.00  0.00    +0.113 C 
ATOM     13  C   UNL     1      -2.882   3.049   0.792  0.00  0.00    +0.130 C 
ATOM     14  C   UNL     1      -4.425   0.186  -0.700  0.00  0.00    +0.117 C 
ATOM     15  C   UNL     1      -2.428   1.607  -1.198  0.00  0.00    +0.027 A 
ATOM     16  C   UNL     1      -1.560   1.036  -2.051  0.00  0.00    +0.024 A 
ATOM     17  C   UNL     1      -0.585   2.432   0.198  0.00  0.00    +0.273 A 
ATOM     18  C   UNL     1      -3.617  -0.612   1.584  0.00  0.00    +0.247 C 
ATOM     19  C   UNL     1       0.348   1.758  -0.760  0.00  0.00    +0.099 A 
ATOM     20  C   UNL     1      -0.145   1.114  -1.824  0.00  0.00    +0.030 A 
ENDROOT
BRANCH  18  21
ATOM     21  C   UNL     1      -3.012  -1.791   0.957  0.00  0.00    +0.037 A 
ATOM     22  C   UNL     1      -3.758  -2.960   0.803  0.00  0.00    +0.016 A 
ATOM     23  C   UNL     1      -1.690  -1.745   0.515  0.00  0.00    +0.016 A 
ATOM     25  C   UNL     1      -3.183  -4.082   0.207  0.00  0.00    +0.046 A 
ATOM     26  C   UNL     1      -1.114  -2.867  -0.082  0.00  0.00    +0.046 A 
ATOM     27  C   UNL     1      -1.861  -4.035  -0.235  0.00  0.00    +0.120 A 
BRANCH  27   4
ATOM      4  O   UNL     1      -1.298  -5.131  -0.816  0.00  0.00    -0.495 OA
ATOM     29  C   UNL     1       0.058  -5.015  -1.243  0.00  0.00    +0.277 C 
ENDBRANCH  27   4
ENDBRANCH  18  21
BRANCH  19   8
ATOM      3  O   UNL     1       2.332  -0.182  -1.484  0.00  0.00    -0.272 OA
ATOM      8  N   UNL     1       1.687   1.837  -0.513  0.00  0.00    -0.278 N 
ATOM     24  C   UNL     1       2.598   0.861  -0.891  0.00  0.00    +0.255 C 
ATOM     36  H   UNL     1       1.987   2.533   0.165  0.00  0.00    +0.155 HD
BRANCH  24  28
ATOM     28  C   UNL     1       4.008   1.228  -0.479  0.00  0.00    +0.324 C 
BRANCH  28   5
ATOM      5  O   UNL     1       4.923   0.233  -0.888  0.00  0.00    -0.483 OA
BRANCH   5  30
ATOM     30  C   UNL     1       6.059   0.075  -0.130  0.00  0.00    +0.121 A 
ATOM     31  C   UNL     1       6.604   1.166   0.546  0.00  0.00    +0.045 A 
ATOM     32  C   UNL     1       6.667  -1.177  -0.038  0.00  0.00    +0.045 A 
ATOM     33  C   UNL     1       7.757   1.006   1.314  0.00  0.00    +0.004 A 
ATOM     34  C   UNL     1       7.821  -1.337   0.730  0.00  0.00    +0.004 A 
ATOM     35  C   UNL     1       8.366  -0.246   1.406  0.00  0.00    +0.000 A 
ENDBRANCH   5  30
ENDBRANCH  28   5
ENDBRANCH  24  28
ENDBRANCH  19   8
TORSDOF 6
