REMARK  Name = 51138059
REMARK  10 active torsions:
REMARK  status: ('A' for Active; 'I' for Inactive)
REMARK    1  A    between atoms: N_3  and  C_19
REMARK    2  A    between atoms: N_4  and  C_23
REMARK    3  A    between atoms: C_6  and  C_10
REMARK    4  A    between atoms: C_8  and  C_17
REMARK    5  A    between atoms: C_10  and  C_14
REMARK    6  A    between atoms: C_14  and  C_21
REMARK    7  A    between atoms: C_14  and  C_22
REMARK    8  A    between atoms: C_19  and  C_24
REMARK    9  A    between atoms: C_23  and  C_25
REMARK   10  A    between atoms: C_23  and  C_26
REMARK                            x       y       z     vdW  Elec       q    Type
REMARK                         _______ _______ _______ _____ _____    ______ ____
ROOT
ATOM      2  N   UNL     1      -2.145  -0.300  -0.557  0.00  0.00    -0.299 NA
ATOM      3  N   UNL     1       2.531   0.939   0.894  0.00  0.00    -0.341 N 
ATOM      6  C   UNL     1      -1.659  -1.438   0.235  0.00  0.00    +0.085 C 
ATOM      7  C   UNL     1      -0.183  -1.388   0.643  0.00  0.00    -0.021 A 
ATOM      8  C   UNL     1      -2.114   0.980   0.135  0.00  0.00    +0.145 C 
ATOM      9  C   UNL     1       0.636  -0.222   0.618  0.00  0.00    +0.008 A 
ATOM     11  C   UNL     1      -0.859   1.778  -0.215  0.00  0.00    +0.065 C 
ATOM     12  C   UNL     1       0.408   1.153   0.264  0.00  0.00    -0.020 A 
ATOM     13  C   UNL     1       1.971  -0.309   1.031  0.00  0.00    +0.050 A 
ATOM     15  C   UNL     1       1.600   1.826   0.439  0.00  0.00    +0.091 A 
ATOM     16  C   UNL     1       0.418  -2.563   1.161  0.00  0.00    +0.006 A 
ATOM     18  C   UNL     1       2.557  -1.487   1.494  0.00  0.00    +0.026 A 
ATOM     20  C   UNL     1       1.750  -2.615   1.565  0.00  0.00    +0.002 A 
ATOM     31  H   UNL     1      -1.661  -0.246  -1.452  0.00  0.00    +0.123 HD
ENDROOT
BRANCH   8  17
ATOM      1  O   UNL     1      -3.272   2.458  -1.338  0.00  0.00    -0.274 OA
ATOM      4  N   UNL     1      -4.435   1.488   0.431  0.00  0.00    -0.312 N 
ATOM     17  C   UNL     1      -3.320   1.722  -0.356  0.00  0.00    +0.231 C 
ATOM     32  H   UNL     1      -4.374   0.807   1.183  0.00  0.00    +0.149 HD
BRANCH   4  23
ATOM     23  C   UNL     1      -5.720   2.102   0.183  0.00  0.00    +0.067 C 
ATOM     25  C   UNL     1      -6.540   1.255  -0.781  0.00  0.00    +0.027 C 
ATOM     26  C   UNL     1      -6.463   2.321   1.495  0.00  0.00    +0.027 C 
ENDBRANCH   4  23
ENDBRANCH   8  17
BRANCH   6  10
ATOM     10  C   UNL     1      -1.995  -2.676  -0.616  0.00  0.00    +0.026 C 
BRANCH  10  14
ATOM     14  C   UNL     1      -3.478  -3.056  -0.560  0.00  0.00    -0.015 C 
ATOM     21  C   UNL     1      -4.391  -1.939  -1.067  0.00  0.00    +0.007 C 
ATOM     22  C   UNL     1      -3.705  -4.324  -1.387  0.00  0.00    +0.007 C 
ENDBRANCH  10  14
ENDBRANCH   6  10
BRANCH   3  19
ATOM     19  C   UNL     1       3.902   1.286   1.201  0.00  0.00    +0.177 C 
BRANCH  19  24
ATOM      5  N   UNL     1       5.888   0.060   0.505  0.00  0.00    -0.258 NA
ATOM     24  C   UNL     1       4.878   0.875   0.127  0.00  0.00    +0.061 A 
ATOM     27  C   UNL     1       4.698   1.339  -1.166  0.00  0.00    +0.025 A 
ATOM     28  C   UNL     1       5.615   0.941  -2.133  0.00  0.00    +0.003 A 
ATOM     29  C   UNL     1       6.759  -0.306  -0.462  0.00  0.00    +0.111 A 
ATOM     30  C   UNL     1       6.667   0.103  -1.783  0.00  0.00    +0.020 A 
ENDBRANCH  19  24
ENDBRANCH   3  19
TORSDOF 6
