MODEL 1
REMARK VINA RESULT:      -7.0      0.000      0.000
REMARK  Name = 75536071
REMARK  8 active torsions:
REMARK  status: ('A' for Active; 'I' for Inactive)
REMARK    1  A    between atoms: O_1  and  C_9
REMARK    2  A    between atoms: O_2  and  C_11
REMARK    3  A    between atoms: O_4  and  C_24
REMARK    4  A    between atoms: O_4  and  C_25
REMARK    5  A    between atoms: N_5  and  C_8
REMARK    6  A    between atoms: C_7  and  C_12
REMARK    7  A    between atoms: C_14  and  C_16
REMARK    8  A    between atoms: C_16  and  C_19
REMARK                            x       y       z     vdW  Elec       q    Type
REMARK                         _______ _______ _______ _____ _____    ______ ____
ROOT
ATOM      7  C   UNL     1      13.134   8.433  21.581  0.00  0.00    +0.046 C 
ATOM      8  C   UNL     1      13.060   7.256  20.581  0.00  0.00    +0.111 C 
ATOM      9  C   UNL     1      12.017   6.329  21.203  0.00  0.00    +0.164 C 
ATOM     10  C   UNL     1      11.786   8.424  22.345  0.00  0.00    +0.044 C 
ATOM     11  C   UNL     1      10.963   7.295  21.728  0.00  0.00    +0.145 C 
ENDROOT
BRANCH   7  12
ATOM      6  N   UNL     1      14.801  11.767  20.880  0.00  0.00    -0.263 NA
ATOM     12  C   UNL     1      13.467   9.752  20.916  0.00  0.00    -0.024 A 
ATOM     13  C   UNL     1      12.788  10.172  19.777  0.00  0.00    +0.007 A 
ATOM     15  C   UNL     1      14.457  10.579  21.423  0.00  0.00    +0.114 A 
ATOM     17  C   UNL     1      13.115  11.389  19.189  0.00  0.00    +0.020 A 
ATOM     18  C   UNL     1      14.120  12.143  19.773  0.00  0.00    +0.111 A 
ENDBRANCH   7  12
BRANCH   8   5
ATOM      3  O   UNL     1      14.977   7.707  18.482  0.00  0.00    -0.275 OA
ATOM      5  N   UNL     1      14.334   6.602  20.421  0.00  0.00    -0.309 N 
ATOM     14  C   UNL     1      15.198   6.887  19.370  0.00  0.00    +0.218 C 
ATOM     26  H   UNL     1      14.626   5.952  21.145  0.00  0.00    +0.149 HD
BRANCH  14  16
ATOM     16  C   UNL     1      16.466   6.059  19.449  0.00  0.00    +0.130 C 
BRANCH  16  19
ATOM     19  C   UNL     1      17.544   6.699  20.282  0.00  0.00    -0.038 A 
ATOM     20  C   UNL     1      17.281   7.877  20.980  0.00  0.00    +0.007 A 
ATOM     21  C   UNL     1      18.808   6.112  20.356  0.00  0.00    +0.007 A 
ATOM     22  C   UNL     1      18.280   8.469  21.753  0.00  0.00    +0.046 A 
ATOM     23  C   UNL     1      19.807   6.704  21.129  0.00  0.00    +0.046 A 
ATOM     24  C   UNL     1      19.544   7.882  21.827  0.00  0.00    +0.120 A 
BRANCH  24   4
ATOM      4  O   UNL     1      20.518   8.459  22.581  0.00  0.00    -0.495 OA
ATOM     25  C   UNL     1      20.593   8.071  23.952  0.00  0.00    +0.277 C 
ENDBRANCH  24   4
ENDBRANCH  16  19
ENDBRANCH  14  16
ENDBRANCH   8   5
BRANCH   9   1
ATOM      1  O   UNL     1      11.463   5.433  20.256  0.00  0.00    -0.387 OA
ATOM     27  H   UNL     1      10.600   5.791  19.986  0.00  0.00    +0.210 HD
ENDBRANCH   9   1
BRANCH  11   2
ATOM      2  O   UNL     1      10.183   7.829  20.662  0.00  0.00    -0.389 OA
ATOM     28  H   UNL     1       9.742   7.082  20.220  0.00  0.00    +0.210 HD
ENDBRANCH  11   2
TORSDOF 7
ENDMDL
MODEL 2
REMARK VINA RESULT:      -6.7      2.932      6.171
REMARK  Name = 75536071
REMARK  8 active torsions:
REMARK  status: ('A' for Active; 'I' for Inactive)
REMARK    1  A    between atoms: O_1  and  C_9
REMARK    2  A    between atoms: O_2  and  C_11
REMARK    3  A    between atoms: O_4  and  C_24
REMARK    4  A    between atoms: O_4  and  C_25
REMARK    5  A    between atoms: N_5  and  C_8
REMARK    6  A    between atoms: C_7  and  C_12
REMARK    7  A    between atoms: C_14  and  C_16
REMARK    8  A    between atoms: C_16  and  C_19
REMARK                            x       y       z     vdW  Elec       q    Type
REMARK                         _______ _______ _______ _____ _____    ______ ____
ROOT
ATOM      7  C   UNL     1      14.067   9.290  18.286  0.00  0.00    +0.046 C 
ATOM      8  C   UNL     1      12.670   8.660  18.088  0.00  0.00    +0.111 C 
ATOM      9  C   UNL     1      12.126   9.383  16.856  0.00  0.00    +0.164 C 
ATOM     10  C   UNL     1      14.477   9.853  16.901  0.00  0.00    +0.044 C 
ATOM     11  C   UNL     1      13.344   9.480  15.947  0.00  0.00    +0.145 C 
ENDROOT
BRANCH   7  12
ATOM      6  N   UNL     1      16.084   6.135  18.893  0.00  0.00    -0.263 NA
ATOM     12  C   UNL     1      15.068   8.329  18.890  0.00  0.00    -0.024 A 
ATOM     13  C   UNL     1      15.874   8.712  19.958  0.00  0.00    +0.007 A 
ATOM     15  C   UNL     1      15.211   7.042  18.399  0.00  0.00    +0.114 A 
ATOM     17  C   UNL     1      16.785   7.807  20.493  0.00  0.00    +0.020 A 
ATOM     18  C   UNL     1      16.851   6.543  19.930  0.00  0.00    +0.111 A 
ENDBRANCH   7  12
BRANCH   8   5
ATOM      3  O   UNL     1      12.027   6.700  20.096  0.00  0.00    -0.275 OA
ATOM      5  N   UNL     1      11.823   8.850  19.239  0.00  0.00    -0.309 N 
ATOM     14  C   UNL     1      11.570   7.838  20.160  0.00  0.00    +0.218 C 
ATOM     26  H   UNL     1      11.453   9.780  19.406  0.00  0.00    +0.149 HD
BRANCH  14  16
ATOM     16  C   UNL     1      10.655   8.312  21.272  0.00  0.00    +0.130 C 
BRANCH  16  19
ATOM     19  C   UNL     1      11.270   9.379  22.137  0.00  0.00    -0.038 A 
ATOM     20  C   UNL     1      10.472  10.119  23.008  0.00  0.00    +0.007 A 
ATOM     21  C   UNL     1      12.642   9.629  22.066  0.00  0.00    +0.007 A 
ATOM     22  C   UNL     1      11.042  11.108  23.810  0.00  0.00    +0.046 A 
ATOM     23  C   UNL     1      13.212  10.618  22.867  0.00  0.00    +0.046 A 
ATOM     24  C   UNL     1      12.413  11.357  23.739  0.00  0.00    +0.120 A 
BRANCH  24   4
ATOM      4  O   UNL     1      12.971  12.321  24.521  0.00  0.00    -0.495 OA
ATOM     25  C   UNL     1      12.119  12.958  25.472  0.00  0.00    +0.277 C 
ENDBRANCH  24   4
ENDBRANCH  16  19
ENDBRANCH  14  16
ENDBRANCH   8   5
BRANCH   9   1
ATOM      1  O   UNL     1      11.077   8.664  16.232  0.00  0.00    -0.387 OA
ATOM     27  H   UNL     1      10.900   7.878  16.775  0.00  0.00    +0.210 HD
ENDBRANCH   9   1
BRANCH  11   2
ATOM      2  O   UNL     1      13.641   8.219  15.354  0.00  0.00    -0.389 OA
ATOM     28  H   UNL     1      13.548   8.319  14.391  0.00  0.00    +0.210 HD
ENDBRANCH  11   2
TORSDOF 7
ENDMDL
MODEL 3
REMARK VINA RESULT:      -6.6      2.363      3.011
REMARK  Name = 75536071
REMARK  8 active torsions:
REMARK  status: ('A' for Active; 'I' for Inactive)
REMARK    1  A    between atoms: O_1  and  C_9
REMARK    2  A    between atoms: O_2  and  C_11
REMARK    3  A    between atoms: O_4  and  C_24
REMARK    4  A    between atoms: O_4  and  C_25
REMARK    5  A    between atoms: N_5  and  C_8
REMARK    6  A    between atoms: C_7  and  C_12
REMARK    7  A    between atoms: C_14  and  C_16
REMARK    8  A    between atoms: C_16  and  C_19
REMARK                            x       y       z     vdW  Elec       q    Type
REMARK                         _______ _______ _______ _____ _____    ______ ____
ROOT
ATOM      7  C   UNL     1      11.895   9.022  22.287  0.00  0.00    +0.046 C 
ATOM      8  C   UNL     1      12.923   8.981  21.133  0.00  0.00    +0.111 C 
ATOM      9  C   UNL     1      12.616   7.658  20.432  0.00  0.00    +0.164 C 
ATOM     10  C   UNL     1      10.733   8.093  21.850  0.00  0.00    +0.044 C 
ATOM     11  C   UNL     1      11.094   7.601  20.450  0.00  0.00    +0.145 C 
ENDROOT
BRANCH   7  12
ATOM      6  N   UNL     1      10.534  11.948  24.280  0.00  0.00    -0.263 NA
ATOM     12  C   UNL     1      11.468  10.429  22.649  0.00  0.00    -0.024 A 
ATOM     13  C   UNL     1      11.599  11.473  21.739  0.00  0.00    +0.007 A 
ATOM     15  C   UNL     1      10.935  10.716  23.894  0.00  0.00    +0.114 A 
ATOM     17  C   UNL     1      11.199  12.755  22.100  0.00  0.00    +0.020 A 
ATOM     18  C   UNL     1      10.677  12.939  23.370  0.00  0.00    +0.111 A 
ENDBRANCH   7  12
BRANCH   8   5
ATOM      3  O   UNL     1      15.245   9.830  19.660  0.00  0.00    -0.275 OA
ATOM      5  N   UNL     1      14.280   9.031  21.616  0.00  0.00    -0.309 N 
ATOM     14  C   UNL     1      15.342   9.458  20.827  0.00  0.00    +0.218 C 
ATOM     26  H   UNL     1      14.443   8.801  22.592  0.00  0.00    +0.149 HD
BRANCH  14  16
ATOM     16  C   UNL     1      16.654   9.416  21.587  0.00  0.00    +0.130 C 
BRANCH  16  19
ATOM     19  C   UNL     1      17.527   8.251  21.205  0.00  0.00    -0.038 A 
ATOM     20  C   UNL     1      18.835   8.172  21.682  0.00  0.00    +0.007 A 
ATOM     21  C   UNL     1      17.027   7.249  20.372  0.00  0.00    +0.007 A 
ATOM     22  C   UNL     1      19.644   7.093  21.328  0.00  0.00    +0.046 A 
ATOM     23  C   UNL     1      17.836   6.169  20.018  0.00  0.00    +0.046 A 
ATOM     24  C   UNL     1      19.144   6.091  20.495  0.00  0.00    +0.120 A 
BRANCH  24   4
ATOM      4  O   UNL     1      19.932   5.036  20.151  0.00  0.00    -0.495 OA
ATOM     25  C   UNL     1      21.302   5.094  20.544  0.00  0.00    +0.277 C 
ENDBRANCH  24   4
ENDBRANCH  16  19
ENDBRANCH  14  16
ENDBRANCH   8   5
BRANCH   9   1
ATOM      1  O   UNL     1      13.113   7.626  19.107  0.00  0.00    -0.387 OA
ATOM     27  H   UNL     1      13.574   8.468  18.948  0.00  0.00    +0.210 HD
ENDBRANCH   9   1
BRANCH  11   2
ATOM      2  O   UNL     1      10.537   8.497  19.493  0.00  0.00    -0.389 OA
ATOM     28  H   UNL     1       9.758   8.064  19.105  0.00  0.00    +0.210 HD
ENDBRANCH  11   2
TORSDOF 7
ENDMDL
MODEL 4
REMARK VINA RESULT:      -6.2      3.531      7.495
REMARK  Name = 75536071
REMARK  8 active torsions:
REMARK  status: ('A' for Active; 'I' for Inactive)
REMARK    1  A    between atoms: O_1  and  C_9
REMARK    2  A    between atoms: O_2  and  C_11
REMARK    3  A    between atoms: O_4  and  C_24
REMARK    4  A    between atoms: O_4  and  C_25
REMARK    5  A    between atoms: N_5  and  C_8
REMARK    6  A    between atoms: C_7  and  C_12
REMARK    7  A    between atoms: C_14  and  C_16
REMARK    8  A    between atoms: C_16  and  C_19
REMARK                            x       y       z     vdW  Elec       q    Type
REMARK                         _______ _______ _______ _____ _____    ______ ____
ROOT
ATOM      7  C   UNL     1      14.400   8.543  19.044  0.00  0.00    +0.046 C 
ATOM      8  C   UNL     1      13.279   8.846  20.064  0.00  0.00    +0.111 C 
ATOM      9  C   UNL     1      12.001   8.705  19.237  0.00  0.00    +0.164 C 
ATOM     10  C   UNL     1      13.738   7.700  17.925  0.00  0.00    +0.044 C 
ATOM     11  C   UNL     1      12.288   7.494  18.359  0.00  0.00    +0.145 C 
ENDROOT
BRANCH   7  12
ATOM      6  N   UNL     1      17.361   7.974  21.346  0.00  0.00    -0.263 NA
ATOM     12  C   UNL     1      15.615   7.897  19.677  0.00  0.00    -0.024 A 
ATOM     13  C   UNL     1      16.106   6.682  19.209  0.00  0.00    +0.007 A 
ATOM     15  C   UNL     1      16.273   8.496  20.739  0.00  0.00    +0.114 A 
ATOM     17  C   UNL     1      17.223   6.113  19.809  0.00  0.00    +0.020 A 
ATOM     18  C   UNL     1      17.810   6.793  20.865  0.00  0.00    +0.111 A 
ENDBRANCH   7  12
BRANCH   8   5
ATOM      3  O   UNL     1      12.131   9.773  22.535  0.00  0.00    -0.275 OA
ATOM      5  N   UNL     1      13.408  10.163  20.634  0.00  0.00    -0.309 N 
ATOM     14  C   UNL     1      12.814  10.521  21.839  0.00  0.00    +0.218 C 
ATOM     26  H   UNL     1      14.008  10.828  20.157  0.00  0.00    +0.149 HD
BRANCH  14  16
ATOM     16  C   UNL     1      13.116  11.961  22.205  0.00  0.00    +0.130 C 
BRANCH  16  19
ATOM     19  C   UNL     1      11.882  12.783  22.462  0.00  0.00    -0.038 A 
ATOM     20  C   UNL     1      11.258  13.453  21.410  0.00  0.00    +0.007 A 
ATOM     21  C   UNL     1      11.361  12.873  23.753  0.00  0.00    +0.007 A 
ATOM     22  C   UNL     1      10.114  14.215  21.648  0.00  0.00    +0.046 A 
ATOM     23  C   UNL     1      10.217  13.635  23.991  0.00  0.00    +0.046 A 
ATOM     24  C   UNL     1       9.593  14.306  22.940  0.00  0.00    +0.120 A 
BRANCH  24   4
ATOM      4  O   UNL     1       8.476  15.047  23.172  0.00  0.00    -0.495 OA
ATOM     25  C   UNL     1       7.501  15.096  22.132  0.00  0.00    +0.277 C 
ENDBRANCH  24   4
ENDBRANCH  16  19
ENDBRANCH  14  16
ENDBRANCH   8   5
BRANCH   9   1
ATOM      1  O   UNL     1      10.859   8.491  20.046  0.00  0.00    -0.387 OA
ATOM     27  H   UNL     1      10.261   7.902  19.557  0.00  0.00    +0.210 HD
ENDBRANCH   9   1
BRANCH  11   2
ATOM      2  O   UNL     1      12.203   6.287  19.111  0.00  0.00    -0.389 OA
ATOM     28  H   UNL     1      11.471   5.764  18.743  0.00  0.00    +0.210 HD
ENDBRANCH  11   2
TORSDOF 7
ENDMDL
MODEL 5
REMARK VINA RESULT:      -6.2     27.041     28.637
REMARK  Name = 75536071
REMARK  8 active torsions:
REMARK  status: ('A' for Active; 'I' for Inactive)
REMARK    1  A    between atoms: O_1  and  C_9
REMARK    2  A    between atoms: O_2  and  C_11
REMARK    3  A    between atoms: O_4  and  C_24
REMARK    4  A    between atoms: O_4  and  C_25
REMARK    5  A    between atoms: N_5  and  C_8
REMARK    6  A    between atoms: C_7  and  C_12
REMARK    7  A    between atoms: C_14  and  C_16
REMARK    8  A    between atoms: C_16  and  C_19
REMARK                            x       y       z     vdW  Elec       q    Type
REMARK                         _______ _______ _______ _____ _____    ______ ____
ROOT
ATOM      7  C   UNL     1      -5.807 -10.222  17.552  0.00  0.00    +0.046 C 
ATOM      8  C   UNL     1      -4.994 -11.433  17.041  0.00  0.00    +0.111 C 
ATOM      9  C   UNL     1      -4.484 -12.084  18.326  0.00  0.00    +0.164 C 
ATOM     10  C   UNL     1      -6.211 -10.567  19.008  0.00  0.00    +0.044 C 
ATOM     11  C   UNL     1      -5.676 -11.974  19.267  0.00  0.00    +0.145 C 
ENDROOT
BRANCH   7  12
ATOM      6  N   UNL     1      -9.123  -8.804  16.375  0.00  0.00    -0.263 NA
ATOM     12  C   UNL     1      -6.970  -9.867  16.649  0.00  0.00    -0.024 A 
ATOM     13  C   UNL     1      -6.981 -10.252  15.312  0.00  0.00    +0.007 A 
ATOM     15  C   UNL     1      -8.055  -9.151  17.127  0.00  0.00    +0.114 A 
ATOM     17  C   UNL     1      -8.063  -9.912  14.507  0.00  0.00    +0.020 A 
ATOM     18  C   UNL     1      -9.100  -9.195  15.081  0.00  0.00    +0.111 A 
ENDBRANCH   7  12
BRANCH   8   5
ATOM      3  O   UNL     1      -3.801 -12.996  14.939  0.00  0.00    -0.275 OA
ATOM      5  N   UNL     1      -3.913 -11.032  16.176  0.00  0.00    -0.309 N 
ATOM     14  C   UNL     1      -3.400 -11.860  15.183  0.00  0.00    +0.218 C 
ATOM     26  H   UNL     1      -3.562 -10.084  16.265  0.00  0.00    +0.149 HD
BRANCH  14  16
ATOM     16  C   UNL     1      -2.276 -11.187  14.420  0.00  0.00    +0.130 C 
BRANCH  16  19
ATOM     19  C   UNL     1      -2.714 -10.605  13.103  0.00  0.00    -0.038 A 
ATOM     20  C   UNL     1      -1.763 -10.209  12.163  0.00  0.00    +0.007 A 
ATOM     21  C   UNL     1      -4.074 -10.463  12.821  0.00  0.00    +0.007 A 
ATOM     22  C   UNL     1      -2.169  -9.670  10.942  0.00  0.00    +0.046 A 
ATOM     23  C   UNL     1      -4.480  -9.924  11.600  0.00  0.00    +0.046 A 
ATOM     24  C   UNL     1      -3.529  -9.528  10.661  0.00  0.00    +0.120 A 
BRANCH  24   4
ATOM      4  O   UNL     1      -3.926  -9.004   9.470  0.00  0.00    -0.495 OA
ATOM     25  C   UNL     1      -4.772  -9.812   8.655  0.00  0.00    +0.277 C 
ENDBRANCH  24   4
ENDBRANCH  16  19
ENDBRANCH  14  16
ENDBRANCH   8   5
BRANCH   9   1
ATOM      1  O   UNL     1      -4.110 -13.436  18.130  0.00  0.00    -0.387 OA
ATOM     27  H   UNL     1      -4.488 -13.952  18.862  0.00  0.00    +0.210 HD
ENDBRANCH   9   1
BRANCH  11   2
ATOM      2  O   UNL     1      -6.687 -12.917  18.923  0.00  0.00    -0.389 OA
ATOM     28  H   UNL     1      -6.381 -13.401  18.137  0.00  0.00    +0.210 HD
ENDBRANCH  11   2
TORSDOF 7
ENDMDL
MODEL 6
REMARK VINA RESULT:      -6.1      3.265      5.965
REMARK  Name = 75536071
REMARK  8 active torsions:
REMARK  status: ('A' for Active; 'I' for Inactive)
REMARK    1  A    between atoms: O_1  and  C_9
REMARK    2  A    between atoms: O_2  and  C_11
REMARK    3  A    between atoms: O_4  and  C_24
REMARK    4  A    between atoms: O_4  and  C_25
REMARK    5  A    between atoms: N_5  and  C_8
REMARK    6  A    between atoms: C_7  and  C_12
REMARK    7  A    between atoms: C_14  and  C_16
REMARK    8  A    between atoms: C_16  and  C_19
REMARK                            x       y       z     vdW  Elec       q    Type
REMARK                         _______ _______ _______ _____ _____    ______ ____
ROOT
ATOM      7  C   UNL     1      14.114   9.044  18.629  0.00  0.00    +0.046 C 
ATOM      8  C   UNL     1      12.763   9.119  19.376  0.00  0.00    +0.111 C 
ATOM      9  C   UNL     1      11.731   9.011  18.254  0.00  0.00    +0.164 C 
ATOM     10  C   UNL     1      13.816   8.327  17.288  0.00  0.00    +0.044 C 
ATOM     11  C   UNL     1      12.334   7.962  17.329  0.00  0.00    +0.145 C 
ENDROOT
BRANCH   7  12
ATOM      6  N   UNL     1      16.467   6.416  20.025  0.00  0.00    -0.263 NA
ATOM     12  C   UNL     1      15.209   8.399  19.452  0.00  0.00    -0.024 A 
ATOM     13  C   UNL     1      15.951   9.143  20.365  0.00  0.00    +0.007 A 
ATOM     15  C   UNL     1      15.504   7.052  19.321  0.00  0.00    +0.114 A 
ATOM     17  C   UNL     1      16.951   8.523  21.107  0.00  0.00    +0.020 A 
ATOM     18  C   UNL     1      17.168   7.170  20.902  0.00  0.00    +0.111 A 
ENDBRANCH   7  12
BRANCH   8   5
ATOM      3  O   UNL     1      11.042   9.578  21.637  0.00  0.00    -0.275 OA
ATOM      5  N   UNL     1      12.623  10.346  20.119  0.00  0.00    -0.309 N 
ATOM     14  C   UNL     1      11.762  10.474  21.203  0.00  0.00    +0.218 C 
ATOM     26  H   UNL     1      13.228  11.123  19.868  0.00  0.00    +0.149 HD
BRANCH  14  16
ATOM     16  C   UNL     1      11.818  11.866  21.800  0.00  0.00    +0.130 C 
BRANCH  16  19
ATOM     19  C   UNL     1      12.490  11.911  23.146  0.00  0.00    -0.038 A 
ATOM     20  C   UNL     1      13.777  11.398  23.302  0.00  0.00    +0.007 A 
ATOM     21  C   UNL     1      11.824  12.467  24.239  0.00  0.00    +0.007 A 
ATOM     22  C   UNL     1      14.399  11.439  24.549  0.00  0.00    +0.046 A 
ATOM     23  C   UNL     1      12.446  12.508  25.487  0.00  0.00    +0.046 A 
ATOM     24  C   UNL     1      13.733  11.995  25.642  0.00  0.00    +0.120 A 
BRANCH  24   4
ATOM      4  O   UNL     1      14.341  12.037  26.859  0.00  0.00    -0.495 OA
ATOM     25  C   UNL     1      15.764  11.943  26.878  0.00  0.00    +0.277 C 
ENDBRANCH  24   4
ENDBRANCH  16  19
ENDBRANCH  14  16
ENDBRANCH   8   5
BRANCH   9   1
ATOM      1  O   UNL     1      10.461   8.605  18.730  0.00  0.00    -0.387 OA
ATOM     27  H   UNL     1       9.809   9.249  18.407  0.00  0.00    +0.210 HD
ENDBRANCH   9   1
BRANCH  11   2
ATOM      2  O   UNL     1      12.201   6.656  17.883  0.00  0.00    -0.389 OA
ATOM     28  H   UNL     1      13.047   6.194  17.751  0.00  0.00    +0.210 HD
ENDBRANCH  11   2
TORSDOF 7
ENDMDL
MODEL 7
REMARK VINA RESULT:      -6.0     26.893     28.976
REMARK  Name = 75536071
REMARK  8 active torsions:
REMARK  status: ('A' for Active; 'I' for Inactive)
REMARK    1  A    between atoms: O_1  and  C_9
REMARK    2  A    between atoms: O_2  and  C_11
REMARK    3  A    between atoms: O_4  and  C_24
REMARK    4  A    between atoms: O_4  and  C_25
REMARK    5  A    between atoms: N_5  and  C_8
REMARK    6  A    between atoms: C_7  and  C_12
REMARK    7  A    between atoms: C_14  and  C_16
REMARK    8  A    between atoms: C_16  and  C_19
REMARK                            x       y       z     vdW  Elec       q    Type
REMARK                         _______ _______ _______ _____ _____    ______ ____
ROOT
ATOM      7  C   UNL     1      -4.285 -12.751  12.976  0.00  0.00    +0.046 C 
ATOM      8  C   UNL     1      -3.057 -12.986  13.885  0.00  0.00    +0.111 C 
ATOM      9  C   UNL     1      -2.950 -14.509  13.949  0.00  0.00    +0.164 C 
ATOM     10  C   UNL     1      -4.434 -14.038  12.125  0.00  0.00    +0.044 C 
ATOM     11  C   UNL     1      -3.266 -14.938  12.522  0.00  0.00    +0.145 C 
ENDROOT
BRANCH   7  12
ATOM      6  N   UNL     1      -5.178  -9.380  11.482  0.00  0.00    -0.263 NA
ATOM     12  C   UNL     1      -4.185 -11.475  12.166  0.00  0.00    -0.024 A 
ATOM     13  C   UNL     1      -3.066 -11.210  11.383  0.00  0.00    +0.007 A 
ATOM     15  C   UNL     1      -5.203 -10.536  12.182  0.00  0.00    +0.114 A 
ATOM     17  C   UNL     1      -3.003 -10.030  10.650  0.00  0.00    +0.020 A 
ATOM     18  C   UNL     1      -4.075  -9.156  10.732  0.00  0.00    +0.111 A 
ENDBRANCH   7  12
BRANCH   8   5
ATOM      3  O   UNL     1      -2.127 -10.406  14.761  0.00  0.00    -0.275 OA
ATOM      5  N   UNL     1      -3.232 -12.404  15.192  0.00  0.00    -0.309 N 
ATOM     14  C   UNL     1      -2.745 -11.145  15.524  0.00  0.00    +0.218 C 
ATOM     26  H   UNL     1      -3.787 -12.919  15.868  0.00  0.00    +0.149 HD
BRANCH  14  16
ATOM     16  C   UNL     1      -3.075 -10.779  16.958  0.00  0.00    +0.130 C 
BRANCH  16  19
ATOM     19  C   UNL     1      -4.534 -10.478  17.176  0.00  0.00    -0.038 A 
ATOM     20  C   UNL     1      -5.145 -10.820  18.382  0.00  0.00    +0.007 A 
ATOM     21  C   UNL     1      -5.275  -9.855  16.171  0.00  0.00    +0.007 A 
ATOM     22  C   UNL     1      -6.497 -10.541  18.583  0.00  0.00    +0.046 A 
ATOM     23  C   UNL     1      -6.626  -9.575  16.372  0.00  0.00    +0.046 A 
ATOM     24  C   UNL     1      -7.238  -9.918  17.578  0.00  0.00    +0.120 A 
BRANCH  24   4
ATOM      4  O   UNL     1      -8.556  -9.643  17.775  0.00  0.00    -0.495 OA
ATOM     25  C   UNL     1      -9.106  -8.546  17.047  0.00  0.00    +0.277 C 
ENDBRANCH  24   4
ENDBRANCH  16  19
ENDBRANCH  14  16
ENDBRANCH   8   5
BRANCH   9   1
ATOM      1  O   UNL     1      -1.659 -14.940  14.339  0.00  0.00    -0.387 OA
ATOM     27  H   UNL     1      -1.680 -15.094  15.299  0.00  0.00    +0.210 HD
ENDBRANCH   9   1
BRANCH  11   2
ATOM      2  O   UNL     1      -2.168 -14.673  11.654  0.00  0.00    -0.389 OA
ATOM     28  H   UNL     1      -1.804 -13.805  11.899  0.00  0.00    +0.210 HD
ENDBRANCH  11   2
TORSDOF 7
ENDMDL
MODEL 8
REMARK VINA RESULT:      -6.0     26.615     29.071
REMARK  Name = 75536071
REMARK  8 active torsions:
REMARK  status: ('A' for Active; 'I' for Inactive)
REMARK    1  A    between atoms: O_1  and  C_9
REMARK    2  A    between atoms: O_2  and  C_11
REMARK    3  A    between atoms: O_4  and  C_24
REMARK    4  A    between atoms: O_4  and  C_25
REMARK    5  A    between atoms: N_5  and  C_8
REMARK    6  A    between atoms: C_7  and  C_12
REMARK    7  A    between atoms: C_14  and  C_16
REMARK    8  A    between atoms: C_16  and  C_19
REMARK                            x       y       z     vdW  Elec       q    Type
REMARK                         _______ _______ _______ _____ _____    ______ ____
ROOT
ATOM      7  C   UNL     1      -5.052 -10.472  15.410  0.00  0.00    +0.046 C 
ATOM      8  C   UNL     1      -3.630 -10.979  15.077  0.00  0.00    +0.111 C 
ATOM      9  C   UNL     1      -2.816 -10.589  16.310  0.00  0.00    +0.164 C 
ATOM     10  C   UNL     1      -5.116 -10.381  16.956  0.00  0.00    +0.044 C 
ATOM     11  C   UNL     1      -3.768 -10.890  17.461  0.00  0.00    +0.145 C 
ENDROOT
BRANCH   7  12
ATOM      6  N   UNL     1      -7.537 -13.291  14.890  0.00  0.00    -0.263 NA
ATOM     12  C   UNL     1      -6.142 -11.319  14.788  0.00  0.00    -0.024 A 
ATOM     13  C   UNL     1      -6.745 -10.945  13.591  0.00  0.00    +0.007 A 
ATOM     15  C   UNL     1      -6.570 -12.490  15.392  0.00  0.00    +0.114 A 
ATOM     17  C   UNL     1      -7.743 -11.743  13.044  0.00  0.00    +0.020 A 
ATOM     18  C   UNL     1      -8.100 -12.895  13.726  0.00  0.00    +0.111 A 
ENDBRANCH   7  12
BRANCH   8   5
ATOM      3  O   UNL     1      -1.622 -12.075  13.329  0.00  0.00    -0.275 OA
ATOM      5  N   UNL     1      -3.108 -10.375  13.876  0.00  0.00    -0.309 N 
ATOM     14  C   UNL     1      -2.134 -10.984  13.092  0.00  0.00    +0.218 C 
ATOM     26  H   UNL     1      -3.521  -9.499  13.570  0.00  0.00    +0.149 HD
BRANCH  14  16
ATOM     16  C   UNL     1      -1.775 -10.134  11.889  0.00  0.00    +0.130 C 
BRANCH  16  19
ATOM     19  C   UNL     1      -2.828 -10.148  10.814  0.00  0.00    -0.038 A 
ATOM     20  C   UNL     1      -3.467 -11.341  10.477  0.00  0.00    +0.007 A 
ATOM     21  C   UNL     1      -3.165  -8.966  10.153  0.00  0.00    +0.007 A 
ATOM     22  C   UNL     1      -4.442 -11.354   9.480  0.00  0.00    +0.046 A 
ATOM     23  C   UNL     1      -4.141  -8.978   9.157  0.00  0.00    +0.046 A 
ATOM     24  C   UNL     1      -4.780 -10.171   8.820  0.00  0.00    +0.120 A 
BRANCH  24   4
ATOM      4  O   UNL     1      -5.733 -10.183   7.849  0.00  0.00    -0.495 OA
ATOM     25  C   UNL     1      -5.390 -10.803   6.610  0.00  0.00    +0.277 C 
ENDBRANCH  24   4
ENDBRANCH  16  19
ENDBRANCH  14  16
ENDBRANCH   8   5
BRANCH   9   1
ATOM      1  O   UNL     1      -1.622 -11.340  16.424  0.00  0.00    -0.387 OA
ATOM     27  H   UNL     1      -1.192 -11.339  15.552  0.00  0.00    +0.210 HD
ENDBRANCH   9   1
BRANCH  11   2
ATOM      2  O   UNL     1      -3.865 -12.292  17.691  0.00  0.00    -0.389 OA
ATOM     28  H   UNL     1      -3.017 -12.587  18.064  0.00  0.00    +0.210 HD
ENDBRANCH  11   2
TORSDOF 7
ENDMDL
MODEL 9
REMARK VINA RESULT:      -5.9      3.059      5.792
REMARK  Name = 75536071
REMARK  8 active torsions:
REMARK  status: ('A' for Active; 'I' for Inactive)
REMARK    1  A    between atoms: O_1  and  C_9
REMARK    2  A    between atoms: O_2  and  C_11
REMARK    3  A    between atoms: O_4  and  C_24
REMARK    4  A    between atoms: O_4  and  C_25
REMARK    5  A    between atoms: N_5  and  C_8
REMARK    6  A    between atoms: C_7  and  C_12
REMARK    7  A    between atoms: C_14  and  C_16
REMARK    8  A    between atoms: C_16  and  C_19
REMARK                            x       y       z     vdW  Elec       q    Type
REMARK                         _______ _______ _______ _____ _____    ______ ____
ROOT
ATOM      7  C   UNL     1      14.626   8.605  20.691  0.00  0.00    +0.046 C 
ATOM      8  C   UNL     1      14.786   7.539  19.584  0.00  0.00    +0.111 C 
ATOM      9  C   UNL     1      16.239   7.090  19.731  0.00  0.00    +0.164 C 
ATOM     10  C   UNL     1      15.724   8.294  21.740  0.00  0.00    +0.044 C 
ATOM     11  C   UNL     1      16.433   7.036  21.241  0.00  0.00    +0.145 C 
ENDROOT
BRANCH   7  12
ATOM      6  N   UNL     1      11.313   7.502  22.173  0.00  0.00    -0.263 NA
ATOM     12  C   UNL     1      13.223   8.666  21.255  0.00  0.00    -0.024 A 
ATOM     13  C   UNL     1      12.554   9.879  21.382  0.00  0.00    +0.007 A 
ATOM     15  C   UNL     1      12.565   7.517  21.662  0.00  0.00    +0.114 A 
ATOM     17  C   UNL     1      11.265   9.904  21.904  0.00  0.00    +0.020 A 
ATOM     18  C   UNL     1      10.694   8.699  22.281  0.00  0.00    +0.111 A 
ENDBRANCH   7  12
BRANCH   8   5
ATOM      3  O   UNL     1      12.289   7.435  18.154  0.00  0.00    -0.275 OA
ATOM      5  N   UNL     1      14.519   8.075  18.273  0.00  0.00    -0.309 N 
ATOM     14  C   UNL     1      13.275   7.977  17.660  0.00  0.00    +0.218 C 
ATOM     26  H   UNL     1      15.261   8.597  17.816  0.00  0.00    +0.149 HD
BRANCH  14  16
ATOM     16  C   UNL     1      13.273   8.630  16.292  0.00  0.00    +0.130 C 
BRANCH  16  19
ATOM     19  C   UNL     1      13.944   9.978  16.274  0.00  0.00    -0.038 A 
ATOM     20  C   UNL     1      14.865  10.286  15.273  0.00  0.00    +0.007 A 
ATOM     21  C   UNL     1      13.645  10.919  17.260  0.00  0.00    +0.007 A 
ATOM     22  C   UNL     1      15.487  11.534  15.257  0.00  0.00    +0.046 A 
ATOM     23  C   UNL     1      14.267  12.167  17.244  0.00  0.00    +0.046 A 
ATOM     24  C   UNL     1      15.188  12.475  16.243  0.00  0.00    +0.120 A 
BRANCH  24   4
ATOM      4  O   UNL     1      15.793  13.694  16.227  0.00  0.00    -0.495 OA
ATOM     25  C   UNL     1      16.889  13.862  15.330  0.00  0.00    +0.277 C 
ENDBRANCH  24   4
ENDBRANCH  16  19
ENDBRANCH  14  16
ENDBRANCH   8   5
BRANCH   9   1
ATOM      1  O   UNL     1      16.472   5.824  19.140  0.00  0.00    -0.387 OA
ATOM     27  H   UNL     1      16.770   5.224  19.845  0.00  0.00    +0.210 HD
ENDBRANCH   9   1
BRANCH  11   2
ATOM      2  O   UNL     1      15.788   5.896  21.800  0.00  0.00    -0.389 OA
ATOM     28  H   UNL     1      14.992   5.721  21.269  0.00  0.00    +0.210 HD
ENDBRANCH  11   2
TORSDOF 7
ENDMDL
MODEL 10
REMARK VINA RESULT:      -5.9     16.184     18.334
REMARK  Name = 75536071
REMARK  8 active torsions:
REMARK  status: ('A' for Active; 'I' for Inactive)
REMARK    1  A    between atoms: O_1  and  C_9
REMARK    2  A    between atoms: O_2  and  C_11
REMARK    3  A    between atoms: O_4  and  C_24
REMARK    4  A    between atoms: O_4  and  C_25
REMARK    5  A    between atoms: N_5  and  C_8
REMARK    6  A    between atoms: C_7  and  C_12
REMARK    7  A    between atoms: C_14  and  C_16
REMARK    8  A    between atoms: C_16  and  C_19
REMARK                            x       y       z     vdW  Elec       q    Type
REMARK                         _______ _______ _______ _____ _____    ______ ____
ROOT
ATOM      7  C   UNL     1      11.858   7.887   6.162  0.00  0.00    +0.046 C 
ATOM      8  C   UNL     1      12.543   6.953   5.138  0.00  0.00    +0.111 C 
ATOM      9  C   UNL     1      13.879   7.643   4.867  0.00  0.00    +0.164 C 
ATOM     10  C   UNL     1      13.004   8.677   6.845  0.00  0.00    +0.044 C 
ATOM     11  C   UNL     1      14.300   8.137   6.245  0.00  0.00    +0.145 C 
ENDROOT
BRANCH   7  12
ATOM      6  N   UNL     1      10.641   5.335   8.690  0.00  0.00    -0.263 NA
ATOM     12  C   UNL     1      10.950   7.148   7.122  0.00  0.00    -0.024 A 
ATOM     13  C   UNL     1       9.638   7.562   7.329  0.00  0.00    +0.007 A 
ATOM     15  C   UNL     1      11.399   6.040   7.821  0.00  0.00    +0.114 A 
ATOM     17  C   UNL     1       8.827   6.863   8.216  0.00  0.00    +0.020 A 
ATOM     18  C   UNL     1       9.371   5.766   8.866  0.00  0.00    +0.111 A 
ENDBRANCH   7  12
BRANCH   8   5
ATOM      3  O   UNL     1      10.643   4.867   4.567  0.00  0.00    -0.275 OA
ATOM      5  N   UNL     1      11.761   6.803   3.936  0.00  0.00    -0.309 N 
ATOM     14  C   UNL     1      10.864   5.757   3.750  0.00  0.00    +0.218 C 
ATOM     26  H   UNL     1      11.834   7.530   3.231  0.00  0.00    +0.149 HD
BRANCH  14  16
ATOM     16  C   UNL     1      10.175   5.847   2.402  0.00  0.00    +0.130 C 
BRANCH  16  19
ATOM     19  C   UNL     1      10.854   5.036   1.330  0.00  0.00    -0.038 A 
ATOM     20  C   UNL     1      11.995   4.294   1.634  0.00  0.00    +0.007 A 
ATOM     21  C   UNL     1      10.341   5.027   0.033  0.00  0.00    +0.007 A 
ATOM     22  C   UNL     1      12.624   3.543   0.641  0.00  0.00    +0.046 A 
ATOM     23  C   UNL     1      10.969   4.276  -0.960  0.00  0.00    +0.046 A 
ATOM     24  C   UNL     1      12.111   3.534  -0.657  0.00  0.00    +0.120 A 
BRANCH  24   4
ATOM      4  O   UNL     1      12.723   2.800  -1.626  0.00  0.00    -0.495 OA
ATOM     25  C   UNL     1      11.881   2.130  -2.562  0.00  0.00    +0.277 C 
ENDBRANCH  24   4
ENDBRANCH  16  19
ENDBRANCH  14  16
ENDBRANCH   8   5
BRANCH   9   1
ATOM      1  O   UNL     1      14.840   6.756   4.325  0.00  0.00    -0.387 OA
ATOM     27  H   UNL     1      14.967   6.998   3.392  0.00  0.00    +0.210 HD
ENDBRANCH   9   1
BRANCH  11   2
ATOM      2  O   UNL     1      14.763   7.060   7.054  0.00  0.00    -0.389 OA
ATOM     28  H   UNL     1      15.593   6.736   6.662  0.00  0.00    +0.210 HD
ENDBRANCH  11   2
TORSDOF 7
ENDMDL
