MODEL 1
REMARK VINA RESULT:      -6.3      0.000      0.000
REMARK  Name = 56774212
REMARK  9 active torsions:
REMARK  status: ('A' for Active; 'I' for Inactive)
REMARK    1  A    between atoms: S_1  and  N_6
REMARK    2  A    between atoms: S_1  and  C_18
REMARK    3  A    between atoms: N_6  and  C_11
REMARK    4  A    between atoms: N_8  and  C_20
REMARK    5  A    between atoms: C_9  and  C_14
REMARK    6  A    between atoms: C_9  and  C_15
REMARK    7  A    between atoms: C_10  and  C_13
REMARK    8  A    between atoms: C_13  and  C_16
REMARK    9  A    between atoms: C_19  and  C_20
REMARK                            x       y       z     vdW  Elec       q    Type
REMARK                         _______ _______ _______ _____ _____    ______ ____
ROOT
ATOM     13  C   UNL     1      18.286   7.491  20.936  0.00  0.00    +0.063 C 
ENDROOT
BRANCH  13  10
ATOM      9  C   UNL     1      15.662   7.621  20.820  0.00  0.00    -0.015 C 
ATOM     10  C   UNL     1      16.942   6.759  20.816  0.00  0.00    +0.004 C 
ATOM     11  C   UNL     1      15.098   6.653  19.760  0.00  0.00    +0.082 C 
ATOM     12  C   UNL     1      16.560   6.336  19.382  0.00  0.00    +0.025 C 
ATOM     14  C   UNL     1      15.892   9.043  20.358  0.00  0.00    +0.013 C 
ATOM     15  C   UNL     1      14.866   7.619  22.111  0.00  0.00    +0.013 C 
BRANCH  11   6
ATOM      6  N   UNL     1      14.252   7.238  18.662  0.00  0.00    -0.191 NA
ATOM     25  H   UNL     1      14.710   8.029  18.191  0.00  0.00    +0.148 HD
BRANCH   6   1
ATOM      1  S   UNL     1      12.546   7.329  18.694  0.00  0.00    +0.027 S 
ATOM      2  O   UNL     1      12.030   6.440  19.716  0.00  0.00    -0.158 OA
ATOM      3  O   UNL     1      12.056   7.267  17.330  0.00  0.00    -0.158 OA
ATOM     18  C   UNL     1      12.336   8.998  19.265  0.00  0.00    +0.214 C 
ENDBRANCH   6   1
ENDBRANCH  11   6
ENDBRANCH  13  10
BRANCH  13  16
ATOM      4  O   UNL     1      20.759   5.644  22.732  0.00  0.00    -0.358 OA
ATOM      7  N   UNL     1      19.770   6.618  22.651  0.00  0.00    -0.083 NA
ATOM     16  C   UNL     1      19.350   6.579  21.383  0.00  0.00    +0.084 A 
ATOM     17  C   UNL     1      20.030   5.610  20.625  0.00  0.00    +0.072 A 
ATOM     19  C   UNL     1      20.905   5.051  21.520  0.00  0.00    +0.151 A 
BRANCH  19  20
ATOM     20  C   UNL     1      21.941   3.964  21.423  0.00  0.00    +0.161 C 
BRANCH  20   8
ATOM      5  O   UNL     1      24.885   2.807  24.182  0.00  0.00    -0.377 OA
ATOM      8  N   UNL     1      22.837   3.963  22.578  0.00  0.00    -0.291 NA
ATOM     21  C   UNL     1      22.575   2.802  23.441  0.00  0.00    +0.113 C 
ATOM     22  C   UNL     1      24.242   3.963  22.148  0.00  0.00    +0.113 C 
ATOM     23  C   UNL     1      23.529   2.816  24.632  0.00  0.00    +0.175 C 
ATOM     24  C   UNL     1      25.158   3.949  23.369  0.00  0.00    +0.175 C 
ENDBRANCH  20   8
ENDBRANCH  19  20
ENDBRANCH  13  16
TORSDOF 6
ENDMDL
MODEL 2
REMARK VINA RESULT:      -6.2     28.126     30.215
REMARK  Name = 56774212
REMARK  9 active torsions:
REMARK  status: ('A' for Active; 'I' for Inactive)
REMARK    1  A    between atoms: S_1  and  N_6
REMARK    2  A    between atoms: S_1  and  C_18
REMARK    3  A    between atoms: N_6  and  C_11
REMARK    4  A    between atoms: N_8  and  C_20
REMARK    5  A    between atoms: C_9  and  C_14
REMARK    6  A    between atoms: C_9  and  C_15
REMARK    7  A    between atoms: C_10  and  C_13
REMARK    8  A    between atoms: C_13  and  C_16
REMARK    9  A    between atoms: C_19  and  C_20
REMARK                            x       y       z     vdW  Elec       q    Type
REMARK                         _______ _______ _______ _____ _____    ______ ____
ROOT
ATOM     13  C   UNL     1      -4.082 -10.420  17.071  0.00  0.00    +0.063 C 
ENDROOT
BRANCH  13  10
ATOM      9  C   UNL     1      -6.409 -11.247  17.974  0.00  0.00    -0.015 C 
ATOM     10  C   UNL     1      -5.529 -10.839  16.774  0.00  0.00    +0.004 C 
ATOM     11  C   UNL     1      -7.575 -10.526  17.267  0.00  0.00    +0.082 C 
ATOM     12  C   UNL     1      -6.510  -9.668  16.552  0.00  0.00    +0.025 C 
ATOM     14  C   UNL     1      -5.958 -10.644  19.285  0.00  0.00    +0.013 C 
ATOM     15  C   UNL     1      -6.647 -12.736  18.144  0.00  0.00    +0.013 C 
BRANCH  11   6
ATOM      6  N   UNL     1      -8.551  -9.771  18.128  0.00  0.00    -0.191 NA
ATOM     25  H   UNL     1      -8.105  -9.006  18.651  0.00  0.00    +0.148 HD
BRANCH   6   1
ATOM      1  S   UNL     1      -9.897 -10.471  18.915  0.00  0.00    +0.027 S 
ATOM      2  O   UNL     1     -11.026  -9.565  18.846  0.00  0.00    -0.158 OA
ATOM      3  O   UNL     1      -9.454 -11.022  20.182  0.00  0.00    -0.158 OA
ATOM     18  C   UNL     1     -10.220 -11.833  17.821  0.00  0.00    +0.214 C 
ENDBRANCH   6   1
ENDBRANCH  11   6
ENDBRANCH  13  10
BRANCH  13  16
ATOM      4  O   UNL     1      -1.382 -11.008  14.809  0.00  0.00    -0.358 OA
ATOM      7  N   UNL     1      -1.893 -10.793  16.084  0.00  0.00    -0.083 NA
ATOM     16  C   UNL     1      -3.211 -10.661  15.910  0.00  0.00    +0.084 A 
ATOM     17  C   UNL     1      -3.586 -10.782  14.561  0.00  0.00    +0.072 A 
ATOM     19  C   UNL     1      -2.400 -10.999  13.911  0.00  0.00    +0.151 A 
BRANCH  19  20
ATOM     20  C   UNL     1      -2.027 -11.218  12.469  0.00  0.00    +0.161 C 
BRANCH  20   8
ATOM      5  O   UNL     1      -4.113 -10.248   8.959  0.00  0.00    -0.377 OA
ATOM      8  N   UNL     1      -3.070 -10.749  11.560  0.00  0.00    -0.291 NA
ATOM     21  C   UNL     1      -2.581  -9.633  10.737  0.00  0.00    +0.113 C 
ATOM     22  C   UNL     1      -3.542 -11.840  10.698  0.00  0.00    +0.113 C 
ATOM     23  C   UNL     1      -3.683  -9.168   9.789  0.00  0.00    +0.175 C 
ATOM     24  C   UNL     1      -4.620 -11.323   9.749  0.00  0.00    +0.175 C 
ENDBRANCH  20   8
ENDBRANCH  19  20
ENDBRANCH  13  16
TORSDOF 6
ENDMDL
MODEL 3
REMARK VINA RESULT:      -6.1     27.466     30.512
REMARK  Name = 56774212
REMARK  9 active torsions:
REMARK  status: ('A' for Active; 'I' for Inactive)
REMARK    1  A    between atoms: S_1  and  N_6
REMARK    2  A    between atoms: S_1  and  C_18
REMARK    3  A    between atoms: N_6  and  C_11
REMARK    4  A    between atoms: N_8  and  C_20
REMARK    5  A    between atoms: C_9  and  C_14
REMARK    6  A    between atoms: C_9  and  C_15
REMARK    7  A    between atoms: C_10  and  C_13
REMARK    8  A    between atoms: C_13  and  C_16
REMARK    9  A    between atoms: C_19  and  C_20
REMARK                            x       y       z     vdW  Elec       q    Type
REMARK                         _______ _______ _______ _____ _____    ______ ____
ROOT
ATOM     13  C   UNL     1      -1.900 -11.040  12.922  0.00  0.00    +0.063 C 
ENDROOT
BRANCH  13  10
ATOM      9  C   UNL     1      -3.603 -11.190  14.921  0.00  0.00    -0.015 C 
ATOM     10  C   UNL     1      -2.521 -10.389  14.166  0.00  0.00    +0.004 C 
ATOM     11  C   UNL     1      -2.986 -10.648  16.226  0.00  0.00    +0.082 C 
ATOM     12  C   UNL     1      -1.664 -10.489  15.446  0.00  0.00    +0.025 C 
ATOM     14  C   UNL     1      -3.500 -12.685  14.714  0.00  0.00    +0.013 C 
ATOM     15  C   UNL     1      -5.034 -10.736  14.706  0.00  0.00    +0.013 C 
BRANCH  11   6
ATOM      6  N   UNL     1      -2.937 -11.575  17.410  0.00  0.00    -0.191 NA
ATOM     25  H   UNL     1      -2.464 -12.462  17.198  0.00  0.00    +0.148 HD
BRANCH   6   1
ATOM      1  S   UNL     1      -4.158 -11.696  18.600  0.00  0.00    +0.027 S 
ATOM      2  O   UNL     1      -5.020 -10.532  18.534  0.00  0.00    -0.158 OA
ATOM      3  O   UNL     1      -3.544 -12.104  19.850  0.00  0.00    -0.158 OA
ATOM     18  C   UNL     1      -5.067 -13.086  17.970  0.00  0.00    +0.214 C 
ENDBRANCH   6   1
ENDBRANCH  11   6
ENDBRANCH  13  10
BRANCH  13  16
ATOM      4  O   UNL     1      -2.768  -9.201   9.987  0.00  0.00    -0.358 OA
ATOM      7  N   UNL     1      -1.976  -9.426  11.107  0.00  0.00    -0.083 NA
ATOM     16  C   UNL     1      -2.500 -10.508  11.689  0.00  0.00    +0.084 A 
ATOM     17  C   UNL     1      -3.613 -11.005  10.988  0.00  0.00    +0.072 A 
ATOM     19  C   UNL     1      -3.739 -10.148   9.927  0.00  0.00    +0.151 A 
BRANCH  19  20
ATOM     20  C   UNL     1      -4.696 -10.058   8.768  0.00  0.00    +0.161 C 
BRANCH  20   8
ATOM      5  O   UNL     1      -8.835  -9.363   8.806  0.00  0.00    -0.377 OA
ATOM      8  N   UNL     1      -6.084  -9.972   9.215  0.00  0.00    -0.291 NA
ATOM     21  C   UNL     1      -6.565  -8.584   9.162  0.00  0.00    +0.113 C 
ATOM     22  C   UNL     1      -6.950 -10.836   8.400  0.00  0.00    +0.113 C 
ATOM     23  C   UNL     1      -8.019  -8.522   9.622  0.00  0.00    +0.175 C 
ATOM     24  C   UNL     1      -8.395 -10.720   8.877  0.00  0.00    +0.175 C 
ENDBRANCH  20   8
ENDBRANCH  19  20
ENDBRANCH  13  16
TORSDOF 6
ENDMDL
MODEL 4
REMARK VINA RESULT:      -5.9     17.140     20.711
REMARK  Name = 56774212
REMARK  9 active torsions:
REMARK  status: ('A' for Active; 'I' for Inactive)
REMARK    1  A    between atoms: S_1  and  N_6
REMARK    2  A    between atoms: S_1  and  C_18
REMARK    3  A    between atoms: N_6  and  C_11
REMARK    4  A    between atoms: N_8  and  C_20
REMARK    5  A    between atoms: C_9  and  C_14
REMARK    6  A    between atoms: C_9  and  C_15
REMARK    7  A    between atoms: C_10  and  C_13
REMARK    8  A    between atoms: C_13  and  C_16
REMARK    9  A    between atoms: C_19  and  C_20
REMARK                            x       y       z     vdW  Elec       q    Type
REMARK                         _______ _______ _______ _____ _____    ______ ____
ROOT
ATOM     13  C   UNL     1       9.761   6.287   2.093  0.00  0.00    +0.063 C 
ENDROOT
BRANCH  13  10
ATOM      9  C   UNL     1      10.070   6.808   4.652  0.00  0.00    -0.015 C 
ATOM     10  C   UNL     1      10.643   6.216   3.347  0.00  0.00    +0.004 C 
ATOM     11  C   UNL     1      10.732   5.626   5.389  0.00  0.00    +0.082 C 
ATOM     12  C   UNL     1      10.645   4.847   4.060  0.00  0.00    +0.025 C 
ATOM     14  C   UNL     1       8.558   6.843   4.685  0.00  0.00    +0.013 C 
ATOM     15  C   UNL     1      10.627   8.156   5.068  0.00  0.00    +0.013 C 
BRANCH  11   6
ATOM      6  N   UNL     1       9.986   5.023   6.548  0.00  0.00    -0.191 NA
ATOM     25  H   UNL     1       9.055   4.677   6.282  0.00  0.00    +0.148 HD
BRANCH   6   1
ATOM      1  S   UNL     1      10.098   5.568   8.165  0.00  0.00    +0.027 S 
ATOM      2  O   UNL     1       9.175   6.666   8.373  0.00  0.00    -0.158 OA
ATOM      3  O   UNL     1      11.500   5.691   8.513  0.00  0.00    -0.158 OA
ATOM     18  C   UNL     1       9.456   4.146   9.015  0.00  0.00    +0.214 C 
ENDBRANCH   6   1
ENDBRANCH  11   6
ENDBRANCH  13  10
BRANCH  13  16
ATOM      4  O   UNL     1      10.596   3.993  -0.514  0.00  0.00    -0.358 OA
ATOM      7  N   UNL     1       9.782   4.430   0.525  0.00  0.00    -0.083 NA
ATOM     16  C   UNL     1      10.365   5.545   0.975  0.00  0.00    +0.084 A 
ATOM     17  C   UNL     1      11.538   5.857   0.267  0.00  0.00    +0.072 A 
ATOM     19  C   UNL     1      11.638   4.851  -0.658  0.00  0.00    +0.151 A 
BRANCH  19  20
ATOM     20  C   UNL     1      12.628   4.530  -1.745  0.00  0.00    +0.161 C 
BRANCH  20   8
ATOM      5  O   UNL     1      16.696   3.925  -0.906  0.00  0.00    -0.377 OA
ATOM      8  N   UNL     1      14.005   4.760  -1.312  0.00  0.00    -0.291 NA
ATOM     21  C   UNL     1      14.370   3.842  -0.223  0.00  0.00    +0.113 C 
ATOM     22  C   UNL     1      14.939   4.604  -2.435  0.00  0.00    +0.113 C 
ATOM     23  C   UNL     1      15.813   4.093   0.204  0.00  0.00    +0.175 C 
ATOM     24  C   UNL     1      16.369   4.836  -1.956  0.00  0.00    +0.175 C 
ENDBRANCH  20   8
ENDBRANCH  19  20
ENDBRANCH  13  16
TORSDOF 6
ENDMDL
MODEL 5
REMARK VINA RESULT:      -5.7     32.466     34.218
REMARK  Name = 56774212
REMARK  9 active torsions:
REMARK  status: ('A' for Active; 'I' for Inactive)
REMARK    1  A    between atoms: S_1  and  N_6
REMARK    2  A    between atoms: S_1  and  C_18
REMARK    3  A    between atoms: N_6  and  C_11
REMARK    4  A    between atoms: N_8  and  C_20
REMARK    5  A    between atoms: C_9  and  C_14
REMARK    6  A    between atoms: C_9  and  C_15
REMARK    7  A    between atoms: C_10  and  C_13
REMARK    8  A    between atoms: C_13  and  C_16
REMARK    9  A    between atoms: C_19  and  C_20
REMARK                            x       y       z     vdW  Elec       q    Type
REMARK                         _______ _______ _______ _____ _____    ______ ____
ROOT
ATOM     13  C   UNL     1     -14.139   5.940  32.424  0.00  0.00    +0.063 C 
ENDROOT
BRANCH  13  10
ATOM      9  C   UNL     1     -14.798   3.417  32.087  0.00  0.00    -0.015 C 
ATOM     10  C   UNL     1     -13.860   4.461  32.728  0.00  0.00    +0.004 C 
ATOM     11  C   UNL     1     -13.550   2.533  31.886  0.00  0.00    +0.082 C 
ATOM     12  C   UNL     1     -12.720   3.833  31.899  0.00  0.00    +0.025 C 
ATOM     14  C   UNL     1     -15.471   3.906  30.824  0.00  0.00    +0.013 C 
ATOM     15  C   UNL     1     -15.826   2.793  33.012  0.00  0.00    +0.013 C 
BRANCH  11   6
ATOM      6  N   UNL     1     -13.469   1.720  30.622  0.00  0.00    -0.191 NA
ATOM     25  H   UNL     1     -13.428   2.306  29.778  0.00  0.00    +0.148 HD
BRANCH   6   1
ATOM      1  S   UNL     1     -14.226   0.205  30.391  0.00  0.00    +0.027 S 
ATOM      2  O   UNL     1     -14.855  -0.218  31.626  0.00  0.00    -0.158 OA
ATOM      3  O   UNL     1     -13.307  -0.664  29.680  0.00  0.00    -0.158 OA
ATOM     18  C   UNL     1     -15.510   0.672  29.255  0.00  0.00    +0.214 C 
ENDBRANCH   6   1
ENDBRANCH  11   6
ENDBRANCH  13  10
BRANCH  13  16
ATOM      4  O   UNL     1     -12.381   8.476  34.222  0.00  0.00    -0.358 OA
ATOM      7  N   UNL     1     -12.814   7.881  33.042  0.00  0.00    -0.083 NA
ATOM     16  C   UNL     1     -13.519   6.816  33.431  0.00  0.00    +0.084 A 
ATOM     17  C   UNL     1     -13.565   6.688  34.830  0.00  0.00    +0.072 A 
ATOM     19  C   UNL     1     -12.834   7.756  35.280  0.00  0.00    +0.151 A 
BRANCH  19  20
ATOM     20  C   UNL     1     -12.457   8.259  36.647  0.00  0.00    +0.161 C 
BRANCH  20   8
ATOM      5  O   UNL     1      -8.765   9.698  38.032  0.00  0.00    -0.377 OA
ATOM      8  N   UNL     1     -11.099   8.799  36.672  0.00  0.00    -0.291 NA
ATOM     21  C   UNL     1     -11.066  10.093  37.370  0.00  0.00    +0.113 C 
ATOM     22  C   UNL     1     -10.174   7.857  37.315  0.00  0.00    +0.113 C 
ATOM     23  C   UNL     1      -9.638  10.631  37.394  0.00  0.00    +0.175 C 
ATOM     24  C   UNL     1      -8.767   8.448  37.341  0.00  0.00    +0.175 C 
ENDBRANCH  20   8
ENDBRANCH  19  20
ENDBRANCH  13  16
TORSDOF 6
ENDMDL
MODEL 6
REMARK VINA RESULT:      -5.6     28.165     30.288
REMARK  Name = 56774212
REMARK  9 active torsions:
REMARK  status: ('A' for Active; 'I' for Inactive)
REMARK    1  A    between atoms: S_1  and  N_6
REMARK    2  A    between atoms: S_1  and  C_18
REMARK    3  A    between atoms: N_6  and  C_11
REMARK    4  A    between atoms: N_8  and  C_20
REMARK    5  A    between atoms: C_9  and  C_14
REMARK    6  A    between atoms: C_9  and  C_15
REMARK    7  A    between atoms: C_10  and  C_13
REMARK    8  A    between atoms: C_13  and  C_16
REMARK    9  A    between atoms: C_19  and  C_20
REMARK                            x       y       z     vdW  Elec       q    Type
REMARK                         _______ _______ _______ _____ _____    ______ ____
ROOT
ATOM     13  C   UNL     1      -4.050 -10.371  17.112  0.00  0.00    +0.063 C 
ENDROOT
BRANCH  13  10
ATOM      9  C   UNL     1      -6.375 -11.216  18.005  0.00  0.00    -0.015 C 
ATOM     10  C   UNL     1      -5.492 -10.802  16.809  0.00  0.00    +0.004 C 
ATOM     11  C   UNL     1      -7.543 -10.506  17.292  0.00  0.00    +0.082 C 
ATOM     12  C   UNL     1      -6.482  -9.640  16.580  0.00  0.00    +0.025 C 
ATOM     14  C   UNL     1      -5.935 -10.607  19.318  0.00  0.00    +0.013 C 
ATOM     15  C   UNL     1      -6.601 -12.706  18.178  0.00  0.00    +0.013 C 
BRANCH  11   6
ATOM      6  N   UNL     1      -8.529  -9.757  18.146  0.00  0.00    -0.191 NA
ATOM     25  H   UNL     1      -8.094  -8.983  18.664  0.00  0.00    +0.148 HD
BRANCH   6   1
ATOM      1  S   UNL     1      -9.867 -10.469  18.937  0.00  0.00    +0.027 S 
ATOM      2  O   UNL     1     -10.998  -9.565  18.890  0.00  0.00    -0.158 OA
ATOM      3  O   UNL     1      -9.411 -11.035  20.193  0.00  0.00    -0.158 OA
ATOM     18  C   UNL     1     -10.198 -11.819  17.830  0.00  0.00    +0.214 C 
ENDBRANCH   6   1
ENDBRANCH  11   6
ENDBRANCH  13  10
BRANCH  13  16
ATOM      4  O   UNL     1      -1.204 -11.433  15.235  0.00  0.00    -0.358 OA
ATOM      7  N   UNL     1      -1.803 -10.688  16.245  0.00  0.00    -0.083 NA
ATOM     16  C   UNL     1      -3.102 -10.989  16.173  0.00  0.00    +0.084 A 
ATOM     17  C   UNL     1      -3.381 -11.908  15.147  0.00  0.00    +0.072 A 
ATOM     19  C   UNL     1      -2.154 -12.155  14.588  0.00  0.00    +0.151 A 
BRANCH  19  20
ATOM     20  C   UNL     1      -1.682 -13.027  13.456  0.00  0.00    +0.161 C 
BRANCH  20   8
ATOM      5  O   UNL     1      -2.035 -17.180  12.960  0.00  0.00    -0.377 OA
ATOM      8  N   UNL     1      -1.887 -14.446  13.739  0.00  0.00    -0.291 NA
ATOM     21  C   UNL     1      -3.033 -14.968  12.981  0.00  0.00    +0.113 C 
ATOM     22  C   UNL     1      -0.680 -15.222  13.424  0.00  0.00    +0.113 C 
ATOM     23  C   UNL     1      -3.221 -16.452  13.284  0.00  0.00    +0.175 C 
ATOM     24  C   UNL     1      -0.923 -16.700  13.716  0.00  0.00    +0.175 C 
ENDBRANCH  20   8
ENDBRANCH  19  20
ENDBRANCH  13  16
TORSDOF 6
ENDMDL
MODEL 7
REMARK VINA RESULT:      -5.6     28.665     30.330
REMARK  Name = 56774212
REMARK  9 active torsions:
REMARK  status: ('A' for Active; 'I' for Inactive)
REMARK    1  A    between atoms: S_1  and  N_6
REMARK    2  A    between atoms: S_1  and  C_18
REMARK    3  A    between atoms: N_6  and  C_11
REMARK    4  A    between atoms: N_8  and  C_20
REMARK    5  A    between atoms: C_9  and  C_14
REMARK    6  A    between atoms: C_9  and  C_15
REMARK    7  A    between atoms: C_10  and  C_13
REMARK    8  A    between atoms: C_13  and  C_16
REMARK    9  A    between atoms: C_19  and  C_20
REMARK                            x       y       z     vdW  Elec       q    Type
REMARK                         _______ _______ _______ _____ _____    ______ ____
ROOT
ATOM     13  C   UNL     1      -4.253 -11.720  17.687  0.00  0.00    +0.063 C 
ENDROOT
BRANCH  13  10
ATOM      9  C   UNL     1      -6.642 -10.637  17.500  0.00  0.00    -0.015 C 
ATOM     10  C   UNL     1      -5.227 -10.611  18.113  0.00  0.00    +0.004 C 
ATOM     11  C   UNL     1      -7.166 -10.189  18.879  0.00  0.00    +0.082 C 
ATOM     12  C   UNL     1      -5.901 -10.833  19.484  0.00  0.00    +0.025 C 
ATOM     14  C   UNL     1      -7.077 -12.012  17.044  0.00  0.00    +0.013 C 
ATOM     15  C   UNL     1      -6.908  -9.622  16.404  0.00  0.00    +0.013 C 
BRANCH  11   6
ATOM      6  N   UNL     1      -8.476 -10.762  19.346  0.00  0.00    -0.191 NA
ATOM     25  H   UNL     1      -8.387 -11.731  19.680  0.00  0.00    +0.148 HD
BRANCH   6   1
ATOM      1  S   UNL     1      -9.998 -10.392  18.662  0.00  0.00    +0.027 S 
ATOM      2  O   UNL     1     -10.498 -11.543  17.936  0.00  0.00    -0.158 OA
ATOM      3  O   UNL     1      -9.915  -9.087  18.033  0.00  0.00    -0.158 OA
ATOM     18  C   UNL     1     -10.967 -10.214  20.140  0.00  0.00    +0.214 C 
ENDBRANCH   6   1
ENDBRANCH  11   6
ENDBRANCH  13  10
BRANCH  13  16
ATOM      4  O   UNL     1      -2.303 -10.481  14.964  0.00  0.00    -0.358 OA
ATOM      7  N   UNL     1      -2.646 -10.525  16.311  0.00  0.00    -0.083 NA
ATOM     16  C   UNL     1      -3.638 -11.416  16.386  0.00  0.00    +0.084 A 
ATOM     17  C   UNL     1      -3.962 -11.961  15.131  0.00  0.00    +0.072 A 
ATOM     19  C   UNL     1      -3.094 -11.340  14.272  0.00  0.00    +0.151 A 
BRANCH  19  20
ATOM     20  C   UNL     1      -2.860 -11.423  12.788  0.00  0.00    +0.161 C 
BRANCH  20   8
ATOM      5  O   UNL     1      -5.051  -9.078  10.081  0.00  0.00    -0.377 OA
ATOM      8  N   UNL     1      -3.414 -10.267  12.085  0.00  0.00    -0.291 NA
ATOM     21  C   UNL     1      -3.029 -10.286  10.666  0.00  0.00    +0.113 C 
ATOM     22  C   UNL     1      -4.878 -10.234  12.208  0.00  0.00    +0.113 C 
ATOM     23  C   UNL     1      -3.628  -9.078   9.951  0.00  0.00    +0.175 C 
ATOM     24  C   UNL     1      -5.434  -9.027  11.456  0.00  0.00    +0.175 C 
ENDBRANCH  20   8
ENDBRANCH  19  20
ENDBRANCH  13  16
TORSDOF 6
ENDMDL
MODEL 8
REMARK VINA RESULT:      -5.6     29.929     32.834
REMARK  Name = 56774212
REMARK  9 active torsions:
REMARK  status: ('A' for Active; 'I' for Inactive)
REMARK    1  A    between atoms: S_1  and  N_6
REMARK    2  A    between atoms: S_1  and  C_18
REMARK    3  A    between atoms: N_6  and  C_11
REMARK    4  A    between atoms: N_8  and  C_20
REMARK    5  A    between atoms: C_9  and  C_14
REMARK    6  A    between atoms: C_9  and  C_15
REMARK    7  A    between atoms: C_10  and  C_13
REMARK    8  A    between atoms: C_13  and  C_16
REMARK    9  A    between atoms: C_19  and  C_20
REMARK                            x       y       z     vdW  Elec       q    Type
REMARK                         _______ _______ _______ _____ _____    ______ ____
ROOT
ATOM     13  C   UNL     1     -14.605   6.633  21.152  0.00  0.00    +0.063 C 
ENDROOT
BRANCH  13  10
ATOM      9  C   UNL     1     -15.965   5.454  23.070  0.00  0.00    -0.015 C 
ATOM     10  C   UNL     1     -14.672   6.161  22.612  0.00  0.00    +0.004 C 
ATOM     11  C   UNL     1     -15.067   4.514  23.899  0.00  0.00    +0.082 C 
ATOM     12  C   UNL     1     -13.937   4.835  22.898  0.00  0.00    +0.025 C 
ATOM     14  C   UNL     1     -16.731   4.806  21.938  0.00  0.00    +0.013 C 
ATOM     15  C   UNL     1     -16.907   6.283  23.923  0.00  0.00    +0.013 C 
BRANCH  11   6
ATOM      6  N   UNL     1     -15.468   3.067  23.988  0.00  0.00    -0.191 NA
ATOM     25  H   UNL     1     -15.472   2.601  23.071  0.00  0.00    +0.148 HD
BRANCH   6   1
ATOM      1  S   UNL     1     -16.605   2.440  25.100  0.00  0.00    +0.027 S 
ATOM      2  O   UNL     1     -16.296   1.052  25.381  0.00  0.00    -0.158 OA
ATOM      3  O   UNL     1     -17.933   2.843  24.677  0.00  0.00    -0.158 OA
ATOM     18  C   UNL     1     -16.188   3.395  26.539  0.00  0.00    +0.214 C 
ENDBRANCH   6   1
ENDBRANCH  11   6
ENDBRANCH  13  10
BRANCH  13  16
ATOM      4  O   UNL     1     -12.358   9.402  21.329  0.00  0.00    -0.358 OA
ATOM      7  N   UNL     1     -13.460   8.683  21.777  0.00  0.00    -0.083 NA
ATOM     16  C   UNL     1     -13.537   7.626  20.963  0.00  0.00    +0.084 A 
ATOM     17  C   UNL     1     -12.520   7.625  19.992  0.00  0.00    +0.072 A 
ATOM     19  C   UNL     1     -11.807   8.762  20.266  0.00  0.00    +0.151 A 
BRANCH  19  20
ATOM     20  C   UNL     1     -10.594   9.405  19.648  0.00  0.00    +0.161 C 
BRANCH  20   8
ATOM      5  O   UNL     1     -10.134  11.280  15.921  0.00  0.00    -0.377 OA
ATOM      8  N   UNL     1     -10.892   9.984  18.340  0.00  0.00    -0.291 NA
ATOM     21  C   UNL     1     -10.542  11.411  18.309  0.00  0.00    +0.113 C 
ATOM     22  C   UNL     1     -10.176   9.267  17.276  0.00  0.00    +0.113 C 
ATOM     23  C   UNL     1     -10.851  11.991  16.932  0.00  0.00    +0.175 C 
ATOM     24  C   UNL     1     -10.493   9.897  15.923  0.00  0.00    +0.175 C 
ENDBRANCH  20   8
ENDBRANCH  19  20
ENDBRANCH  13  16
TORSDOF 6
ENDMDL
MODEL 9
REMARK VINA RESULT:      -5.6     27.469     30.661
REMARK  Name = 56774212
REMARK  9 active torsions:
REMARK  status: ('A' for Active; 'I' for Inactive)
REMARK    1  A    between atoms: S_1  and  N_6
REMARK    2  A    between atoms: S_1  and  C_18
REMARK    3  A    between atoms: N_6  and  C_11
REMARK    4  A    between atoms: N_8  and  C_20
REMARK    5  A    between atoms: C_9  and  C_14
REMARK    6  A    between atoms: C_9  and  C_15
REMARK    7  A    between atoms: C_10  and  C_13
REMARK    8  A    between atoms: C_13  and  C_16
REMARK    9  A    between atoms: C_19  and  C_20
REMARK                            x       y       z     vdW  Elec       q    Type
REMARK                         _______ _______ _______ _____ _____    ______ ____
ROOT
ATOM     13  C   UNL     1     -10.916   8.074  18.226  0.00  0.00    +0.063 C 
ENDROOT
BRANCH  13  10
ATOM      9  C   UNL     1     -12.867   8.549  19.925  0.00  0.00    -0.015 C 
ATOM     10  C   UNL     1     -11.364   8.302  19.677  0.00  0.00    +0.004 C 
ATOM     11  C   UNL     1     -12.719   7.699  21.202  0.00  0.00    +0.082 C 
ATOM     12  C   UNL     1     -11.516   7.016  20.517  0.00  0.00    +0.025 C 
ATOM     14  C   UNL     1     -13.758   7.972  18.848  0.00  0.00    +0.013 C 
ATOM     15  C   UNL     1     -13.264   9.986  20.209  0.00  0.00    +0.013 C 
BRANCH  11   6
ATOM      6  N   UNL     1     -13.861   6.791  21.571  0.00  0.00    -0.191 NA
ATOM     25  H   UNL     1     -14.169   6.205  20.784  0.00  0.00    +0.148 HD
BRANCH   6   1
ATOM      1  S   UNL     1     -15.099   7.189  22.680  0.00  0.00    +0.027 S 
ATOM      2  O   UNL     1     -14.770   8.430  23.353  0.00  0.00    -0.158 OA
ATOM      3  O   UNL     1     -15.445   5.998  23.431  0.00  0.00    -0.158 OA
ATOM     18  C   UNL     1     -16.431   7.517  21.550  0.00  0.00    +0.214 C 
ENDBRANCH   6   1
ENDBRANCH  11   6
ENDBRANCH  13  10
BRANCH  13  16
ATOM      4  O   UNL     1     -10.089  10.736  15.994  0.00  0.00    -0.358 OA
ATOM      7  N   UNL     1     -10.497   9.433  16.256  0.00  0.00    -0.083 NA
ATOM     16  C   UNL     1     -10.520   9.339  17.588  0.00  0.00    +0.084 A 
ATOM     17  C   UNL     1     -10.140  10.538  18.214  0.00  0.00    +0.072 A 
ATOM     19  C   UNL     1      -9.879  11.384  17.168  0.00  0.00    +0.151 A 
BRANCH  19  20
ATOM     20  C   UNL     1      -9.429  12.817  17.074  0.00  0.00    +0.161 C 
BRANCH  20   8
ATOM      5  O   UNL     1      -6.550  14.590  14.587  0.00  0.00    -0.377 OA
ATOM      8  N   UNL     1      -8.389  12.995  16.063  0.00  0.00    -0.291 NA
ATOM     21  C   UNL     1      -8.841  13.908  15.004  0.00  0.00    +0.113 C 
ATOM     22  C   UNL     1      -7.151  13.503  16.671  0.00  0.00    +0.113 C 
ATOM     23  C   UNL     1      -7.735  14.088  13.968  0.00  0.00    +0.175 C 
ATOM     24  C   UNL     1      -6.085  13.693  15.596  0.00  0.00    +0.175 C 
ENDBRANCH  20   8
ENDBRANCH  19  20
ENDBRANCH  13  16
TORSDOF 6
ENDMDL
MODEL 10
REMARK VINA RESULT:      -5.5     18.008     21.725
REMARK  Name = 56774212
REMARK  9 active torsions:
REMARK  status: ('A' for Active; 'I' for Inactive)
REMARK    1  A    between atoms: S_1  and  N_6
REMARK    2  A    between atoms: S_1  and  C_18
REMARK    3  A    between atoms: N_6  and  C_11
REMARK    4  A    between atoms: N_8  and  C_20
REMARK    5  A    between atoms: C_9  and  C_14
REMARK    6  A    between atoms: C_9  and  C_15
REMARK    7  A    between atoms: C_10  and  C_13
REMARK    8  A    between atoms: C_13  and  C_16
REMARK    9  A    between atoms: C_19  and  C_20
REMARK                            x       y       z     vdW  Elec       q    Type
REMARK                         _______ _______ _______ _____ _____    ______ ____
ROOT
ATOM     13  C   UNL     1      10.135   6.349   1.929  0.00  0.00    +0.063 C 
ENDROOT
BRANCH  13  10
ATOM      9  C   UNL     1      10.257   6.816   4.514  0.00  0.00    -0.015 C 
ATOM     10  C   UNL     1      10.884   6.176   3.258  0.00  0.00    +0.004 C 
ATOM     11  C   UNL     1      10.720   5.566   5.289  0.00  0.00    +0.082 C 
ATOM     12  C   UNL     1      10.676   4.809   3.945  0.00  0.00    +0.025 C 
ATOM     14  C   UNL     1       8.761   7.011   4.409  0.00  0.00    +0.013 C 
ATOM     15  C   UNL     1      10.911   8.095   5.003  0.00  0.00    +0.013 C 
BRANCH  11   6
ATOM      6  N   UNL     1       9.810   5.037   6.365  0.00  0.00    -0.191 NA
ATOM     25  H   UNL     1       8.831   4.975   6.058  0.00  0.00    +0.148 HD
BRANCH   6   1
ATOM      1  S   UNL     1      10.007   5.335   8.037  0.00  0.00    +0.027 S 
ATOM      2  O   UNL     1      11.381   5.710   8.306  0.00  0.00    -0.158 OA
ATOM      3  O   UNL     1       9.364   4.263   8.774  0.00  0.00    -0.158 OA
ATOM     18  C   UNL     1       8.999   6.787   8.212  0.00  0.00    +0.214 C 
ENDBRANCH   6   1
ENDBRANCH  11   6
ENDBRANCH  13  10
BRANCH  13  16
ATOM      4  O   UNL     1      10.449   3.786  -0.537  0.00  0.00    -0.358 OA
ATOM      7  N   UNL     1       9.699   4.574   0.329  0.00  0.00    -0.083 NA
ATOM     16  C   UNL     1      10.588   5.368   0.931  0.00  0.00    +0.084 A 
ATOM     17  C   UNL     1      11.901   5.129   0.491  0.00  0.00    +0.072 A 
ATOM     19  C   UNL     1      11.759   4.127  -0.431  0.00  0.00    +0.151 A 
BRANCH  19  20
ATOM     20  C   UNL     1      12.724   3.369  -1.304  0.00  0.00    +0.161 C 
BRANCH  20   8
ATOM      5  O   UNL     1      14.433   4.430  -4.988  0.00  0.00    -0.377 OA
ATOM      8  N   UNL     1      13.017   4.088  -2.542  0.00  0.00    -0.291 NA
ATOM     21  C   UNL     1      14.416   4.540  -2.564  0.00  0.00    +0.113 C 
ATOM     22  C   UNL     1      12.742   3.246  -3.713  0.00  0.00    +0.113 C 
ATOM     23  C   UNL     1      14.702   5.277  -3.869  0.00  0.00    +0.175 C 
ATOM     24  C   UNL     1      13.068   4.013  -4.992  0.00  0.00    +0.175 C 
ENDBRANCH  20   8
ENDBRANCH  19  20
ENDBRANCH  13  16
TORSDOF 6
ENDMDL
