MODEL 1
REMARK VINA RESULT:      -7.1      0.000      0.000
REMARK  Name = 51137004
REMARK  3 active torsions:
REMARK  status: ('A' for Active; 'I' for Inactive)
REMARK    1  A    between atoms: C_6  and  C_10
REMARK    2  A    between atoms: C_11  and  C_14
REMARK    3  A    between atoms: C_17  and  C_21
REMARK                            x       y       z     vdW  Elec       q    Type
REMARK                         _______ _______ _______ _____ _____    ______ ____
ROOT
ATOM      1  O   UNL     1      10.508   9.341  22.757  0.00  0.00    -0.270 OA
ATOM      2  N   UNL     1      11.667   9.647  20.767  0.00  0.00    -0.297 N 
ATOM      6  C   UNL     1      13.037   9.337  18.846  0.00  0.00    +0.074 C 
ATOM      7  C   UNL     1      11.788   8.450  18.736  0.00  0.00    +0.032 C 
ATOM      8  C   UNL     1      12.607  10.364  19.903  0.00  0.00    +0.119 C 
ATOM      9  C   UNL     1      11.257   8.388  20.163  0.00  0.00    +0.109 C 
ATOM     11  C   UNL     1      11.245  10.012  22.035  0.00  0.00    +0.247 C 
ENDROOT
BRANCH   6  10
ATOM      3  N   UNL     1      15.143   8.894  20.150  0.00  0.00    -0.342 N 
ATOM      4  N   UNL     1      14.666   7.417  18.559  0.00  0.00    -0.232 NA
ATOM     10  C   UNL     1      14.279   8.521  19.159  0.00  0.00    +0.113 A 
ATOM     12  C   UNL     1      16.156   7.970  20.193  0.00  0.00    +0.066 A 
ATOM     13  C   UNL     1      15.834   7.059  19.191  0.00  0.00    +0.089 A 
ATOM     15  C   UNL     1      17.289   7.856  20.998  0.00  0.00    +0.031 A 
ATOM     16  C   UNL     1      16.685   5.963  18.964  0.00  0.00    +0.030 A 
ATOM     17  C   UNL     1      18.124   6.760  20.759  0.00  0.00    -0.048 A 
ATOM     18  C   UNL     1      17.830   5.828  19.760  0.00  0.00    +0.005 A 
ATOM     21  C   UNL     1      19.354   6.582  21.588  0.00  0.00    +0.044 C 
ATOM     24  H   UNL     1      15.054   9.707  20.746  0.00  0.00    +0.167 HD
ENDBRANCH   6  10
BRANCH  11  14
ATOM      5  N   UNL     1      12.639  13.738  23.576  0.00  0.00    -0.263 NA
ATOM     14  C   UNL     1      11.725  11.296  22.568  0.00  0.00    +0.040 A 
ATOM     19  C   UNL     1      11.001  12.462  22.339  0.00  0.00    +0.033 A 
ATOM     20  C   UNL     1      12.905  11.351  23.301  0.00  0.00    +0.033 A 
ATOM     22  C   UNL     1      11.496  13.646  22.860  0.00  0.00    +0.111 A 
ATOM     23  C   UNL     1      13.315  12.585  23.779  0.00  0.00    +0.111 A 
ENDBRANCH  11  14
TORSDOF 2
ENDMDL
MODEL 2
REMARK VINA RESULT:      -6.7      1.190      2.084
REMARK  Name = 51137004
REMARK  3 active torsions:
REMARK  status: ('A' for Active; 'I' for Inactive)
REMARK    1  A    between atoms: C_6  and  C_10
REMARK    2  A    between atoms: C_11  and  C_14
REMARK    3  A    between atoms: C_17  and  C_21
REMARK                            x       y       z     vdW  Elec       q    Type
REMARK                         _______ _______ _______ _____ _____    ______ ____
ROOT
ATOM      1  O   UNL     1      11.424   8.826  22.937  0.00  0.00    -0.270 OA
ATOM      2  N   UNL     1      12.558   8.761  20.912  0.00  0.00    -0.297 N 
ATOM      6  C   UNL     1      14.022   8.182  19.126  0.00  0.00    +0.074 C 
ATOM      7  C   UNL     1      12.980   7.070  19.320  0.00  0.00    +0.032 C 
ATOM      8  C   UNL     1      13.361   9.366  19.848  0.00  0.00    +0.119 C 
ATOM      9  C   UNL     1      12.429   7.324  20.717  0.00  0.00    +0.109 C 
ATOM     11  C   UNL     1      12.032   9.389  22.029  0.00  0.00    +0.247 C 
ENDROOT
BRANCH   6  10
ATOM      3  N   UNL     1      16.032   6.668  19.113  0.00  0.00    -0.342 N 
ATOM      4  N   UNL     1      16.102   8.351  20.563  0.00  0.00    -0.232 NA
ATOM     10  C   UNL     1      15.392   7.761  19.628  0.00  0.00    +0.113 A 
ATOM     12  C   UNL     1      17.236   6.544  19.759  0.00  0.00    +0.066 A 
ATOM     13  C   UNL     1      17.255   7.606  20.658  0.00  0.00    +0.089 A 
ATOM     15  C   UNL     1      18.276   5.623  19.637  0.00  0.00    +0.031 A 
ATOM     16  C   UNL     1      18.372   7.773  21.495  0.00  0.00    +0.030 A 
ATOM     17  C   UNL     1      19.380   5.804  20.476  0.00  0.00    -0.048 A 
ATOM     18  C   UNL     1      19.430   6.860  21.390  0.00  0.00    +0.005 A 
ATOM     21  C   UNL     1      20.527   4.851  20.392  0.00  0.00    +0.044 C 
ATOM     24  H   UNL     1      15.682   6.057  18.386  0.00  0.00    +0.167 HD
ENDBRANCH   6  10
BRANCH  11  14
ATOM      5  N   UNL     1      12.598  13.604  22.376  0.00  0.00    -0.263 NA
ATOM     14  C   UNL     1      12.227  10.843  22.146  0.00  0.00    +0.040 A 
ATOM     19  C   UNL     1      13.357  11.346  22.785  0.00  0.00    +0.033 A 
ATOM     20  C   UNL     1      11.284  11.719  21.623  0.00  0.00    +0.033 A 
ATOM     22  C   UNL     1      13.494  12.721  22.871  0.00  0.00    +0.111 A 
ATOM     23  C   UNL     1      11.514  13.079  21.763  0.00  0.00    +0.111 A 
ENDBRANCH  11  14
TORSDOF 2
ENDMDL
MODEL 3
REMARK VINA RESULT:      -6.7      1.612      2.373
REMARK  Name = 51137004
REMARK  3 active torsions:
REMARK  status: ('A' for Active; 'I' for Inactive)
REMARK    1  A    between atoms: C_6  and  C_10
REMARK    2  A    between atoms: C_11  and  C_14
REMARK    3  A    between atoms: C_17  and  C_21
REMARK                            x       y       z     vdW  Elec       q    Type
REMARK                         _______ _______ _______ _____ _____    ______ ____
ROOT
ATOM      1  O   UNL     1      10.960  10.734  25.254  0.00  0.00    -0.270 OA
ATOM      2  N   UNL     1      11.128  10.377  22.966  0.00  0.00    -0.297 N 
ATOM      6  C   UNL     1      11.646   9.485  20.820  0.00  0.00    +0.074 C 
ATOM      7  C   UNL     1      10.685   8.538  21.554  0.00  0.00    +0.032 C 
ATOM      8  C   UNL     1      11.461  10.794  21.602  0.00  0.00    +0.119 C 
ATOM      9  C   UNL     1      10.797   8.960  23.013  0.00  0.00    +0.109 C 
ATOM     11  C   UNL     1      11.180  11.146  24.117  0.00  0.00    +0.247 C 
ENDROOT
BRANCH   6  10
ATOM      3  N   UNL     1      13.403   7.968  19.848  0.00  0.00    -0.342 N 
ATOM      4  N   UNL     1      14.066   9.253  21.536  0.00  0.00    -0.232 NA
ATOM     10  C   UNL     1      13.055   8.922  20.764  0.00  0.00    +0.113 A 
ATOM     12  C   UNL     1      14.726   7.663  20.042  0.00  0.00    +0.066 A 
ATOM     13  C   UNL     1      15.116   8.478  21.101  0.00  0.00    +0.089 A 
ATOM     15  C   UNL     1      15.587   6.772  19.402  0.00  0.00    +0.031 A 
ATOM     16  C   UNL     1      16.442   8.412  21.562  0.00  0.00    +0.030 A 
ATOM     17  C   UNL     1      16.903   6.719  19.874  0.00  0.00    -0.048 A 
ATOM     18  C   UNL     1      17.325   7.524  20.935  0.00  0.00    +0.005 A 
ATOM     21  C   UNL     1      17.874   5.785  19.229  0.00  0.00    +0.044 C 
ATOM     24  H   UNL     1      12.794   7.558  19.151  0.00  0.00    +0.167 HD
ENDBRANCH   6  10
BRANCH  11  14
ATOM      5  N   UNL     1      12.219  15.261  23.686  0.00  0.00    -0.263 NA
ATOM     14  C   UNL     1      11.539  12.565  23.970  0.00  0.00    +0.040 A 
ATOM     19  C   UNL     1      10.544  13.522  23.792  0.00  0.00    +0.033 A 
ATOM     20  C   UNL     1      12.872  12.955  24.006  0.00  0.00    +0.033 A 
ATOM     22  C   UNL     1      10.934  14.844  23.657  0.00  0.00    +0.111 A 
ATOM     23  C   UNL     1      13.158  14.304  23.861  0.00  0.00    +0.111 A 
ENDBRANCH  11  14
TORSDOF 2
ENDMDL
MODEL 4
REMARK VINA RESULT:      -6.5     26.841     28.601
REMARK  Name = 51137004
REMARK  3 active torsions:
REMARK  status: ('A' for Active; 'I' for Inactive)
REMARK    1  A    between atoms: C_6  and  C_10
REMARK    2  A    between atoms: C_11  and  C_14
REMARK    3  A    between atoms: C_17  and  C_21
REMARK                            x       y       z     vdW  Elec       q    Type
REMARK                         _______ _______ _______ _____ _____    ______ ____
ROOT
ATOM      1  O   UNL     1      -3.797 -12.890  11.059  0.00  0.00    -0.270 OA
ATOM      2  N   UNL     1      -2.825 -11.540  12.679  0.00  0.00    -0.297 N 
ATOM      6  C   UNL     1      -2.077 -10.617  14.742  0.00  0.00    +0.074 C 
ATOM      7  C   UNL     1      -1.334 -11.933  14.467  0.00  0.00    +0.032 C 
ATOM      8  C   UNL     1      -2.610 -10.255  13.348  0.00  0.00    +0.119 C 
ATOM      9  C   UNL     1      -2.193 -12.624  13.415  0.00  0.00    +0.109 C 
ATOM     11  C   UNL     1      -3.584 -11.781  11.546  0.00  0.00    +0.247 C 
ENDROOT
BRANCH   6  10
ATOM      3  N   UNL     1      -4.393 -10.328  15.685  0.00  0.00    -0.342 N 
ATOM      4  N   UNL     1      -2.925 -11.329  17.021  0.00  0.00    -0.232 NA
ATOM     10  C   UNL     1      -3.111 -10.776  15.844  0.00  0.00    +0.113 A 
ATOM     12  C   UNL     1      -5.081 -10.611  16.837  0.00  0.00    +0.066 A 
ATOM     13  C   UNL     1      -4.143 -11.235  17.655  0.00  0.00    +0.089 A 
ATOM     15  C   UNL     1      -6.402 -10.381  17.222  0.00  0.00    +0.031 A 
ATOM     16  C   UNL     1      -4.530 -11.662  18.937  0.00  0.00    +0.030 A 
ATOM     17  C   UNL     1      -6.770 -10.812  18.500  0.00  0.00    -0.048 A 
ATOM     18  C   UNL     1      -5.852 -11.442  19.345  0.00  0.00    +0.005 A 
ATOM     21  C   UNL     1      -8.171 -10.596  18.971  0.00  0.00    +0.044 C 
ATOM     24  H   UNL     1      -4.769  -9.868  14.865  0.00  0.00    +0.167 HD
ENDBRANCH   6  10
BRANCH  11  14
ATOM      5  N   UNL     1      -5.359  -8.416   9.615  0.00  0.00    -0.263 NA
ATOM     14  C   UNL     1      -4.197 -10.622  10.879  0.00  0.00    +0.040 A 
ATOM     19  C   UNL     1      -3.482  -9.907   9.924  0.00  0.00    +0.033 A 
ATOM     20  C   UNL     1      -5.493 -10.235  11.202  0.00  0.00    +0.033 A 
ATOM     22  C   UNL     1      -4.103  -8.822   9.326  0.00  0.00    +0.111 A 
ATOM     23  C   UNL     1      -6.024  -9.134  10.547  0.00  0.00    +0.111 A 
ENDBRANCH  11  14
TORSDOF 2
ENDMDL
MODEL 5
REMARK VINA RESULT:      -6.4      2.930      4.757
REMARK  Name = 51137004
REMARK  3 active torsions:
REMARK  status: ('A' for Active; 'I' for Inactive)
REMARK    1  A    between atoms: C_6  and  C_10
REMARK    2  A    between atoms: C_11  and  C_14
REMARK    3  A    between atoms: C_17  and  C_21
REMARK                            x       y       z     vdW  Elec       q    Type
REMARK                         _______ _______ _______ _____ _____    ______ ____
ROOT
ATOM      1  O   UNL     1      12.798  11.000  19.730  0.00  0.00    -0.270 OA
ATOM      2  N   UNL     1      13.415   8.761  19.752  0.00  0.00    -0.297 N 
ATOM      6  C   UNL     1      14.454   6.679  20.251  0.00  0.00    +0.074 C 
ATOM      7  C   UNL     1      13.593   7.124  21.443  0.00  0.00    +0.032 C 
ATOM      8  C   UNL     1      13.882   7.531  19.110  0.00  0.00    +0.119 C 
ATOM      9  C   UNL     1      13.372   8.611  21.199  0.00  0.00    +0.109 C 
ATOM     11  C   UNL     1      13.117   9.968  19.141  0.00  0.00    +0.247 C 
ENDROOT
BRANCH   6  10
ATOM      3  N   UNL     1      16.864   6.015  19.963  0.00  0.00    -0.342 N 
ATOM      4  N   UNL     1      16.493   7.728  21.329  0.00  0.00    -0.232 NA
ATOM     10  C   UNL     1      15.937   6.837  20.539  0.00  0.00    +0.113 A 
ATOM     12  C   UNL     1      18.102   6.400  20.411  0.00  0.00    +0.066 A 
ATOM     13  C   UNL     1      17.843   7.471  21.261  0.00  0.00    +0.089 A 
ATOM     15  C   UNL     1      19.385   5.919  20.153  0.00  0.00    +0.031 A 
ATOM     16  C   UNL     1      18.917   8.112  21.902  0.00  0.00    +0.030 A 
ATOM     17  C   UNL     1      20.443   6.568  20.798  0.00  0.00    -0.048 A 
ATOM     18  C   UNL     1      20.216   7.646  21.658  0.00  0.00    +0.005 A 
ATOM     21  C   UNL     1      21.842   6.100  20.562  0.00  0.00    +0.044 C 
ATOM     24  H   UNL     1      16.674   5.255  19.322  0.00  0.00    +0.167 HD
ENDBRANCH   6  10
BRANCH  11  14
ATOM      5  N   UNL     1      13.366  10.145  14.886  0.00  0.00    -0.263 NA
ATOM     14  C   UNL     1      13.204  10.027  17.674  0.00  0.00    +0.040 A 
ATOM     19  C   UNL     1      14.248  10.714  17.063  0.00  0.00    +0.033 A 
ATOM     20  C   UNL     1      12.241   9.399  16.892  0.00  0.00    +0.033 A 
ATOM     22  C   UNL     1      14.284  10.742  15.679  0.00  0.00    +0.111 A 
ATOM     23  C   UNL     1      12.367   9.487  15.514  0.00  0.00    +0.111 A 
ENDBRANCH  11  14
TORSDOF 2
ENDMDL
MODEL 6
REMARK VINA RESULT:      -6.3      2.452      3.941
REMARK  Name = 51137004
REMARK  3 active torsions:
REMARK  status: ('A' for Active; 'I' for Inactive)
REMARK    1  A    between atoms: C_6  and  C_10
REMARK    2  A    between atoms: C_11  and  C_14
REMARK    3  A    between atoms: C_17  and  C_21
REMARK                            x       y       z     vdW  Elec       q    Type
REMARK                         _______ _______ _______ _____ _____    ______ ____
ROOT
ATOM      1  O   UNL     1      13.135  10.381  18.862  0.00  0.00    -0.270 OA
ATOM      2  N   UNL     1      14.639  10.290  20.629  0.00  0.00    -0.297 N 
ATOM      6  C   UNL     1      16.587   9.988  21.962  0.00  0.00    +0.074 C 
ATOM      7  C   UNL     1      16.807  11.152  20.985  0.00  0.00    +0.032 C 
ATOM      8  C   UNL     1      15.058   9.858  21.964  0.00  0.00    +0.119 C 
ATOM      9  C   UNL     1      15.730  10.951  19.928  0.00  0.00    +0.109 C 
ATOM     11  C   UNL     1      13.418  10.062  20.016  0.00  0.00    +0.247 C 
ENDROOT
BRANCH   6  10
ATOM      3  N   UNL     1      18.478   8.350  22.247  0.00  0.00    -0.342 N 
ATOM      4  N   UNL     1      17.114   7.961  20.535  0.00  0.00    -0.232 NA
ATOM     10  C   UNL     1      17.373   8.754  21.550  0.00  0.00    +0.113 A 
ATOM     12  C   UNL     1      18.965   7.220  21.642  0.00  0.00    +0.066 A 
ATOM     13  C   UNL     1      18.096   6.998  20.577  0.00  0.00    +0.089 A 
ATOM     15  C   UNL     1      20.056   6.399  21.926  0.00  0.00    +0.031 A 
ATOM     16  C   UNL     1      18.316   5.895  19.734  0.00  0.00    +0.030 A 
ATOM     17  C   UNL     1      20.260   5.306  21.077  0.00  0.00    -0.048 A 
ATOM     18  C   UNL     1      19.406   5.056  20.000  0.00  0.00    +0.005 A 
ATOM     21  C   UNL     1      21.411   4.389  21.330  0.00  0.00    +0.044 C 
ATOM     24  H   UNL     1      18.869   8.803  23.064  0.00  0.00    +0.167 HD
ENDBRANCH   6  10
BRANCH  11  14
ATOM      5  N   UNL     1      10.417   8.062  22.294  0.00  0.00    -0.263 NA
ATOM     14  C   UNL     1      12.382   9.372  20.799  0.00  0.00    +0.040 A 
ATOM     19  C   UNL     1      11.551  10.096  21.648  0.00  0.00    +0.033 A 
ATOM     20  C   UNL     1      12.231   7.994  20.697  0.00  0.00    +0.033 A 
ATOM     22  C   UNL     1      10.593   9.400  22.366  0.00  0.00    +0.111 A 
ATOM     23  C   UNL     1      11.242   7.392  21.459  0.00  0.00    +0.111 A 
ENDBRANCH  11  14
TORSDOF 2
ENDMDL
MODEL 7
REMARK VINA RESULT:      -6.2     26.919     29.882
REMARK  Name = 51137004
REMARK  3 active torsions:
REMARK  status: ('A' for Active; 'I' for Inactive)
REMARK    1  A    between atoms: C_6  and  C_10
REMARK    2  A    between atoms: C_11  and  C_14
REMARK    3  A    between atoms: C_17  and  C_21
REMARK                            x       y       z     vdW  Elec       q    Type
REMARK                         _______ _______ _______ _____ _____    ______ ____
ROOT
ATOM      1  O   UNL     1      -4.635 -13.862  15.700  0.00  0.00    -0.270 OA
ATOM      2  N   UNL     1      -4.892 -12.044  17.122  0.00  0.00    -0.297 N 
ATOM      6  C   UNL     1      -5.771 -10.416  18.619  0.00  0.00    +0.074 C 
ATOM      7  C   UNL     1      -5.710 -11.781  19.320  0.00  0.00    +0.032 C 
ATOM      8  C   UNL     1      -4.805 -10.618  17.443  0.00  0.00    +0.119 C 
ATOM      9  C   UNL     1      -5.581 -12.776  18.174  0.00  0.00    +0.109 C 
ATOM     11  C   UNL     1      -4.475 -12.671  15.959  0.00  0.00    +0.247 C 
ENDROOT
BRANCH   6  10
ATOM      3  N   UNL     1      -8.259 -10.488  18.998  0.00  0.00    -0.342 N 
ATOM      4  N   UNL     1      -7.581  -9.257  17.276  0.00  0.00    -0.232 NA
ATOM     10  C   UNL     1      -7.198 -10.031  18.266  0.00  0.00    +0.113 A 
ATOM     12  C   UNL     1      -9.403  -9.974  18.443  0.00  0.00    +0.066 A 
ATOM     13  C   UNL     1      -8.953  -9.210  17.370  0.00  0.00    +0.089 A 
ATOM     15  C   UNL     1     -10.750 -10.109  18.776  0.00  0.00    +0.031 A 
ATOM     16  C   UNL     1      -9.890  -8.533  16.571  0.00  0.00    +0.030 A 
ATOM     17  C   UNL     1     -11.670  -9.429  17.972  0.00  0.00    -0.048 A 
ATOM     18  C   UNL     1     -11.250  -8.653  16.887  0.00  0.00    +0.005 A 
ATOM     21  C   UNL     1     -13.128  -9.533  18.278  0.00  0.00    +0.044 C 
ATOM     24  H   UNL     1      -8.211 -11.097  19.805  0.00  0.00    +0.167 HD
ENDBRANCH   6  10
BRANCH  11  14
ATOM      5  N   UNL     1      -2.521 -10.269  13.024  0.00  0.00    -0.263 NA
ATOM     14  C   UNL     1      -3.801 -11.844  14.945  0.00  0.00    +0.040 A 
ATOM     19  C   UNL     1      -2.452 -11.535  15.082  0.00  0.00    +0.033 A 
ATOM     20  C   UNL     1      -4.510 -11.367  13.850  0.00  0.00    +0.033 A 
ATOM     22  C   UNL     1      -1.864 -10.752  14.102  0.00  0.00    +0.111 A 
ATOM     23  C   UNL     1      -3.830 -10.590  12.925  0.00  0.00    +0.111 A 
ENDBRANCH  11  14
TORSDOF 2
ENDMDL
MODEL 8
REMARK VINA RESULT:      -6.2     26.543     29.498
REMARK  Name = 51137004
REMARK  3 active torsions:
REMARK  status: ('A' for Active; 'I' for Inactive)
REMARK    1  A    between atoms: C_6  and  C_10
REMARK    2  A    between atoms: C_11  and  C_14
REMARK    3  A    between atoms: C_17  and  C_21
REMARK                            x       y       z     vdW  Elec       q    Type
REMARK                         _______ _______ _______ _____ _____    ______ ____
ROOT
ATOM      1  O   UNL     1      -4.582 -13.488  15.768  0.00  0.00    -0.270 OA
ATOM      2  N   UNL     1      -5.242 -11.707  17.105  0.00  0.00    -0.297 N 
ATOM      6  C   UNL     1      -6.518 -10.072  18.272  0.00  0.00    +0.074 C 
ATOM      7  C   UNL     1      -6.798 -11.461  18.863  0.00  0.00    +0.032 C 
ATOM      8  C   UNL     1      -5.199 -10.304  17.521  0.00  0.00    +0.119 C 
ATOM      9  C   UNL     1      -6.312 -12.422  17.785  0.00  0.00    +0.109 C 
ATOM     11  C   UNL     1      -4.462 -12.322  16.139  0.00  0.00    +0.247 C 
ENDROOT
BRANCH   6  10
ATOM      3  N   UNL     1      -8.678  -8.806  18.004  0.00  0.00    -0.342 N 
ATOM      4  N   UNL     1      -7.897  -9.780  16.165  0.00  0.00    -0.232 NA
ATOM     10  C   UNL     1      -7.689  -9.568  17.445  0.00  0.00    +0.113 A 
ATOM     12  C   UNL     1      -9.584  -8.508  17.020  0.00  0.00    +0.066 A 
ATOM     13  C   UNL     1      -9.074  -9.127  15.882  0.00  0.00    +0.089 A 
ATOM     15  C   UNL     1     -10.769  -7.773  17.027  0.00  0.00    +0.031 A 
ATOM     16  C   UNL     1      -9.777  -9.016  14.670  0.00  0.00    +0.030 A 
ATOM     17  C   UNL     1     -11.456  -7.672  15.813  0.00  0.00    -0.048 A 
ATOM     18  C   UNL     1     -10.970  -8.282  14.653  0.00  0.00    +0.005 A 
ATOM     21  C   UNL     1     -12.731  -6.897  15.755  0.00  0.00    +0.044 C 
ATOM     24  H   UNL     1      -8.733  -8.515  18.973  0.00  0.00    +0.167 HD
ENDBRANCH   6  10
BRANCH  11  14
ATOM      5  N   UNL     1      -1.426  -9.982  14.267  0.00  0.00    -0.263 NA
ATOM     14  C   UNL     1      -3.416 -11.513  15.494  0.00  0.00    +0.040 A 
ATOM     19  C   UNL     1      -3.534 -11.159  14.154  0.00  0.00    +0.033 A 
ATOM     20  C   UNL     1      -2.304 -11.103  16.220  0.00  0.00    +0.033 A 
ATOM     22  C   UNL     1      -2.521 -10.398  13.593  0.00  0.00    +0.111 A 
ATOM     23  C   UNL     1      -1.345 -10.345  15.566  0.00  0.00    +0.111 A 
ENDBRANCH  11  14
TORSDOF 2
ENDMDL
MODEL 9
REMARK VINA RESULT:      -6.1     28.384     30.719
REMARK  Name = 51137004
REMARK  3 active torsions:
REMARK  status: ('A' for Active; 'I' for Inactive)
REMARK    1  A    between atoms: C_6  and  C_10
REMARK    2  A    between atoms: C_11  and  C_14
REMARK    3  A    between atoms: C_17  and  C_21
REMARK                            x       y       z     vdW  Elec       q    Type
REMARK                         _______ _______ _______ _____ _____    ______ ____
ROOT
ATOM      1  O   UNL     1     -12.666 -11.563  16.462  0.00  0.00    -0.270 OA
ATOM      2  N   UNL     1     -11.247  -9.793  16.957  0.00  0.00    -0.297 N 
ATOM      6  C   UNL     1      -9.367  -8.341  17.113  0.00  0.00    +0.074 C 
ATOM      7  C   UNL     1      -9.870  -8.380  15.662  0.00  0.00    +0.032 C 
ATOM      8  C   UNL     1     -10.582  -8.876  17.885  0.00  0.00    +0.119 C 
ATOM      9  C   UNL     1     -10.730  -9.636  15.606  0.00  0.00    +0.109 C 
ATOM     11  C   UNL     1     -12.186 -10.764  17.264  0.00  0.00    +0.247 C 
ENDROOT
BRANCH   6  10
ATOM      3  N   UNL     1      -7.728  -9.687  18.469  0.00  0.00    -0.342 N 
ATOM      4  N   UNL     1      -7.151  -9.311  16.356  0.00  0.00    -0.232 NA
ATOM     10  C   UNL     1      -8.067  -9.110  17.277  0.00  0.00    +0.113 A 
ATOM     12  C   UNL     1      -6.514 -10.302  18.307  0.00  0.00    +0.066 A 
ATOM     13  C   UNL     1      -6.175 -10.053  16.980  0.00  0.00    +0.089 A 
ATOM     15  C   UNL     1      -5.707 -11.032  19.180  0.00  0.00    +0.031 A 
ATOM     16  C   UNL     1      -4.962 -10.554  16.478  0.00  0.00    +0.030 A 
ATOM     17  C   UNL     1      -4.504 -11.524  18.664  0.00  0.00    -0.048 A 
ATOM     18  C   UNL     1      -4.135 -11.290  17.336  0.00  0.00    +0.005 A 
ATOM     21  C   UNL     1      -3.597 -12.314  19.549  0.00  0.00    +0.044 C 
ATOM     24  H   UNL     1      -8.275  -9.665  19.321  0.00  0.00    +0.167 HD
ENDBRANCH   6  10
BRANCH  11  14
ATOM      5  N   UNL     1     -13.496 -11.039  21.315  0.00  0.00    -0.263 NA
ATOM     14  C   UNL     1     -12.637 -10.857  18.661  0.00  0.00    +0.040 A 
ATOM     19  C   UNL     1     -12.084 -11.810  19.511  0.00  0.00    +0.033 A 
ATOM     20  C   UNL     1     -13.618  -9.995  19.137  0.00  0.00    +0.033 A 
ATOM     22  C   UNL     1     -12.544 -11.858  20.817  0.00  0.00    +0.111 A 
ATOM     23  C   UNL     1     -14.010 -10.126  20.461  0.00  0.00    +0.111 A 
ENDBRANCH  11  14
TORSDOF 2
ENDMDL
MODEL 10
REMARK VINA RESULT:      -6.0     27.093     28.847
REMARK  Name = 51137004
REMARK  3 active torsions:
REMARK  status: ('A' for Active; 'I' for Inactive)
REMARK    1  A    between atoms: C_6  and  C_10
REMARK    2  A    between atoms: C_11  and  C_14
REMARK    3  A    between atoms: C_17  and  C_21
REMARK                            x       y       z     vdW  Elec       q    Type
REMARK                         _______ _______ _______ _____ _____    ______ ____
ROOT
ATOM      1  O   UNL     1      -1.682 -10.362  16.269  0.00  0.00    -0.270 OA
ATOM      2  N   UNL     1      -2.636 -11.986  14.911  0.00  0.00    -0.297 N 
ATOM      6  C   UNL     1      -3.309 -13.303  13.046  0.00  0.00    +0.074 C 
ATOM      7  C   UNL     1      -1.794 -13.444  13.256  0.00  0.00    +0.032 C 
ATOM      8  C   UNL     1      -3.770 -12.763  14.408  0.00  0.00    +0.119 C 
ATOM      9  C   UNL     1      -1.434 -12.252  14.134  0.00  0.00    +0.109 C 
ATOM     11  C   UNL     1      -2.646 -11.045  15.927  0.00  0.00    +0.247 C 
ENDROOT
BRANCH   6  10
ATOM      3  N   UNL     1      -4.102 -13.005  10.676  0.00  0.00    -0.342 N 
ATOM      4  N   UNL     1      -3.509 -11.143  11.736  0.00  0.00    -0.232 NA
ATOM     10  C   UNL     1      -3.631 -12.448  11.833  0.00  0.00    +0.113 A 
ATOM     12  C   UNL     1      -4.297 -11.992   9.772  0.00  0.00    +0.066 A 
ATOM     13  C   UNL     1      -3.920 -10.841  10.458  0.00  0.00    +0.089 A 
ATOM     15  C   UNL     1      -4.756 -11.985   8.456  0.00  0.00    +0.031 A 
ATOM     16  C   UNL     1      -3.999  -9.599   9.805  0.00  0.00    +0.030 A 
ATOM     17  C   UNL     1      -4.829 -10.741   7.821  0.00  0.00    -0.048 A 
ATOM     18  C   UNL     1      -4.457  -9.567   8.481  0.00  0.00    +0.005 A 
ATOM     21  C   UNL     1      -5.314 -10.666   6.410  0.00  0.00    +0.044 C 
ATOM     24  H   UNL     1      -4.276 -13.989  10.513  0.00  0.00    +0.167 HD
ENDBRANCH   6  10
BRANCH  11  14
ATOM      5  N   UNL     1      -6.319 -10.441  18.011  0.00  0.00    -0.263 NA
ATOM     14  C   UNL     1      -3.912 -10.835  16.646  0.00  0.00    +0.040 A 
ATOM     19  C   UNL     1      -4.114 -11.422  17.891  0.00  0.00    +0.033 A 
ATOM     20  C   UNL     1      -4.913 -10.051  16.084  0.00  0.00    +0.033 A 
ATOM     22  C   UNL     1      -5.324 -11.195  18.527  0.00  0.00    +0.111 A 
ATOM     23  C   UNL     1      -6.088  -9.886  16.800  0.00  0.00    +0.111 A 
ENDBRANCH  11  14
TORSDOF 2
ENDMDL
