MODEL 1
REMARK VINA RESULT:      -7.6      0.000      0.000
REMARK  Name = 75536784
REMARK  9 active torsions:
REMARK  status: ('A' for Active; 'I' for Inactive)
REMARK    1  A    between atoms: O_3  and  C_9
REMARK    2  A    between atoms: O_5  and  C_26
REMARK    3  A    between atoms: O_5  and  C_27
REMARK    4  A    between atoms: N_6  and  C_8
REMARK    5  A    between atoms: N_6  and  C_13
REMARK    6  A    between atoms: N_7  and  C_12
REMARK    7  A    between atoms: C_10  and  C_12
REMARK    8  A    between atoms: C_13  and  C_14
REMARK    9  A    between atoms: C_15  and  C_18
REMARK                            x       y       z     vdW  Elec       q    Type
REMARK                         _______ _______ _______ _____ _____    ______ ____
ROOT
ATOM      2  O   UNL     1      12.897   6.715  20.773  0.00  0.00    -0.371 OA
ATOM      8  C   UNL     1      10.945   7.996  21.208  0.00  0.00    +0.111 C 
ATOM      9  C   UNL     1      11.493   8.376  19.845  0.00  0.00    +0.164 C 
ATOM     10  C   UNL     1      12.347   7.157  19.521  0.00  0.00    +0.165 C 
ATOM     11  C   UNL     1      12.154   7.326  21.842  0.00  0.00    +0.181 C 
ENDROOT
BRANCH   9   3
ATOM      3  O   UNL     1      10.475   8.576  18.884  0.00  0.00    -0.388 OA
ATOM     29  H   UNL     1      10.271   7.720  18.471  0.00  0.00    +0.210 HD
ENDBRANCH   9   3
BRANCH   8   6
ATOM      6  N   UNL     1      10.458   9.129  21.977  0.00  0.00    -0.305 NA
ATOM     28  H   UNL     1       9.819   8.793  22.697  0.00  0.00    +0.123 HD
BRANCH   6  13
ATOM     13  C   UNL     1      11.558   9.842  22.617  0.00  0.00    +0.116 C 
BRANCH  13  14
ATOM      1  F   UNL     1      10.004  14.969  24.363  0.00  0.00    -0.205 F 
ATOM     14  C   UNL     1      11.143  11.211  23.084  0.00  0.00    -0.033 A 
ATOM     16  C   UNL     1      10.922  11.449  24.440  0.00  0.00    +0.008 A 
ATOM     17  C   UNL     1      10.980  12.243  22.159  0.00  0.00    +0.008 A 
ATOM     19  C   UNL     1      10.536  12.719  24.873  0.00  0.00    +0.038 A 
ATOM     20  C   UNL     1      10.595  13.512  22.592  0.00  0.00    +0.038 A 
ATOM     21  C   UNL     1      10.374  13.750  23.947  0.00  0.00    +0.123 A 
ENDBRANCH  13  14
ENDBRANCH   6  13
ENDBRANCH   8   6
BRANCH  10  12
ATOM     12  C   UNL     1      13.468   7.452  18.542  0.00  0.00    +0.138 C 
BRANCH  12   7
ATOM      4  O   UNL     1      15.401   9.136  19.836  0.00  0.00    -0.270 OA
ATOM      7  N   UNL     1      14.741   7.049  19.069  0.00  0.00    -0.309 N 
ATOM     15  C   UNL     1      15.618   7.937  19.683  0.00  0.00    +0.244 C 
ATOM     30  H   UNL     1      15.012   6.084  18.911  0.00  0.00    +0.149 HD
BRANCH  15  18
ATOM     18  C   UNL     1      16.907   7.367  20.152  0.00  0.00    +0.037 A 
ATOM     22  C   UNL     1      17.594   7.971  21.206  0.00  0.00    +0.016 A 
ATOM     23  C   UNL     1      17.432   6.231  19.539  0.00  0.00    +0.016 A 
ATOM     24  C   UNL     1      18.805   7.437  21.646  0.00  0.00    +0.046 A 
ATOM     25  C   UNL     1      18.644   5.697  19.978  0.00  0.00    +0.046 A 
ATOM     26  C   UNL     1      19.329   6.300  21.032  0.00  0.00    +0.120 A 
BRANCH  26   5
ATOM      5  O   UNL     1      20.512   5.779  21.462  0.00  0.00    -0.495 OA
ATOM     27  C   UNL     1      21.119   4.782  20.640  0.00  0.00    +0.277 C 
ENDBRANCH  26   5
ENDBRANCH  15  18
ENDBRANCH  12   7
ENDBRANCH  10  12
TORSDOF 8
ENDMDL
MODEL 2
REMARK VINA RESULT:      -7.3      3.696      7.254
REMARK  Name = 75536784
REMARK  9 active torsions:
REMARK  status: ('A' for Active; 'I' for Inactive)
REMARK    1  A    between atoms: O_3  and  C_9
REMARK    2  A    between atoms: O_5  and  C_26
REMARK    3  A    between atoms: O_5  and  C_27
REMARK    4  A    between atoms: N_6  and  C_8
REMARK    5  A    between atoms: N_6  and  C_13
REMARK    6  A    between atoms: N_7  and  C_12
REMARK    7  A    between atoms: C_10  and  C_12
REMARK    8  A    between atoms: C_13  and  C_14
REMARK    9  A    between atoms: C_15  and  C_18
REMARK                            x       y       z     vdW  Elec       q    Type
REMARK                         _______ _______ _______ _____ _____    ______ ____
ROOT
ATOM      2  O   UNL     1      10.544   8.480  19.918  0.00  0.00    -0.371 OA
ATOM      8  C   UNL     1      12.399   7.204  19.161  0.00  0.00    +0.111 C 
ATOM      9  C   UNL     1      12.370   7.183  20.678  0.00  0.00    +0.164 C 
ATOM     10  C   UNL     1      10.917   7.551  20.950  0.00  0.00    +0.165 C 
ATOM     11  C   UNL     1      11.515   8.403  18.860  0.00  0.00    +0.181 C 
ENDROOT
BRANCH   9   3
ATOM      3  O   UNL     1      12.702   5.918  21.213  0.00  0.00    -0.388 OA
ATOM     29  H   UNL     1      13.509   6.013  21.747  0.00  0.00    +0.210 HD
ENDBRANCH   9   3
BRANCH   8   6
ATOM      6  N   UNL     1      13.736   7.332  18.605  0.00  0.00    -0.305 NA
ATOM     28  H   UNL     1      13.675   7.786  17.694  0.00  0.00    +0.123 HD
BRANCH   6  13
ATOM     13  C   UNL     1      14.592   8.131  19.474  0.00  0.00    +0.116 C 
BRANCH  13  14
ATOM      1  F   UNL     1      19.529   5.601  20.462  0.00  0.00    -0.205 F 
ATOM     14  C   UNL     1      15.911   7.455  19.738  0.00  0.00    -0.033 A 
ATOM     16  C   UNL     1      16.291   6.347  18.980  0.00  0.00    +0.008 A 
ATOM     17  C   UNL     1      16.754   7.937  20.739  0.00  0.00    +0.008 A 
ATOM     19  C   UNL     1      17.514   5.720  19.225  0.00  0.00    +0.038 A 
ATOM     20  C   UNL     1      17.976   7.311  20.984  0.00  0.00    +0.038 A 
ATOM     21  C   UNL     1      18.356   6.203  20.226  0.00  0.00    +0.123 A 
ENDBRANCH  13  14
ENDBRANCH   6  13
ENDBRANCH   8   6
BRANCH  10  12
ATOM     12  C   UNL     1      10.702   8.182  22.313  0.00  0.00    +0.138 C 
BRANCH  12   7
ATOM      4  O   UNL     1      10.918  11.045  22.291  0.00  0.00    -0.270 OA
ATOM      7  N   UNL     1      11.841   8.959  22.714  0.00  0.00    -0.309 N 
ATOM     15  C   UNL     1      11.856  10.350  22.669  0.00  0.00    +0.244 C 
ATOM     30  H   UNL     1      12.675   8.443  22.970  0.00  0.00    +0.149 HD
BRANCH  15  18
ATOM     18  C   UNL     1      13.121  11.005  23.094  0.00  0.00    +0.037 A 
ATOM     22  C   UNL     1      14.345  10.526  22.627  0.00  0.00    +0.016 A 
ATOM     23  C   UNL     1      13.084  12.096  23.961  0.00  0.00    +0.016 A 
ATOM     24  C   UNL     1      15.533  11.140  23.026  0.00  0.00    +0.046 A 
ATOM     25  C   UNL     1      14.272  12.710  24.361  0.00  0.00    +0.046 A 
ATOM     26  C   UNL     1      15.495  12.232  23.893  0.00  0.00    +0.120 A 
BRANCH  26   5
ATOM      5  O   UNL     1      16.654  12.830  24.283  0.00  0.00    -0.495 OA
ATOM     27  C   UNL     1      17.241  13.763  23.374  0.00  0.00    +0.277 C 
ENDBRANCH  26   5
ENDBRANCH  15  18
ENDBRANCH  12   7
ENDBRANCH  10  12
TORSDOF 8
ENDMDL
MODEL 3
REMARK VINA RESULT:      -7.2      3.947      9.381
REMARK  Name = 75536784
REMARK  9 active torsions:
REMARK  status: ('A' for Active; 'I' for Inactive)
REMARK    1  A    between atoms: O_3  and  C_9
REMARK    2  A    between atoms: O_5  and  C_26
REMARK    3  A    between atoms: O_5  and  C_27
REMARK    4  A    between atoms: N_6  and  C_8
REMARK    5  A    between atoms: N_6  and  C_13
REMARK    6  A    between atoms: N_7  and  C_12
REMARK    7  A    between atoms: C_10  and  C_12
REMARK    8  A    between atoms: C_13  and  C_14
REMARK    9  A    between atoms: C_15  and  C_18
REMARK                            x       y       z     vdW  Elec       q    Type
REMARK                         _______ _______ _______ _____ _____    ______ ____
ROOT
ATOM      2  O   UNL     1      15.712   6.179  19.073  0.00  0.00    -0.371 OA
ATOM      8  C   UNL     1      16.811   6.511  21.152  0.00  0.00    +0.111 C 
ATOM      9  C   UNL     1      15.495   7.267  21.162  0.00  0.00    +0.164 C 
ATOM     10  C   UNL     1      14.732   6.544  20.060  0.00  0.00    +0.165 C 
ATOM     11  C   UNL     1      17.019   6.287  19.663  0.00  0.00    +0.181 C 
ENDROOT
BRANCH   9   3
ATOM      3  O   UNL     1      14.828   7.186  22.405  0.00  0.00    -0.388 OA
ATOM     29  H   UNL     1      14.264   6.394  22.399  0.00  0.00    +0.210 HD
ENDBRANCH   9   3
BRANCH   8   6
ATOM      6  N   UNL     1      17.906   7.237  21.774  0.00  0.00    -0.305 NA
ATOM     28  H   UNL     1      18.149   6.782  22.654  0.00  0.00    +0.123 HD
BRANCH   6  13
ATOM     13  C   UNL     1      19.081   7.256  20.911  0.00  0.00    +0.116 C 
BRANCH  13  14
ATOM      1  F   UNL     1      23.026   3.632  22.655  0.00  0.00    -0.205 F 
ATOM     14  C   UNL     1      20.135   6.287  21.376  0.00  0.00    -0.033 A 
ATOM     16  C   UNL     1      20.500   5.212  20.568  0.00  0.00    +0.008 A 
ATOM     17  C   UNL     1      20.748   6.468  22.617  0.00  0.00    +0.008 A 
ATOM     19  C   UNL     1      21.477   4.314  21.000  0.00  0.00    +0.038 A 
ATOM     20  C   UNL     1      21.724   5.570  23.049  0.00  0.00    +0.038 A 
ATOM     21  C   UNL     1      22.089   4.494  22.240  0.00  0.00    +0.123 A 
ENDBRANCH  13  14
ENDBRANCH   6  13
ENDBRANCH   8   6
BRANCH  10  12
ATOM     12  C   UNL     1      13.650   7.394  19.421  0.00  0.00    +0.138 C 
BRANCH  12   7
ATOM      4  O   UNL     1      10.940   8.252  19.821  0.00  0.00    -0.270 OA
ATOM      7  N   UNL     1      13.201   8.424  20.313  0.00  0.00    -0.309 N 
ATOM     15  C   UNL     1      11.861   8.775  20.443  0.00  0.00    +0.244 C 
ATOM     30  H   UNL     1      13.920   8.945  20.805  0.00  0.00    +0.149 HD
BRANCH  15  18
ATOM     18  C   UNL     1      11.561   9.880  21.392  0.00  0.00    +0.037 A 
ATOM     22  C   UNL     1      11.007   9.596  22.640  0.00  0.00    +0.016 A 
ATOM     23  C   UNL     1      11.831  11.200  21.033  0.00  0.00    +0.016 A 
ATOM     24  C   UNL     1      10.725  10.632  23.530  0.00  0.00    +0.046 A 
ATOM     25  C   UNL     1      11.548  12.236  21.923  0.00  0.00    +0.046 A 
ATOM     26  C   UNL     1      10.996  11.952  23.171  0.00  0.00    +0.120 A 
BRANCH  26   5
ATOM      5  O   UNL     1      10.720  12.964  24.039  0.00  0.00    -0.495 OA
ATOM     27  C   UNL     1      10.819  12.669  25.433  0.00  0.00    +0.277 C 
ENDBRANCH  26   5
ENDBRANCH  15  18
ENDBRANCH  12   7
ENDBRANCH  10  12
TORSDOF 8
ENDMDL
MODEL 4
REMARK VINA RESULT:      -6.9      3.606      5.433
REMARK  Name = 75536784
REMARK  9 active torsions:
REMARK  status: ('A' for Active; 'I' for Inactive)
REMARK    1  A    between atoms: O_3  and  C_9
REMARK    2  A    between atoms: O_5  and  C_26
REMARK    3  A    between atoms: O_5  and  C_27
REMARK    4  A    between atoms: N_6  and  C_8
REMARK    5  A    between atoms: N_6  and  C_13
REMARK    6  A    between atoms: N_7  and  C_12
REMARK    7  A    between atoms: C_10  and  C_12
REMARK    8  A    between atoms: C_13  and  C_14
REMARK    9  A    between atoms: C_15  and  C_18
REMARK                            x       y       z     vdW  Elec       q    Type
REMARK                         _______ _______ _______ _____ _____    ______ ____
ROOT
ATOM      2  O   UNL     1      13.918  13.763  24.270  0.00  0.00    -0.371 OA
ATOM      8  C   UNL     1      12.641  12.093  25.375  0.00  0.00    +0.111 C 
ATOM      9  C   UNL     1      14.029  11.548  25.090  0.00  0.00    +0.164 C 
ATOM     10  C   UNL     1      14.818  12.837  24.901  0.00  0.00    +0.165 C 
ATOM     11  C   UNL     1      12.576  13.267  24.411  0.00  0.00    +0.181 C 
ENDROOT
BRANCH   9   3
ATOM      3  O   UNL     1      14.538  10.770  26.155  0.00  0.00    -0.388 OA
ATOM     29  H   UNL     1      15.508  10.843  26.151  0.00  0.00    +0.210 HD
ENDBRANCH   9   3
BRANCH   8   6
ATOM      6  N   UNL     1      11.579  11.125  25.160  0.00  0.00    -0.305 NA
ATOM     28  H   UNL     1      10.938  11.152  25.954  0.00  0.00    +0.123 HD
BRANCH   6  13
ATOM     13  C   UNL     1      10.835  11.422  23.942  0.00  0.00    +0.116 C 
BRANCH  13  14
ATOM      1  F   UNL     1      12.119   7.854  19.775  0.00  0.00    -0.205 F 
ATOM     14  C   UNL     1      11.178  10.468  22.829  0.00  0.00    -0.033 A 
ATOM     16  C   UNL     1      11.067   9.093  23.030  0.00  0.00    +0.008 A 
ATOM     17  C   UNL     1      11.605  10.961  21.595  0.00  0.00    +0.008 A 
ATOM     19  C   UNL     1      11.385   8.209  21.998  0.00  0.00    +0.038 A 
ATOM     20  C   UNL     1      11.923  10.078  20.564  0.00  0.00    +0.038 A 
ATOM     21  C   UNL     1      11.813   8.702  20.765  0.00  0.00    +0.123 A 
ENDBRANCH  13  14
ENDBRANCH   6  13
ENDBRANCH   8   6
BRANCH  10  12
ATOM     12  C   UNL     1      16.059  12.661  24.046  0.00  0.00    +0.138 C 
BRANCH  12   7
ATOM      4  O   UNL     1      14.924  12.321  21.430  0.00  0.00    -0.270 OA
ATOM      7  N   UNL     1      16.002  11.443  23.288  0.00  0.00    -0.309 N 
ATOM     15  C   UNL     1      15.430  11.371  22.022  0.00  0.00    +0.244 C 
ATOM     30  H   UNL     1      16.339  10.605  23.749  0.00  0.00    +0.149 HD
BRANCH  15  18
ATOM     18  C   UNL     1      15.427  10.030  21.379  0.00  0.00    +0.037 A 
ATOM     22  C   UNL     1      15.535   9.921  19.993  0.00  0.00    +0.016 A 
ATOM     23  C   UNL     1      15.312   8.882  22.162  0.00  0.00    +0.016 A 
ATOM     24  C   UNL     1      15.531   8.664  19.389  0.00  0.00    +0.046 A 
ATOM     25  C   UNL     1      15.308   7.624  21.558  0.00  0.00    +0.046 A 
ATOM     26  C   UNL     1      15.417   7.516  20.173  0.00  0.00    +0.120 A 
BRANCH  26   5
ATOM      5  O   UNL     1      15.412   6.288  19.583  0.00  0.00    -0.495 OA
ATOM     27  C   UNL     1      16.625   5.861  18.963  0.00  0.00    +0.277 C 
ENDBRANCH  26   5
ENDBRANCH  15  18
ENDBRANCH  12   7
ENDBRANCH  10  12
TORSDOF 8
ENDMDL
MODEL 5
REMARK VINA RESULT:      -6.9      3.823      5.089
REMARK  Name = 75536784
REMARK  9 active torsions:
REMARK  status: ('A' for Active; 'I' for Inactive)
REMARK    1  A    between atoms: O_3  and  C_9
REMARK    2  A    between atoms: O_5  and  C_26
REMARK    3  A    between atoms: O_5  and  C_27
REMARK    4  A    between atoms: N_6  and  C_8
REMARK    5  A    between atoms: N_6  and  C_13
REMARK    6  A    between atoms: N_7  and  C_12
REMARK    7  A    between atoms: C_10  and  C_12
REMARK    8  A    between atoms: C_13  and  C_14
REMARK    9  A    between atoms: C_15  and  C_18
REMARK                            x       y       z     vdW  Elec       q    Type
REMARK                         _______ _______ _______ _____ _____    ______ ____
ROOT
ATOM      2  O   UNL     1      14.257   8.305  22.347  0.00  0.00    -0.371 OA
ATOM      8  C   UNL     1      13.096   6.922  20.804  0.00  0.00    +0.111 C 
ATOM      9  C   UNL     1      14.506   7.159  20.293  0.00  0.00    +0.164 C 
ATOM     10  C   UNL     1      15.219   7.565  21.576  0.00  0.00    +0.165 C 
ATOM     11  C   UNL     1      12.947   8.052  21.810  0.00  0.00    +0.181 C 
ENDROOT
BRANCH   9   3
ATOM      3  O   UNL     1      15.078   6.003  19.716  0.00  0.00    -0.388 OA
ATOM     29  H   UNL     1      14.714   5.896  18.820  0.00  0.00    +0.210 HD
ENDBRANCH   9   3
BRANCH   8   6
ATOM      6  N   UNL     1      12.085   6.957  19.760  0.00  0.00    -0.305 NA
ATOM     28  H   UNL     1      11.316   6.340  20.022  0.00  0.00    +0.123 HD
BRANCH   6  13
ATOM     13  C   UNL     1      11.566   8.307  19.575  0.00  0.00    +0.116 C 
BRANCH  13  14
ATOM      1  F   UNL     1      13.624  10.724  14.921  0.00  0.00    -0.205 F 
ATOM     14  C   UNL     1      12.116   8.953  18.332  0.00  0.00    -0.033 A 
ATOM     16  C   UNL     1      13.174   9.857  18.425  0.00  0.00    +0.008 A 
ATOM     17  C   UNL     1      11.568   8.646  17.086  0.00  0.00    +0.008 A 
ATOM     19  C   UNL     1      13.684  10.456  17.272  0.00  0.00    +0.038 A 
ATOM     20  C   UNL     1      12.078   9.245  15.934  0.00  0.00    +0.038 A 
ATOM     21  C   UNL     1      13.135  10.149  16.027  0.00  0.00    +0.123 A 
ENDBRANCH  13  14
ENDBRANCH   6  13
ENDBRANCH   8   6
BRANCH  10  12
ATOM     12  C   UNL     1      16.450   8.419  21.335  0.00  0.00    +0.138 C 
BRANCH  12   7
ATOM      4  O   UNL     1      17.865   6.646  19.575  0.00  0.00    -0.270 OA
ATOM      7  N   UNL     1      17.653   7.695  21.633  0.00  0.00    -0.309 N 
ATOM     15  C   UNL     1      18.273   6.854  20.714  0.00  0.00    +0.244 C 
ATOM     30  H   UNL     1      18.003   7.768  22.582  0.00  0.00    +0.149 HD
BRANCH  15  18
ATOM     18  C   UNL     1      19.498   6.157  21.186  0.00  0.00    +0.037 A 
ATOM     22  C   UNL     1      20.039   5.114  20.434  0.00  0.00    +0.016 A 
ATOM     23  C   UNL     1      20.104   6.543  22.380  0.00  0.00    +0.016 A 
ATOM     24  C   UNL     1      21.188   4.458  20.877  0.00  0.00    +0.046 A 
ATOM     25  C   UNL     1      21.253   5.887  22.824  0.00  0.00    +0.046 A 
ATOM     26  C   UNL     1      21.794   4.845  22.072  0.00  0.00    +0.120 A 
BRANCH  26   5
ATOM      5  O   UNL     1      22.915   4.205  22.504  0.00  0.00    -0.495 OA
ATOM     27  C   UNL     1      23.892   4.993  23.185  0.00  0.00    +0.277 C 
ENDBRANCH  26   5
ENDBRANCH  15  18
ENDBRANCH  12   7
ENDBRANCH  10  12
TORSDOF 8
ENDMDL
MODEL 6
REMARK VINA RESULT:      -6.8     26.761     29.405
REMARK  Name = 75536784
REMARK  9 active torsions:
REMARK  status: ('A' for Active; 'I' for Inactive)
REMARK    1  A    between atoms: O_3  and  C_9
REMARK    2  A    between atoms: O_5  and  C_26
REMARK    3  A    between atoms: O_5  and  C_27
REMARK    4  A    between atoms: N_6  and  C_8
REMARK    5  A    between atoms: N_6  and  C_13
REMARK    6  A    between atoms: N_7  and  C_12
REMARK    7  A    between atoms: C_10  and  C_12
REMARK    8  A    between atoms: C_13  and  C_14
REMARK    9  A    between atoms: C_15  and  C_18
REMARK                            x       y       z     vdW  Elec       q    Type
REMARK                         _______ _______ _______ _____ _____    ______ ____
ROOT
ATOM      2  O   UNL     1     -11.112 -10.337  16.144  0.00  0.00    -0.371 OA
ATOM      8  C   UNL     1     -10.399  -9.825  18.351  0.00  0.00    +0.111 C 
ATOM      9  C   UNL     1      -9.541  -9.057  17.362  0.00  0.00    +0.164 C 
ATOM     10  C   UNL     1     -10.431  -9.072  16.127  0.00  0.00    +0.165 C 
ATOM     11  C   UNL     1     -10.990 -10.905  17.460  0.00  0.00    +0.181 C 
ENDROOT
BRANCH   9   3
ATOM      3  O   UNL     1      -9.259  -7.740  17.792  0.00  0.00    -0.388 OA
ATOM     29  H   UNL     1      -9.132  -7.182  17.006  0.00  0.00    +0.210 HD
ENDBRANCH   9   3
BRANCH   8   6
ATOM      6  N   UNL     1      -9.652 -10.364  19.475  0.00  0.00    -0.305 NA
ATOM     28  H   UNL     1     -10.260 -10.397  20.293  0.00  0.00    +0.123 HD
BRANCH   6  13
ATOM     13  C   UNL     1      -9.171 -11.711  19.189  0.00  0.00    +0.116 C 
BRANCH  13  14
ATOM      1  F   UNL     1      -3.555 -11.886  18.774  0.00  0.00    -0.205 F 
ATOM     14  C   UNL     1      -7.670 -11.758  19.078  0.00  0.00    -0.033 A 
ATOM     16  C   UNL     1      -7.055 -12.790  18.369  0.00  0.00    +0.008 A 
ATOM     17  C   UNL     1      -6.895 -10.768  19.682  0.00  0.00    +0.008 A 
ATOM     19  C   UNL     1      -5.664 -12.834  18.266  0.00  0.00    +0.038 A 
ATOM     20  C   UNL     1      -5.505 -10.812  19.580  0.00  0.00    +0.038 A 
ATOM     21  C   UNL     1      -4.890 -11.843  18.872  0.00  0.00    +0.123 A 
ENDBRANCH  13  14
ENDBRANCH   6  13
ENDBRANCH   8   6
BRANCH  10  12
ATOM     12  C   UNL     1      -9.660  -8.921  14.829  0.00  0.00    +0.138 C 
BRANCH  12   7
ATOM      4  O   UNL     1      -8.548 -11.547  14.499  0.00  0.00    -0.270 OA
ATOM      7  N   UNL     1      -8.284  -9.296  14.993  0.00  0.00    -0.309 N 
ATOM     15  C   UNL     1      -7.833 -10.599  14.812  0.00  0.00    +0.244 C 
ATOM     30  H   UNL     1      -7.652  -8.573  15.320  0.00  0.00    +0.149 HD
BRANCH  15  18
ATOM     18  C   UNL     1      -6.383 -10.830  15.045  0.00  0.00    +0.037 A 
ATOM     22  C   UNL     1      -5.772 -11.982  14.550  0.00  0.00    +0.016 A 
ATOM     23  C   UNL     1      -5.635  -9.896  15.760  0.00  0.00    +0.016 A 
ATOM     24  C   UNL     1      -4.412 -12.200  14.770  0.00  0.00    +0.046 A 
ATOM     25  C   UNL     1      -4.274 -10.113  15.980  0.00  0.00    +0.046 A 
ATOM     26  C   UNL     1      -3.663 -11.265  15.485  0.00  0.00    +0.120 A 
BRANCH  26   5
ATOM      5  O   UNL     1      -2.336 -11.477  15.699  0.00  0.00    -0.495 OA
ATOM     27  C   UNL     1      -1.493 -10.325  15.745  0.00  0.00    +0.277 C 
ENDBRANCH  26   5
ENDBRANCH  15  18
ENDBRANCH  12   7
ENDBRANCH  10  12
TORSDOF 8
ENDMDL
MODEL 7
REMARK VINA RESULT:      -6.7     27.797     30.077
REMARK  Name = 75536784
REMARK  9 active torsions:
REMARK  status: ('A' for Active; 'I' for Inactive)
REMARK    1  A    between atoms: O_3  and  C_9
REMARK    2  A    between atoms: O_5  and  C_26
REMARK    3  A    between atoms: O_5  and  C_27
REMARK    4  A    between atoms: N_6  and  C_8
REMARK    5  A    between atoms: N_6  and  C_13
REMARK    6  A    between atoms: N_7  and  C_12
REMARK    7  A    between atoms: C_10  and  C_12
REMARK    8  A    between atoms: C_13  and  C_14
REMARK    9  A    between atoms: C_15  and  C_18
REMARK                            x       y       z     vdW  Elec       q    Type
REMARK                         _______ _______ _______ _____ _____    ______ ____
ROOT
ATOM      2  O   UNL     1      -9.656  -7.465   5.877  0.00  0.00    -0.371 OA
ATOM      8  C   UNL     1      -9.595  -5.925   7.683  0.00  0.00    +0.111 C 
ATOM      9  C   UNL     1      -8.391  -6.844   7.776  0.00  0.00    +0.164 C 
ATOM     10  C   UNL     1      -8.301  -7.355   6.344  0.00  0.00    +0.165 C 
ATOM     11  C   UNL     1     -10.508  -6.717   6.761  0.00  0.00    +0.181 C 
ENDROOT
BRANCH   9   3
ATOM      3  O   UNL     1      -7.215  -6.164   8.167  0.00  0.00    -0.388 OA
ATOM     29  H   UNL     1      -6.688  -6.760   8.726  0.00  0.00    +0.210 HD
ENDBRANCH   9   3
BRANCH   8   6
ATOM      6  N   UNL     1     -10.206  -5.632   8.969  0.00  0.00    -0.305 NA
ATOM     28  H   UNL     1      -9.618  -6.013   9.711  0.00  0.00    +0.123 HD
BRANCH   6  13
ATOM     13  C   UNL     1     -10.347  -4.194   9.169  0.00  0.00    +0.116 C 
BRANCH  13  14
ATOM      1  F   UNL     1     -15.305  -2.877  11.500  0.00  0.00    -0.205 F 
ATOM     14  C   UNL     1     -11.672  -3.843   9.792  0.00  0.00    -0.033 A 
ATOM     16  C   UNL     1     -11.778  -3.711  11.176  0.00  0.00    +0.008 A 
ATOM     17  C   UNL     1     -12.792  -3.647   8.984  0.00  0.00    +0.008 A 
ATOM     19  C   UNL     1     -13.006  -3.385  11.754  0.00  0.00    +0.038 A 
ATOM     20  C   UNL     1     -14.019  -3.322   9.562  0.00  0.00    +0.038 A 
ATOM     21  C   UNL     1     -14.126  -3.190  10.946  0.00  0.00    +0.123 A 
ENDBRANCH  13  14
ENDBRANCH   6  13
ENDBRANCH   8   6
BRANCH  10  12
ATOM     12  C   UNL     1      -7.606  -8.700   6.230  0.00  0.00    +0.138 C 
BRANCH  12   7
ATOM      4  O   UNL     1      -5.477 -10.623   6.323  0.00  0.00    -0.270 OA
ATOM      7  N   UNL     1      -6.683  -8.904   7.309  0.00  0.00    -0.309 N 
ATOM     15  C   UNL     1      -5.677  -9.864   7.268  0.00  0.00    +0.244 C 
ATOM     30  H   UNL     1      -6.839  -8.357   8.149  0.00  0.00    +0.149 HD
BRANCH  15  18
ATOM     18  C   UNL     1      -4.819  -9.968   8.477  0.00  0.00    +0.037 A 
ATOM     22  C   UNL     1      -4.568 -11.215   9.049  0.00  0.00    +0.016 A 
ATOM     23  C   UNL     1      -4.269  -8.818   9.042  0.00  0.00    +0.016 A 
ATOM     24  C   UNL     1      -3.764 -11.313  10.185  0.00  0.00    +0.046 A 
ATOM     25  C   UNL     1      -3.465  -8.915  10.179  0.00  0.00    +0.046 A 
ATOM     26  C   UNL     1      -3.213 -10.163  10.749  0.00  0.00    +0.120 A 
BRANCH  26   5
ATOM      5  O   UNL     1      -2.429 -10.258  11.858  0.00  0.00    -0.495 OA
ATOM     27  C   UNL     1      -3.081 -10.566  13.090  0.00  0.00    +0.277 C 
ENDBRANCH  26   5
ENDBRANCH  15  18
ENDBRANCH  12   7
ENDBRANCH  10  12
TORSDOF 8
ENDMDL
MODEL 8
REMARK VINA RESULT:      -6.7     26.942     28.481
REMARK  Name = 75536784
REMARK  9 active torsions:
REMARK  status: ('A' for Active; 'I' for Inactive)
REMARK    1  A    between atoms: O_3  and  C_9
REMARK    2  A    between atoms: O_5  and  C_26
REMARK    3  A    between atoms: O_5  and  C_27
REMARK    4  A    between atoms: N_6  and  C_8
REMARK    5  A    between atoms: N_6  and  C_13
REMARK    6  A    between atoms: N_7  and  C_12
REMARK    7  A    between atoms: C_10  and  C_12
REMARK    8  A    between atoms: C_13  and  C_14
REMARK    9  A    between atoms: C_15  and  C_18
REMARK                            x       y       z     vdW  Elec       q    Type
REMARK                         _______ _______ _______ _____ _____    ______ ____
ROOT
ATOM      2  O   UNL     1      -4.087 -11.592  18.479  0.00  0.00    -0.371 OA
ATOM      8  C   UNL     1      -6.368 -10.990  18.200  0.00  0.00    +0.111 C 
ATOM      9  C   UNL     1      -5.576 -10.501  17.001  0.00  0.00    +0.164 C 
ATOM     10  C   UNL     1      -4.344 -11.392  17.079  0.00  0.00    +0.165 C 
ATOM     11  C   UNL     1      -5.262 -11.215  19.218  0.00  0.00    +0.181 C 
ENDROOT
BRANCH   9   3
ATOM      3  O   UNL     1      -6.272 -10.670  15.782  0.00  0.00    -0.388 OA
ATOM     29  H   UNL     1      -7.085 -10.138  15.817  0.00  0.00    +0.210 HD
ENDBRANCH   9   3
BRANCH   8   6
ATOM      6  N   UNL     1      -7.375 -10.048  18.657  0.00  0.00    -0.305 NA
ATOM     28  H   UNL     1      -7.286  -9.182  18.126  0.00  0.00    +0.123 HD
BRANCH   6  13
ATOM     13  C   UNL     1      -8.719 -10.582  18.469  0.00  0.00    +0.116 C 
BRANCH  13  14
ATOM      1  F   UNL     1     -12.181  -6.783  16.162  0.00  0.00    -0.205 F 
ATOM     14  C   UNL     1      -9.645  -9.567  17.852  0.00  0.00    -0.033 A 
ATOM     16  C   UNL     1     -11.025  -9.702  17.998  0.00  0.00    +0.008 A 
ATOM     17  C   UNL     1      -9.121  -8.491  17.136  0.00  0.00    +0.008 A 
ATOM     19  C   UNL     1     -11.883  -8.762  17.427  0.00  0.00    +0.038 A 
ATOM     20  C   UNL     1      -9.978  -7.550  16.565  0.00  0.00    +0.038 A 
ATOM     21  C   UNL     1     -11.358  -7.686  16.711  0.00  0.00    +0.123 A 
ENDBRANCH  13  14
ENDBRANCH   6  13
ENDBRANCH   8   6
BRANCH  10  12
ATOM     12  C   UNL     1      -3.122 -10.786  16.414  0.00  0.00    +0.138 C 
BRANCH  12   7
ATOM      4  O   UNL     1      -1.828 -11.740  14.035  0.00  0.00    -0.270 OA
ATOM      7  N   UNL     1      -3.406 -10.387  15.065  0.00  0.00    -0.309 N 
ATOM     15  C   UNL     1      -2.725 -10.904  13.968  0.00  0.00    +0.244 C 
ATOM     30  H   UNL     1      -4.088  -9.646  14.945  0.00  0.00    +0.149 HD
BRANCH  15  18
ATOM     18  C   UNL     1      -3.120 -10.368  12.639  0.00  0.00    +0.037 A 
ATOM     22  C   UNL     1      -4.469 -10.285  12.293  0.00  0.00    +0.016 A 
ATOM     23  C   UNL     1      -2.143  -9.952  11.736  0.00  0.00    +0.016 A 
ATOM     24  C   UNL     1      -4.841  -9.784  11.046  0.00  0.00    +0.046 A 
ATOM     25  C   UNL     1      -2.514  -9.451  10.488  0.00  0.00    +0.046 A 
ATOM     26  C   UNL     1      -3.862  -9.367  10.144  0.00  0.00    +0.120 A 
BRANCH  26   5
ATOM      5  O   UNL     1      -4.225  -8.878   8.926  0.00  0.00    -0.495 OA
ATOM     27  C   UNL     1      -5.026  -9.722   8.099  0.00  0.00    +0.277 C 
ENDBRANCH  26   5
ENDBRANCH  15  18
ENDBRANCH  12   7
ENDBRANCH  10  12
TORSDOF 8
ENDMDL
MODEL 9
REMARK VINA RESULT:      -6.6     26.972     29.770
REMARK  Name = 75536784
REMARK  9 active torsions:
REMARK  status: ('A' for Active; 'I' for Inactive)
REMARK    1  A    between atoms: O_3  and  C_9
REMARK    2  A    between atoms: O_5  and  C_26
REMARK    3  A    between atoms: O_5  and  C_27
REMARK    4  A    between atoms: N_6  and  C_8
REMARK    5  A    between atoms: N_6  and  C_13
REMARK    6  A    between atoms: N_7  and  C_12
REMARK    7  A    between atoms: C_10  and  C_12
REMARK    8  A    between atoms: C_13  and  C_14
REMARK    9  A    between atoms: C_15  and  C_18
REMARK                            x       y       z     vdW  Elec       q    Type
REMARK                         _______ _______ _______ _____ _____    ______ ____
ROOT
ATOM      2  O   UNL     1      -5.690 -11.548  18.385  0.00  0.00    -0.371 OA
ATOM      8  C   UNL     1      -4.239 -10.253  17.022  0.00  0.00    +0.111 C 
ATOM      9  C   UNL     1      -5.650 -10.158  16.472  0.00  0.00    +0.164 C 
ATOM     10  C   UNL     1      -6.469 -10.557  17.693  0.00  0.00    +0.165 C 
ATOM     11  C   UNL     1      -4.339 -11.493  17.895  0.00  0.00    +0.181 C 
ENDROOT
BRANCH   9   3
ATOM      3  O   UNL     1      -5.974  -8.857  16.023  0.00  0.00    -0.388 OA
ATOM     29  H   UNL     1      -6.166  -8.901  15.071  0.00  0.00    +0.210 HD
ENDBRANCH   9   3
BRANCH   8   6
ATOM      6  N   UNL     1      -3.218 -10.366  15.993  0.00  0.00    -0.305 NA
ATOM     28  H   UNL     1      -2.346 -10.673  16.422  0.00  0.00    +0.123 HD
BRANCH   6  13
ATOM     13  C   UNL     1      -3.607 -11.332  14.971  0.00  0.00    +0.116 C 
BRANCH  13  14
ATOM      1  F   UNL     1      -2.866  -9.294   9.771  0.00  0.00    -0.205 F 
ATOM     14  C   UNL     1      -3.410 -10.787  13.582  0.00  0.00    -0.033 A 
ATOM     16  C   UNL     1      -4.512 -10.392  12.824  0.00  0.00    +0.008 A 
ATOM     17  C   UNL     1      -2.123 -10.677  13.053  0.00  0.00    +0.008 A 
ATOM     19  C   UNL     1      -4.328  -9.887  11.536  0.00  0.00    +0.038 A 
ATOM     20  C   UNL     1      -1.940 -10.173  11.765  0.00  0.00    +0.038 A 
ATOM     21  C   UNL     1      -3.042  -9.777  11.008  0.00  0.00    +0.123 A 
ENDBRANCH  13  14
ENDBRANCH   6  13
ENDBRANCH   8   6
BRANCH  10  12
ATOM     12  C   UNL     1      -7.831 -11.127  17.342  0.00  0.00    +0.138 C 
BRANCH  12   7
ATOM      4  O   UNL     1      -9.963  -9.825  18.757  0.00  0.00    -0.270 OA
ATOM      7  N   UNL     1      -8.705 -10.111  16.829  0.00  0.00    -0.309 N 
ATOM     15  C   UNL     1      -9.716  -9.533  17.590  0.00  0.00    +0.244 C 
ATOM     30  H   UNL     1      -8.600  -9.875  15.847  0.00  0.00    +0.149 HD
BRANCH  15  18
ATOM     18  C   UNL     1     -10.552  -8.513  16.904  0.00  0.00    +0.037 A 
ATOM     22  C   UNL     1      -9.947  -7.433  16.262  0.00  0.00    +0.016 A 
ATOM     23  C   UNL     1     -11.941  -8.635  16.905  0.00  0.00    +0.016 A 
ATOM     24  C   UNL     1     -10.730  -6.474  15.619  0.00  0.00    +0.046 A 
ATOM     25  C   UNL     1     -12.725  -7.676  16.263  0.00  0.00    +0.046 A 
ATOM     26  C   UNL     1     -12.120  -6.597  15.620  0.00  0.00    +0.120 A 
BRANCH  26   5
ATOM      5  O   UNL     1     -12.885  -5.661  14.993  0.00  0.00    -0.495 OA
ATOM     27  C   UNL     1     -12.360  -5.090  13.794  0.00  0.00    +0.277 C 
ENDBRANCH  26   5
ENDBRANCH  15  18
ENDBRANCH  12   7
ENDBRANCH  10  12
TORSDOF 8
ENDMDL
MODEL 10
REMARK VINA RESULT:      -6.4      5.369     11.145
REMARK  Name = 75536784
REMARK  9 active torsions:
REMARK  status: ('A' for Active; 'I' for Inactive)
REMARK    1  A    between atoms: O_3  and  C_9
REMARK    2  A    between atoms: O_5  and  C_26
REMARK    3  A    between atoms: O_5  and  C_27
REMARK    4  A    between atoms: N_6  and  C_8
REMARK    5  A    between atoms: N_6  and  C_13
REMARK    6  A    between atoms: N_7  and  C_12
REMARK    7  A    between atoms: C_10  and  C_12
REMARK    8  A    between atoms: C_13  and  C_14
REMARK    9  A    between atoms: C_15  and  C_18
REMARK                            x       y       z     vdW  Elec       q    Type
REMARK                         _______ _______ _______ _____ _____    ______ ____
ROOT
ATOM      2  O   UNL     1      18.396   6.027  20.102  0.00  0.00    -0.371 OA
ATOM      8  C   UNL     1      20.193   5.296  21.472  0.00  0.00    +0.111 C 
ATOM      9  C   UNL     1      19.661   6.611  22.013  0.00  0.00    +0.164 C 
ATOM     10  C   UNL     1      18.269   6.641  21.396  0.00  0.00    +0.165 C 
ATOM     11  C   UNL     1      19.641   5.308  20.056  0.00  0.00    +0.181 C 
ENDROOT
BRANCH   9   3
ATOM      3  O   UNL     1      19.612   6.640  23.426  0.00  0.00    -0.388 OA
ATOM     29  H   UNL     1      19.209   7.481  23.701  0.00  0.00    +0.210 HD
ENDBRANCH   9   3
BRANCH   8   6
ATOM      6  N   UNL     1      21.643   5.192  21.514  0.00  0.00    -0.305 NA
ATOM     28  H   UNL     1      22.044   6.130  21.506  0.00  0.00    +0.123 HD
BRANCH   6  13
ATOM     13  C   UNL     1      22.085   4.498  22.717  0.00  0.00    +0.116 C 
BRANCH  13  14
ATOM      1  F   UNL     1      25.136  -0.080  21.499  0.00  0.00    -0.205 F 
ATOM     14  C   UNL     1      22.900   3.275  22.391  0.00  0.00    -0.033 A 
ATOM     16  C   UNL     1      23.212   2.978  21.065  0.00  0.00    +0.008 A 
ATOM     17  C   UNL     1      23.345   2.440  23.417  0.00  0.00    +0.008 A 
ATOM     19  C   UNL     1      23.968   1.844  20.763  0.00  0.00    +0.038 A 
ATOM     20  C   UNL     1      24.100   1.307  23.115  0.00  0.00    +0.038 A 
ATOM     21  C   UNL     1      24.412   1.009  21.789  0.00  0.00    +0.123 A 
ENDBRANCH  13  14
ENDBRANCH   6  13
ENDBRANCH   8   6
BRANCH  10  12
ATOM     12  C   UNL     1      17.708   8.043  21.247  0.00  0.00    +0.138 C 
BRANCH  12   7
ATOM      4  O   UNL     1      14.962   7.938  22.077  0.00  0.00    -0.270 OA
ATOM      7  N   UNL     1      16.554   8.056  20.394  0.00  0.00    -0.309 N 
ATOM     15  C   UNL     1      15.254   8.001  20.886  0.00  0.00    +0.244 C 
ATOM     30  H   UNL     1      16.729   8.035  19.395  0.00  0.00    +0.149 HD
BRANCH  15  18
ATOM     18  C   UNL     1      14.169   7.997  19.870  0.00  0.00    +0.037 A 
ATOM     22  C   UNL     1      14.470   7.758  18.529  0.00  0.00    +0.016 A 
ATOM     23  C   UNL     1      12.851   8.235  20.258  0.00  0.00    +0.016 A 
ATOM     24  C   UNL     1      13.452   7.755  17.576  0.00  0.00    +0.046 A 
ATOM     25  C   UNL     1      11.832   8.233  19.304  0.00  0.00    +0.046 A 
ATOM     26  C   UNL     1      12.133   7.992  17.964  0.00  0.00    +0.120 A 
BRANCH  26   5
ATOM      5  O   UNL     1      11.140   7.990  17.033  0.00  0.00    -0.495 OA
ATOM     27  C   UNL     1      11.168   9.025  16.050  0.00  0.00    +0.277 C 
ENDBRANCH  26   5
ENDBRANCH  15  18
ENDBRANCH  12   7
ENDBRANCH  10  12
TORSDOF 8
ENDMDL
