MODEL 1
REMARK VINA RESULT:      -6.3      0.000      0.000
REMARK  Name = 38028017
REMARK  10 active torsions:
REMARK  status: ('A' for Active; 'I' for Inactive)
REMARK    1  A    between atoms: N_3  and  C_13
REMARK    2  A    between atoms: N_5  and  C_30
REMARK    3  A    between atoms: C_6  and  C_10
REMARK    4  A    between atoms: C_7  and  C_13
REMARK    5  A    between atoms: C_9  and  C_14
REMARK    6  A    between atoms: C_10  and  C_15
REMARK    7  A    between atoms: C_10  and  C_16
REMARK    8  A    between atoms: C_11  and  C_18
REMARK    9  A    between atoms: C_14  and  C_19
REMARK   10  A    between atoms: C_17  and  C_22
REMARK                            x       y       z     vdW  Elec       q    Type
REMARK                         _______ _______ _______ _____ _____    ______ ____
ROOT
ATOM      6  C   UNL     1      -3.787 -12.785  12.485  0.00  0.00    +0.000 C 
ATOM      7  C   UNL     1      -2.270 -12.652  12.773  0.00  0.00    +0.032 C 
ATOM      8  C   UNL     1      -4.125 -12.193  11.108  0.00  0.00    +0.012 C 
ATOM      9  C   UNL     1      -3.737 -10.706  11.001  0.00  0.00    +0.023 C 
ATOM     11  C   UNL     1      -2.337 -10.451  11.522  0.00  0.00    -0.073 C 
ATOM     12  C   UNL     1      -1.692 -11.338  12.301  0.00  0.00    -0.022 C 
ATOM     18  C   UNL     1      -1.677  -9.172  11.088  0.00  0.00    +0.039 C 
ENDROOT
BRANCH   6  10
ATOM     10  C   UNL     1      -4.252 -14.243  12.552  0.00  0.00    -0.013 C 
ATOM     15  C   UNL     1      -5.729 -14.347  12.188  0.00  0.00    +0.007 C 
ATOM     16  C   UNL     1      -3.404 -15.114  11.632  0.00  0.00    +0.007 C 
ENDBRANCH   6  10
BRANCH   7  13
ATOM     13  C   UNL     1      -1.972 -12.834  14.266  0.00  0.00    +0.112 C 
BRANCH  13   3
ATOM      2  O   UNL     1      -1.386 -10.657  16.095  0.00  0.00    -0.276 OA
ATOM      3  N   UNL     1      -2.901 -12.096  15.062  0.00  0.00    -0.315 N 
ATOM     22  C   UNL     1      -2.534 -11.060  15.919  0.00  0.00    +0.216 C 
ATOM     31  H   UNL     1      -3.889 -12.278  14.917  0.00  0.00    +0.149 HD
BRANCH  22  17
ATOM     17  C   UNL     1      -3.705 -10.440  16.616  0.00  0.00    +0.075 C 
ATOM     20  C   UNL     1      -4.875 -10.297  15.641  0.00  0.00    +0.013 C 
ATOM     21  C   UNL     1      -4.085 -11.296  17.825  0.00  0.00    +0.013 C 
ATOM     23  C   UNL     1      -6.123  -9.763  16.339  0.00  0.00    +0.001 C 
ATOM     24  C   UNL     1      -5.335 -10.764  18.519  0.00  0.00    +0.001 C 
ATOM     25  C   UNL     1      -6.502 -10.618  17.545  0.00  0.00    +0.000 C 
ENDBRANCH  22  17
ENDBRANCH  13   3
ENDBRANCH   7  13
BRANCH   9  14
ATOM     14  C   UNL     1      -4.760  -9.817  11.717  0.00  0.00    +0.103 C 
BRANCH  14  19
ATOM      1  O   UNL     1      -4.832  -7.810  10.457  0.00  0.00    -0.276 OA
ATOM      4  N   UNL     1      -6.612  -9.277  10.175  0.00  0.00    -0.299 N 
ATOM      5  N   UNL     1      -8.635 -10.347   8.452  0.00  0.00    -0.302 NA
ATOM     19  C   UNL     1      -5.399  -8.873  10.730  0.00  0.00    +0.216 C 
ATOM     26  C   UNL     1      -7.292  -8.420   9.206  0.00  0.00    +0.123 C 
ATOM     27  C   UNL     1      -7.371 -10.465  10.575  0.00  0.00    +0.123 C 
ATOM     28  C   UNL     1      -7.795  -9.226   8.009  0.00  0.00    +0.103 C 
ATOM     29  C   UNL     1      -7.880 -11.231   9.352  0.00  0.00    +0.103 C 
ATOM     30  C   UNL     1      -9.141 -11.095   7.302  0.00  0.00    +0.105 C 
ENDBRANCH  14  19
ENDBRANCH   9  14
TORSDOF 6
ENDMDL
MODEL 2
REMARK VINA RESULT:      -6.3      1.946      2.590
REMARK  Name = 38028017
REMARK  10 active torsions:
REMARK  status: ('A' for Active; 'I' for Inactive)
REMARK    1  A    between atoms: N_3  and  C_13
REMARK    2  A    between atoms: N_5  and  C_30
REMARK    3  A    between atoms: C_6  and  C_10
REMARK    4  A    between atoms: C_7  and  C_13
REMARK    5  A    between atoms: C_9  and  C_14
REMARK    6  A    between atoms: C_10  and  C_15
REMARK    7  A    between atoms: C_10  and  C_16
REMARK    8  A    between atoms: C_11  and  C_18
REMARK    9  A    between atoms: C_14  and  C_19
REMARK   10  A    between atoms: C_17  and  C_22
REMARK                            x       y       z     vdW  Elec       q    Type
REMARK                         _______ _______ _______ _____ _____    ______ ____
ROOT
ATOM      6  C   UNL     1      -3.224 -12.256  14.021  0.00  0.00    +0.000 C 
ATOM      7  C   UNL     1      -2.099 -11.374  14.618  0.00  0.00    +0.032 C 
ATOM      8  C   UNL     1      -2.894 -12.634  12.568  0.00  0.00    +0.012 C 
ATOM      9  C   UNL     1      -2.718 -11.395  11.670  0.00  0.00    +0.023 C 
ATOM     11  C   UNL     1      -1.827 -10.353  12.317  0.00  0.00    -0.073 C 
ATOM     12  C   UNL     1      -1.552 -10.367  13.633  0.00  0.00    -0.022 C 
ATOM     18  C   UNL     1      -1.225  -9.319  11.407  0.00  0.00    +0.039 C 
ENDROOT
BRANCH   6  10
ATOM     10  C   UNL     1      -3.450 -13.526  14.849  0.00  0.00    -0.013 C 
ATOM     15  C   UNL     1      -4.928 -13.682  15.190  0.00  0.00    +0.007 C 
ATOM     16  C   UNL     1      -2.935 -14.749  14.097  0.00  0.00    +0.007 C 
ENDBRANCH   6  10
BRANCH   7  13
ATOM     13  C   UNL     1      -2.579 -10.645  15.879  0.00  0.00    +0.112 C 
BRANCH  13   3
ATOM      2  O   UNL     1      -4.714 -10.628  17.846  0.00  0.00    -0.276 OA
ATOM      3  N   UNL     1      -3.912 -10.160  15.708  0.00  0.00    -0.315 N 
ATOM     22  C   UNL     1      -4.880 -10.190  16.710  0.00  0.00    +0.216 C 
ATOM     31  H   UNL     1      -4.128  -9.682  14.839  0.00  0.00    +0.149 HD
BRANCH  22  17
ATOM     17  C   UNL     1      -6.185  -9.597  16.275  0.00  0.00    +0.075 C 
ATOM     20  C   UNL     1      -6.741 -10.380  15.085  0.00  0.00    +0.013 C 
ATOM     21  C   UNL     1      -7.160  -9.602  17.454  0.00  0.00    +0.013 C 
ATOM     23  C   UNL     1      -8.121  -9.871  14.676  0.00  0.00    +0.001 C 
ATOM     24  C   UNL     1      -8.540  -9.097  17.043  0.00  0.00    +0.001 C 
ATOM     25  C   UNL     1      -9.093  -9.876  15.852  0.00  0.00    +0.000 C 
ENDBRANCH  22  17
ENDBRANCH  13   3
ENDBRANCH   7  13
BRANCH   9  14
ATOM     14  C   UNL     1      -4.074 -10.796  11.284  0.00  0.00    +0.103 C 
BRANCH  14  19
ATOM      1  O   UNL     1      -3.800 -11.900   9.205  0.00  0.00    -0.276 OA
ATOM      4  N   UNL     1      -5.067  -9.953   9.186  0.00  0.00    -0.299 N 
ATOM      5  N   UNL     1      -7.222  -8.460   8.029  0.00  0.00    -0.302 NA
ATOM     19  C   UNL     1      -4.295 -10.938   9.799  0.00  0.00    +0.216 C 
ATOM     26  C   UNL     1      -5.331 -10.022   7.751  0.00  0.00    +0.123 C 
ATOM     27  C   UNL     1      -5.556  -8.733   9.837  0.00  0.00    +0.123 C 
ATOM     28  C   UNL     1      -6.802  -9.742   7.443  0.00  0.00    +0.103 C 
ATOM     29  C   UNL     1      -7.022  -8.472   9.485  0.00  0.00    +0.103 C 
ATOM     30  C   UNL     1      -8.620  -8.180   7.703  0.00  0.00    +0.105 C 
ENDBRANCH  14  19
ENDBRANCH   9  14
TORSDOF 6
ENDMDL
MODEL 3
REMARK VINA RESULT:      -6.3      2.903      4.395
REMARK  Name = 38028017
REMARK  10 active torsions:
REMARK  status: ('A' for Active; 'I' for Inactive)
REMARK    1  A    between atoms: N_3  and  C_13
REMARK    2  A    between atoms: N_5  and  C_30
REMARK    3  A    between atoms: C_6  and  C_10
REMARK    4  A    between atoms: C_7  and  C_13
REMARK    5  A    between atoms: C_9  and  C_14
REMARK    6  A    between atoms: C_10  and  C_15
REMARK    7  A    between atoms: C_10  and  C_16
REMARK    8  A    between atoms: C_11  and  C_18
REMARK    9  A    between atoms: C_14  and  C_19
REMARK   10  A    between atoms: C_17  and  C_22
REMARK                            x       y       z     vdW  Elec       q    Type
REMARK                         _______ _______ _______ _____ _____    ______ ____
ROOT
ATOM      6  C   UNL     1      -5.115 -12.276  16.185  0.00  0.00    +0.000 C 
ATOM      7  C   UNL     1      -4.280 -11.707  17.359  0.00  0.00    +0.032 C 
ATOM      8  C   UNL     1      -4.193 -12.749  15.051  0.00  0.00    +0.012 C 
ATOM      9  C   UNL     1      -3.304 -11.614  14.511  0.00  0.00    +0.023 C 
ATOM     11  C   UNL     1      -2.651 -10.829  15.631  0.00  0.00    -0.073 C 
ATOM     12  C   UNL     1      -3.093 -10.893  16.900  0.00  0.00    -0.022 C 
ATOM     18  C   UNL     1      -1.449 -10.001  15.266  0.00  0.00    +0.039 C 
ENDROOT
BRANCH   6  10
ATOM     10  C   UNL     1      -6.017 -13.430  16.636  0.00  0.00    -0.013 C 
ATOM     15  C   UNL     1      -7.353 -13.380  15.902  0.00  0.00    +0.007 C 
ATOM     16  C   UNL     1      -5.323 -14.768  16.407  0.00  0.00    +0.007 C 
ENDBRANCH   6  10
BRANCH   7  13
ATOM     13  C   UNL     1      -5.148 -10.859  18.295  0.00  0.00    +0.112 C 
BRANCH  13   3
ATOM      2  O   UNL     1      -8.035 -10.765  18.591  0.00  0.00    -0.276 OA
ATOM      3  N   UNL     1      -6.072 -10.063  17.550  0.00  0.00    -0.315 N 
ATOM     22  C   UNL     1      -7.449 -10.079  17.756  0.00  0.00    +0.216 C 
ATOM     31  H   UNL     1      -5.685  -9.382  16.903  0.00  0.00    +0.149 HD
BRANCH  22  17
ATOM     17  C   UNL     1      -8.183  -9.133  16.856  0.00  0.00    +0.075 C 
ATOM     20  C   UNL     1      -8.634  -9.863  15.590  0.00  0.00    +0.013 C 
ATOM     21  C   UNL     1      -9.371  -8.535  17.612  0.00  0.00    +0.013 C 
ATOM     23  C   UNL     1      -9.475  -8.960  14.693  0.00  0.00    +0.001 C 
ATOM     24  C   UNL     1     -10.214  -7.636  16.712  0.00  0.00    +0.001 C 
ATOM     25  C   UNL     1     -10.661  -8.364  15.447  0.00  0.00    +0.000 C 
ENDBRANCH  22  17
ENDBRANCH  13   3
ENDBRANCH   7  13
BRANCH   9  14
ATOM     14  C   UNL     1      -4.096 -10.688  13.580  0.00  0.00    +0.103 C 
BRANCH  14  19
ATOM      1  O   UNL     1      -2.346 -11.196  12.065  0.00  0.00    -0.276 OA
ATOM      4  N   UNL     1      -4.070  -9.869  11.251  0.00  0.00    -0.299 N 
ATOM      5  N   UNL     1      -5.670  -9.056   9.018  0.00  0.00    -0.302 NA
ATOM     19  C   UNL     1      -3.419 -10.610  12.235  0.00  0.00    +0.216 C 
ATOM     26  C   UNL     1      -3.480  -9.750   9.919  0.00  0.00    +0.123 C 
ATOM     27  C   UNL     1      -5.272  -9.057  11.459  0.00  0.00    +0.123 C 
ATOM     28  C   UNL     1      -4.529  -9.963   8.827  0.00  0.00    +0.103 C 
ATOM     29  C   UNL     1      -6.286  -9.277  10.335  0.00  0.00    +0.103 C 
ATOM     30  C   UNL     1      -6.655  -9.240   7.952  0.00  0.00    +0.105 C 
ENDBRANCH  14  19
ENDBRANCH   9  14
TORSDOF 6
ENDMDL
MODEL 4
REMARK VINA RESULT:      -6.3      3.751      6.964
REMARK  Name = 38028017
REMARK  10 active torsions:
REMARK  status: ('A' for Active; 'I' for Inactive)
REMARK    1  A    between atoms: N_3  and  C_13
REMARK    2  A    between atoms: N_5  and  C_30
REMARK    3  A    between atoms: C_6  and  C_10
REMARK    4  A    between atoms: C_7  and  C_13
REMARK    5  A    between atoms: C_9  and  C_14
REMARK    6  A    between atoms: C_10  and  C_15
REMARK    7  A    between atoms: C_10  and  C_16
REMARK    8  A    between atoms: C_11  and  C_18
REMARK    9  A    between atoms: C_14  and  C_19
REMARK   10  A    between atoms: C_17  and  C_22
REMARK                            x       y       z     vdW  Elec       q    Type
REMARK                         _______ _______ _______ _____ _____    ______ ____
ROOT
ATOM      6  C   UNL     1      -7.430 -11.613  17.194  0.00  0.00    +0.000 C 
ATOM      7  C   UNL     1      -7.478 -12.006  18.691  0.00  0.00    +0.032 C 
ATOM      8  C   UNL     1      -6.250 -12.306  16.495  0.00  0.00    +0.012 C 
ATOM      9  C   UNL     1      -4.898 -11.945  17.138  0.00  0.00    +0.023 C 
ATOM     11  C   UNL     1      -4.947 -12.052  18.649  0.00  0.00    -0.073 C 
ATOM     12  C   UNL     1      -6.109 -12.091  19.325  0.00  0.00    -0.022 C 
ATOM     18  C   UNL     1      -3.628 -12.157  19.363  0.00  0.00    +0.039 C 
ENDROOT
BRANCH   6  10
ATOM     10  C   UNL     1      -8.737 -11.959  16.472  0.00  0.00    -0.013 C 
ATOM     15  C   UNL     1      -8.798 -11.260  15.118  0.00  0.00    +0.007 C 
ATOM     16  C   UNL     1      -8.869 -13.469  16.309  0.00  0.00    +0.007 C 
ENDBRANCH   6  10
BRANCH   7  13
ATOM     13  C   UNL     1      -8.351 -11.033  19.491  0.00  0.00    +0.112 C 
BRANCH  13   3
ATOM      2  O   UNL     1     -11.127 -10.199  19.666  0.00  0.00    -0.276 OA
ATOM      3  N   UNL     1      -9.046 -10.139  18.618  0.00  0.00    -0.315 N 
ATOM     22  C   UNL     1     -10.385  -9.791  18.774  0.00  0.00    +0.216 C 
ATOM     31  H   UNL     1      -8.500  -9.663  17.907  0.00  0.00    +0.149 HD
BRANCH  22  17
ATOM     17  C   UNL     1     -10.858  -8.819  17.737  0.00  0.00    +0.075 C 
ATOM     20  C   UNL     1      -9.657  -8.138  17.078  0.00  0.00    +0.013 C 
ATOM     21  C   UNL     1     -11.718  -9.556  16.709  0.00  0.00    +0.013 C 
ATOM     23  C   UNL     1     -10.092  -7.215  15.942  0.00  0.00    +0.001 C 
ATOM     24  C   UNL     1     -12.148  -8.633  15.573  0.00  0.00    +0.001 C 
ATOM     25  C   UNL     1     -10.950  -7.951  14.917  0.00  0.00    +0.000 C 
ENDBRANCH  22  17
ENDBRANCH  13   3
ENDBRANCH   7  13
BRANCH   9  14
ATOM     14  C   UNL     1      -4.434 -10.552  16.701  0.00  0.00    +0.103 C 
BRANCH  14  19
ATOM      1  O   UNL     1      -2.077 -10.738  16.529  0.00  0.00    -0.276 OA
ATOM      4  N   UNL     1      -3.261 -10.672  14.531  0.00  0.00    -0.299 N 
ATOM      5  N   UNL     1      -3.452 -11.472  11.786  0.00  0.00    -0.302 NA
ATOM     19  C   UNL     1      -3.148 -10.660  15.920  0.00  0.00    +0.216 C 
ATOM     26  C   UNL     1      -2.061 -10.780  13.703  0.00  0.00    +0.123 C 
ATOM     27  C   UNL     1      -4.500 -10.450  13.780  0.00  0.00    +0.123 C 
ATOM     28  C   UNL     1      -2.254 -11.793  12.576  0.00  0.00    +0.103 C 
ATOM     29  C   UNL     1      -4.646 -11.465  12.645  0.00  0.00    +0.103 C 
ATOM     30  C   UNL     1      -3.614 -12.425  10.689  0.00  0.00    +0.105 C 
ENDBRANCH  14  19
ENDBRANCH   9  14
TORSDOF 6
ENDMDL
MODEL 5
REMARK VINA RESULT:      -6.2     20.940     23.129
REMARK  Name = 38028017
REMARK  10 active torsions:
REMARK  status: ('A' for Active; 'I' for Inactive)
REMARK    1  A    between atoms: N_3  and  C_13
REMARK    2  A    between atoms: N_5  and  C_30
REMARK    3  A    between atoms: C_6  and  C_10
REMARK    4  A    between atoms: C_7  and  C_13
REMARK    5  A    between atoms: C_9  and  C_14
REMARK    6  A    between atoms: C_10  and  C_15
REMARK    7  A    between atoms: C_10  and  C_16
REMARK    8  A    between atoms: C_11  and  C_18
REMARK    9  A    between atoms: C_14  and  C_19
REMARK   10  A    between atoms: C_17  and  C_22
REMARK                            x       y       z     vdW  Elec       q    Type
REMARK                         _______ _______ _______ _____ _____    ______ ____
ROOT
ATOM      6  C   UNL     1     -12.234   8.877  19.997  0.00  0.00    +0.000 C 
ATOM      7  C   UNL     1     -11.556  10.172  20.512  0.00  0.00    +0.032 C 
ATOM      8  C   UNL     1     -11.349   8.188  18.948  0.00  0.00    +0.012 C 
ATOM      9  C   UNL     1     -11.059   9.099  17.740  0.00  0.00    +0.023 C 
ATOM     11  C   UNL     1     -10.639  10.490  18.173  0.00  0.00    -0.073 C 
ATOM     12  C   UNL     1     -10.858  10.947  19.419  0.00  0.00    -0.022 C 
ATOM     18  C   UNL     1      -9.922  11.328  17.151  0.00  0.00    +0.039 C 
ENDROOT
BRANCH   6  10
ATOM     10  C   UNL     1     -12.539   7.902  21.140  0.00  0.00    -0.013 C 
ATOM     15  C   UNL     1     -14.041   7.663  21.249  0.00  0.00    +0.007 C 
ATOM     16  C   UNL     1     -11.795   6.588  20.930  0.00  0.00    +0.007 C 
ENDBRANCH   6  10
BRANCH   7  13
ATOM     13  C   UNL     1     -12.567  11.082  21.218  0.00  0.00    +0.112 C 
BRANCH  13   3
ATOM      2  O   UNL     1     -13.433  10.067  23.796  0.00  0.00    -0.276 OA
ATOM      3  N   UNL     1     -12.088  11.468  22.508  0.00  0.00    -0.315 N 
ATOM     22  C   UNL     1     -12.561  10.928  23.702  0.00  0.00    +0.216 C 
ATOM     31  H   UNL     1     -11.293  12.099  22.542  0.00  0.00    +0.149 HD
BRANCH  22  17
ATOM     17  C   UNL     1     -11.872  11.490  24.907  0.00  0.00    +0.075 C 
ATOM     20  C   UNL     1     -12.762  12.542  25.571  0.00  0.00    +0.013 C 
ATOM     21  C   UNL     1     -11.534  10.351  25.872  0.00  0.00    +0.013 C 
ATOM     23  C   UNL     1     -12.140  13.065  26.863  0.00  0.00    +0.001 C 
ATOM     24  C   UNL     1     -10.917  10.877  27.165  0.00  0.00    +0.001 C 
ATOM     25  C   UNL     1     -11.803  11.930  27.826  0.00  0.00    +0.000 C 
ENDBRANCH  22  17
ENDBRANCH  13   3
ENDBRANCH   7  13
BRANCH   9  14
ATOM     14  C   UNL     1     -12.263   9.159  16.793  0.00  0.00    +0.103 C 
BRANCH  14  19
ATOM      1  O   UNL     1     -10.697   8.425  15.173  0.00  0.00    -0.276 OA
ATOM      4  N   UNL     1     -12.941   8.257  14.597  0.00  0.00    -0.299 N 
ATOM      5  N   UNL     1     -14.986   6.871  13.145  0.00  0.00    -0.302 NA
ATOM     19  C   UNL     1     -11.889   8.584  15.451  0.00  0.00    +0.216 C 
ATOM     26  C   UNL     1     -12.662   7.689  13.279  0.00  0.00    +0.123 C 
ATOM     27  C   UNL     1     -14.355   8.554  14.843  0.00  0.00    +0.123 C 
ATOM     28  C   UNL     1     -13.572   6.499  12.984  0.00  0.00    +0.103 C 
ATOM     29  C   UNL     1     -15.237   7.349  14.512  0.00  0.00    +0.103 C 
ATOM     30  C   UNL     1     -15.854   5.737  12.828  0.00  0.00    +0.105 C 
ENDBRANCH  14  19
ENDBRANCH   9  14
TORSDOF 6
ENDMDL
MODEL 6
REMARK VINA RESULT:      -6.2      1.612      2.142
REMARK  Name = 38028017
REMARK  10 active torsions:
REMARK  status: ('A' for Active; 'I' for Inactive)
REMARK    1  A    between atoms: N_3  and  C_13
REMARK    2  A    between atoms: N_5  and  C_30
REMARK    3  A    between atoms: C_6  and  C_10
REMARK    4  A    between atoms: C_7  and  C_13
REMARK    5  A    between atoms: C_9  and  C_14
REMARK    6  A    between atoms: C_10  and  C_15
REMARK    7  A    between atoms: C_10  and  C_16
REMARK    8  A    between atoms: C_11  and  C_18
REMARK    9  A    between atoms: C_14  and  C_19
REMARK   10  A    between atoms: C_17  and  C_22
REMARK                            x       y       z     vdW  Elec       q    Type
REMARK                         _______ _______ _______ _____ _____    ______ ____
ROOT
ATOM      6  C   UNL     1      -3.067 -12.127  12.460  0.00  0.00    +0.000 C 
ATOM      7  C   UNL     1      -1.982 -11.042  12.242  0.00  0.00    +0.032 C 
ATOM      8  C   UNL     1      -3.759 -12.469  11.132  0.00  0.00    +0.012 C 
ATOM      9  C   UNL     1      -4.423 -11.238  10.487  0.00  0.00    +0.023 C 
ATOM     11  C   UNL     1      -3.497 -10.038  10.478  0.00  0.00    -0.073 C 
ATOM     12  C   UNL     1      -2.404  -9.974  11.259  0.00  0.00    -0.022 C 
ATOM     18  C   UNL     1      -3.832  -8.931   9.517  0.00  0.00    +0.039 C 
ENDROOT
BRANCH   6  10
ATOM     10  C   UNL     1      -2.482 -13.399  13.084  0.00  0.00    -0.013 C 
ATOM     15  C   UNL     1      -3.255 -13.778  14.342  0.00  0.00    +0.007 C 
ATOM     16  C   UNL     1      -2.498 -14.541  12.073  0.00  0.00    +0.007 C 
ENDBRANCH   6  10
BRANCH   7  13
ATOM     13  C   UNL     1      -1.581 -10.387  13.568  0.00  0.00    +0.112 C 
BRANCH  13   3
ATOM      2  O   UNL     1      -1.677 -10.887  16.426  0.00  0.00    -0.276 OA
ATOM      3  N   UNL     1      -2.710 -10.258  14.433  0.00  0.00    -0.315 N 
ATOM     22  C   UNL     1      -2.670 -10.520  15.801  0.00  0.00    +0.216 C 
ATOM     31  H   UNL     1      -3.558  -9.862  14.039  0.00  0.00    +0.149 HD
BRANCH  22  17
ATOM     17  C   UNL     1      -3.986 -10.283  16.477  0.00  0.00    +0.075 C 
ATOM     20  C   UNL     1      -5.120 -10.374  15.454  0.00  0.00    +0.013 C 
ATOM     21  C   UNL     1      -4.165 -11.302  17.604  0.00  0.00    +0.013 C 
ATOM     23  C   UNL     1      -6.486 -10.242  16.121  0.00  0.00    +0.001 C 
ATOM     24  C   UNL     1      -5.534 -11.170  18.266  0.00  0.00    +0.001 C 
ATOM     25  C   UNL     1      -6.665 -11.258  17.245  0.00  0.00    +0.000 C 
ENDBRANCH  22  17
ENDBRANCH  13   3
ENDBRANCH   7  13
BRANCH   9  14
ATOM     14  C   UNL     1      -5.750 -10.902  11.177  0.00  0.00    +0.103 C 
BRANCH  14  19
ATOM      1  O   UNL     1      -7.113 -12.738  10.554  0.00  0.00    -0.276 OA
ATOM      4  N   UNL     1      -7.649 -10.683   9.613  0.00  0.00    -0.299 N 
ATOM      5  N   UNL     1      -9.666  -8.928   8.583  0.00  0.00    -0.302 NA
ATOM     19  C   UNL     1      -6.895 -11.530  10.422  0.00  0.00    +0.216 C 
ATOM     26  C   UNL     1      -8.779 -11.215   8.853  0.00  0.00    +0.123 C 
ATOM     27  C   UNL     1      -7.336  -9.278   9.334  0.00  0.00    +0.123 C 
ATOM     28  C   UNL     1     -10.002 -10.306   8.969  0.00  0.00    +0.103 C 
ATOM     29  C   UNL     1      -8.589  -8.405   9.434  0.00  0.00    +0.103 C 
ATOM     30  C   UNL     1     -10.848  -8.070   8.663  0.00  0.00    +0.105 C 
ENDBRANCH  14  19
ENDBRANCH   9  14
TORSDOF 6
ENDMDL
MODEL 7
REMARK VINA RESULT:      -6.2      3.811      6.858
REMARK  Name = 38028017
REMARK  10 active torsions:
REMARK  status: ('A' for Active; 'I' for Inactive)
REMARK    1  A    between atoms: N_3  and  C_13
REMARK    2  A    between atoms: N_5  and  C_30
REMARK    3  A    between atoms: C_6  and  C_10
REMARK    4  A    between atoms: C_7  and  C_13
REMARK    5  A    between atoms: C_9  and  C_14
REMARK    6  A    between atoms: C_10  and  C_15
REMARK    7  A    between atoms: C_10  and  C_16
REMARK    8  A    between atoms: C_11  and  C_18
REMARK    9  A    between atoms: C_14  and  C_19
REMARK   10  A    between atoms: C_17  and  C_22
REMARK                            x       y       z     vdW  Elec       q    Type
REMARK                         _______ _______ _______ _____ _____    ______ ____
ROOT
ATOM      6  C   UNL     1     -10.243  -8.598  16.029  0.00  0.00    +0.000 C 
ATOM      7  C   UNL     1     -10.626  -9.871  16.825  0.00  0.00    +0.032 C 
ATOM      8  C   UNL     1     -10.404  -8.839  14.521  0.00  0.00    +0.012 C 
ATOM      9  C   UNL     1      -9.532 -10.007  14.021  0.00  0.00    +0.023 C 
ATOM     11  C   UNL     1      -9.652 -11.223  14.918  0.00  0.00    -0.073 C 
ATOM     12  C   UNL     1     -10.155 -11.145  16.163  0.00  0.00    -0.022 C 
ATOM     18  C   UNL     1      -9.221 -12.540  14.334  0.00  0.00    +0.039 C 
ENDROOT
BRANCH   6  10
ATOM     10  C   UNL     1     -11.083  -7.388  16.454  0.00  0.00    -0.013 C 
ATOM     15  C   UNL     1     -10.698  -6.160  15.636  0.00  0.00    +0.007 C 
ATOM     16  C   UNL     1     -12.569  -7.695  16.305  0.00  0.00    +0.007 C 
ENDBRANCH   6  10
BRANCH   7  13
ATOM     13  C   UNL     1     -10.085  -9.811  18.258  0.00  0.00    +0.112 C 
BRANCH  13   3
ATOM      2  O   UNL     1      -8.389 -11.469  19.933  0.00  0.00    -0.276 OA
ATOM      3  N   UNL     1      -8.657  -9.863  18.265  0.00  0.00    -0.315 N 
ATOM     22  C   UNL     1      -7.917 -10.691  19.106  0.00  0.00    +0.216 C 
ATOM     31  H   UNL     1      -8.167  -9.336  17.548  0.00  0.00    +0.149 HD
BRANCH  22  17
ATOM     17  C   UNL     1      -6.440 -10.567  18.890  0.00  0.00    +0.075 C 
ATOM     20  C   UNL     1      -5.738 -11.844  19.357  0.00  0.00    +0.013 C 
ATOM     21  C   UNL     1      -6.167 -10.287  17.411  0.00  0.00    +0.013 C 
ATOM     23  C   UNL     1      -4.241 -11.799  19.060  0.00  0.00    +0.001 C 
ATOM     24  C   UNL     1      -4.670 -10.247  17.115  0.00  0.00    +0.001 C 
ATOM     25  C   UNL     1      -3.969 -11.519  17.584  0.00  0.00    +0.000 C 
ENDBRANCH  22  17
ENDBRANCH  13   3
ENDBRANCH   7  13
BRANCH   9  14
ATOM     14  C   UNL     1      -8.069  -9.577  13.871  0.00  0.00    +0.103 C 
BRANCH  14  19
ATOM      1  O   UNL     1      -8.299  -9.567  11.512  0.00  0.00    -0.276 OA
ATOM      4  N   UNL     1      -6.339 -10.483  12.359  0.00  0.00    -0.299 N 
ATOM      5  N   UNL     1      -3.542 -10.995  12.012  0.00  0.00    -0.302 NA
ATOM     19  C   UNL     1      -7.587  -9.874  12.473  0.00  0.00    +0.216 C 
ATOM     26  C   UNL     1      -5.800 -10.799  11.037  0.00  0.00    +0.123 C 
ATOM     27  C   UNL     1      -5.533 -10.978  13.479  0.00  0.00    +0.123 C 
ATOM     28  C   UNL     1      -4.331 -10.394  10.927  0.00  0.00    +0.103 C 
ATOM     29  C   UNL     1      -4.065 -10.575  13.320  0.00  0.00    +0.103 C 
ATOM     30  C   UNL     1      -2.131 -10.631  11.882  0.00  0.00    +0.105 C 
ENDBRANCH  14  19
ENDBRANCH   9  14
TORSDOF 6
ENDMDL
MODEL 8
REMARK VINA RESULT:      -6.0      3.006      8.417
REMARK  Name = 38028017
REMARK  10 active torsions:
REMARK  status: ('A' for Active; 'I' for Inactive)
REMARK    1  A    between atoms: N_3  and  C_13
REMARK    2  A    between atoms: N_5  and  C_30
REMARK    3  A    between atoms: C_6  and  C_10
REMARK    4  A    between atoms: C_7  and  C_13
REMARK    5  A    between atoms: C_9  and  C_14
REMARK    6  A    between atoms: C_10  and  C_15
REMARK    7  A    between atoms: C_10  and  C_16
REMARK    8  A    between atoms: C_11  and  C_18
REMARK    9  A    between atoms: C_14  and  C_19
REMARK   10  A    between atoms: C_17  and  C_22
REMARK                            x       y       z     vdW  Elec       q    Type
REMARK                         _______ _______ _______ _____ _____    ______ ____
ROOT
ATOM      6  C   UNL     1      -3.525 -10.690  11.342  0.00  0.00    +0.000 C 
ATOM      7  C   UNL     1      -3.425 -12.128  10.772  0.00  0.00    +0.032 C 
ATOM      8  C   UNL     1      -2.507 -10.491  12.476  0.00  0.00    +0.012 C 
ATOM      9  C   UNL     1      -2.718 -11.488  13.630  0.00  0.00    +0.023 C 
ATOM     11  C   UNL     1      -2.898 -12.906  13.124  0.00  0.00    -0.073 C 
ATOM     12  C   UNL     1      -3.200 -13.172  11.841  0.00  0.00    -0.022 C 
ATOM     18  C   UNL     1      -2.677 -14.012  14.118  0.00  0.00    +0.039 C 
ENDROOT
BRANCH   6  10
ATOM     10  C   UNL     1      -3.306  -9.632  10.256  0.00  0.00    -0.013 C 
ATOM     15  C   UNL     1      -4.466  -8.643  10.235  0.00  0.00    +0.007 C 
ATOM     16  C   UNL     1      -1.982  -8.909  10.477  0.00  0.00    +0.007 C 
ENDBRANCH   6  10
BRANCH   7  13
ATOM     13  C   UNL     1      -4.674 -12.489   9.960  0.00  0.00    +0.112 C 
BRANCH  13   3
ATOM      2  O   UNL     1      -6.359 -11.031   8.100  0.00  0.00    -0.276 OA
ATOM      3  N   UNL     1      -4.449 -12.282   8.564  0.00  0.00    -0.315 N 
ATOM     22  C   UNL     1      -5.313 -11.567   7.739  0.00  0.00    +0.216 C 
ATOM     31  H   UNL     1      -3.561 -12.595   8.183  0.00  0.00    +0.149 HD
BRANCH  22  17
ATOM     17  C   UNL     1      -4.828 -11.481   6.324  0.00  0.00    +0.075 C 
ATOM     20  C   UNL     1      -3.694 -12.483   6.102  0.00  0.00    +0.013 C 
ATOM     21  C   UNL     1      -5.998 -11.737   5.373  0.00  0.00    +0.013 C 
ATOM     23  C   UNL     1      -3.241 -12.501   4.644  0.00  0.00    +0.001 C 
ATOM     24  C   UNL     1      -5.542 -11.758   3.917  0.00  0.00    +0.001 C 
ATOM     25  C   UNL     1      -4.409 -12.757   3.695  0.00  0.00    +0.000 C 
ENDBRANCH  22  17
ENDBRANCH  13   3
ENDBRANCH   7  13
BRANCH   9  14
ATOM     14  C   UNL     1      -3.897 -11.067  14.515  0.00  0.00    +0.103 C 
BRANCH  14  19
ATOM      1  O   UNL     1      -2.454 -10.412  16.276  0.00  0.00    -0.276 OA
ATOM      4  N   UNL     1      -4.273 -11.731  16.863  0.00  0.00    -0.299 N 
ATOM      5  N   UNL     1      -6.233 -12.441  18.829  0.00  0.00    -0.302 NA
ATOM     19  C   UNL     1      -3.469 -11.038  15.960  0.00  0.00    +0.216 C 
ATOM     26  C   UNL     1      -3.929 -11.746  18.284  0.00  0.00    +0.123 C 
ATOM     27  C   UNL     1      -5.406 -12.589  16.503  0.00  0.00    +0.123 C 
ATOM     28  C   UNL     1      -5.159 -11.492  19.155  0.00  0.00    +0.103 C 
ATOM     29  C   UNL     1      -6.608 -12.325  17.412  0.00  0.00    +0.103 C 
ATOM     30  C   UNL     1      -7.395 -12.216  19.688  0.00  0.00    +0.105 C 
ENDBRANCH  14  19
ENDBRANCH   9  14
TORSDOF 6
ENDMDL
MODEL 9
REMARK VINA RESULT:      -6.0     22.953     25.975
REMARK  Name = 38028017
REMARK  10 active torsions:
REMARK  status: ('A' for Active; 'I' for Inactive)
REMARK    1  A    between atoms: N_3  and  C_13
REMARK    2  A    between atoms: N_5  and  C_30
REMARK    3  A    between atoms: C_6  and  C_10
REMARK    4  A    between atoms: C_7  and  C_13
REMARK    5  A    between atoms: C_9  and  C_14
REMARK    6  A    between atoms: C_10  and  C_15
REMARK    7  A    between atoms: C_10  and  C_16
REMARK    8  A    between atoms: C_11  and  C_18
REMARK    9  A    between atoms: C_14  and  C_19
REMARK   10  A    between atoms: C_17  and  C_22
REMARK                            x       y       z     vdW  Elec       q    Type
REMARK                         _______ _______ _______ _____ _____    ______ ____
ROOT
ATOM      6  C   UNL     1       8.942   8.509   4.886  0.00  0.00    +0.000 C 
ATOM      7  C   UNL     1       8.623   9.187   6.242  0.00  0.00    +0.032 C 
ATOM      8  C   UNL     1       8.447   7.055   4.883  0.00  0.00    +0.012 C 
ATOM      9  C   UNL     1       9.086   6.220   6.009  0.00  0.00    +0.023 C 
ATOM     11  C   UNL     1       9.049   6.945   7.339  0.00  0.00    -0.073 C 
ATOM     12  C   UNL     1       8.828   8.269   7.424  0.00  0.00    -0.022 C 
ATOM     18  C   UNL     1       9.229   6.105   8.573  0.00  0.00    +0.039 C 
ENDROOT
BRANCH   6  10
ATOM     10  C   UNL     1       8.322   9.271   3.710  0.00  0.00    -0.013 C 
ATOM     15  C   UNL     1       8.462   8.466   2.422  0.00  0.00    +0.007 C 
ATOM     16  C   UNL     1       6.858   9.587   3.994  0.00  0.00    +0.007 C 
ENDBRANCH   6  10
BRANCH   7  13
ATOM     13  C   UNL     1       9.455  10.460   6.434  0.00  0.00    +0.112 C 
BRANCH  13   3
ATOM      2  O   UNL     1      11.453  10.508   8.539  0.00  0.00    -0.276 OA
ATOM      3  N   UNL     1      10.850  10.177   6.312  0.00  0.00    -0.315 N 
ATOM     22  C   UNL     1      11.745  10.224   7.379  0.00  0.00    +0.216 C 
ATOM     31  H   UNL     1      11.181   9.831   5.417  0.00  0.00    +0.149 HD
BRANCH  22  17
ATOM     17  C   UNL     1      13.142   9.860   6.983  0.00  0.00    +0.075 C 
ATOM     20  C   UNL     1      13.274   8.339   6.878  0.00  0.00    +0.013 C 
ATOM     21  C   UNL     1      13.486  10.545   5.658  0.00  0.00    +0.013 C 
ATOM     23  C   UNL     1      14.656   7.931   6.375  0.00  0.00    +0.001 C 
ATOM     24  C   UNL     1      14.866  10.132   5.155  0.00  0.00    +0.001 C 
ATOM     25  C   UNL     1      14.998   8.614   5.054  0.00  0.00    +0.000 C 
ENDBRANCH  22  17
ENDBRANCH  13   3
ENDBRANCH   7  13
BRANCH   9  14
ATOM     14  C   UNL     1      10.519   5.811   5.646  0.00  0.00    +0.103 C 
BRANCH  14  19
ATOM      1  O   UNL     1       9.950   3.588   5.052  0.00  0.00    -0.276 OA
ATOM      4  N   UNL     1      11.094   4.828   3.455  0.00  0.00    -0.299 N 
ATOM      5  N   UNL     1      11.589   5.366   0.685  0.00  0.00    -0.302 NA
ATOM     19  C   UNL     1      10.493   4.638   4.698  0.00  0.00    +0.216 C 
ATOM     26  C   UNL     1      11.107   3.741   2.478  0.00  0.00    +0.123 C 
ATOM     27  C   UNL     1      11.860   6.013   3.056  0.00  0.00    +0.123 C 
ATOM     28  C   UNL     1      10.729   4.243   1.085  0.00  0.00    +0.103 C 
ATOM     29  C   UNL     1      11.473   6.470   1.648  0.00  0.00    +0.103 C 
ATOM     30  C   UNL     1      11.246   5.821  -0.662  0.00  0.00    +0.105 C 
ENDBRANCH  14  19
ENDBRANCH   9  14
TORSDOF 6
ENDMDL
MODEL 10
REMARK VINA RESULT:      -5.8     25.773     29.856
REMARK  Name = 38028017
REMARK  10 active torsions:
REMARK  status: ('A' for Active; 'I' for Inactive)
REMARK    1  A    between atoms: N_3  and  C_13
REMARK    2  A    between atoms: N_5  and  C_30
REMARK    3  A    between atoms: C_6  and  C_10
REMARK    4  A    between atoms: C_7  and  C_13
REMARK    5  A    between atoms: C_9  and  C_14
REMARK    6  A    between atoms: C_10  and  C_15
REMARK    7  A    between atoms: C_10  and  C_16
REMARK    8  A    between atoms: C_11  and  C_18
REMARK    9  A    between atoms: C_14  and  C_19
REMARK   10  A    between atoms: C_17  and  C_22
REMARK                            x       y       z     vdW  Elec       q    Type
REMARK                         _______ _______ _______ _____ _____    ______ ____
ROOT
ATOM      6  C   UNL     1     -12.585   8.131  35.175  0.00  0.00    +0.000 C 
ATOM      7  C   UNL     1     -13.920   7.478  34.737  0.00  0.00    +0.032 C 
ATOM      8  C   UNL     1     -12.504   9.579  34.670  0.00  0.00    +0.012 C 
ATOM      9  C   UNL     1     -12.610   9.668  33.136  0.00  0.00    +0.023 C 
ATOM     11  C   UNL     1     -13.751   8.826  32.600  0.00  0.00    -0.073 C 
ATOM     12  C   UNL     1     -14.332   7.861  33.335  0.00  0.00    -0.022 C 
ATOM     18  C   UNL     1     -14.238   9.150  31.215  0.00  0.00    +0.039 C 
ENDROOT
BRANCH   6  10
ATOM     10  C   UNL     1     -12.411   8.102  36.698  0.00  0.00    -0.013 C 
ATOM     15  C   UNL     1     -10.974   7.744  37.062  0.00  0.00    +0.007 C 
ATOM     16  C   UNL     1     -12.805   9.445  37.303  0.00  0.00    +0.007 C 
ENDBRANCH   6  10
BRANCH   7  13
ATOM     13  C   UNL     1     -13.851   5.951  34.849  0.00  0.00    +0.112 C 
BRANCH  13   3
ATOM      2  O   UNL     1     -14.595   3.243  34.113  0.00  0.00    -0.276 OA
ATOM      3  N   UNL     1     -13.769   5.349  33.556  0.00  0.00    -0.315 N 
ATOM     22  C   UNL     1     -14.148   4.036  33.288  0.00  0.00    +0.216 C 
ATOM     31  H   UNL     1     -13.509   5.948  32.778  0.00  0.00    +0.149 HD
BRANCH  22  17
ATOM     17  C   UNL     1     -13.983   3.666  31.845  0.00  0.00    +0.075 C 
ATOM     20  C   UNL     1     -13.798   2.154  31.714  0.00  0.00    +0.013 C 
ATOM     21  C   UNL     1     -15.200   4.153  31.057  0.00  0.00    +0.013 C 
ATOM     23  C   UNL     1     -13.729   1.723  30.251  0.00  0.00    +0.001 C 
ATOM     24  C   UNL     1     -15.131   3.718  29.595  0.00  0.00    +0.001 C 
ATOM     25  C   UNL     1     -14.944   2.209  29.465  0.00  0.00    +0.000 C 
ENDBRANCH  22  17
ENDBRANCH  13   3
ENDBRANCH   7  13
BRANCH   9  14
ATOM     14  C   UNL     1     -11.284   9.284  32.469  0.00  0.00    +0.103 C 
BRANCH  14  19
ATOM      1  O   UNL     1     -10.785  11.212  31.185  0.00  0.00    -0.276 OA
ATOM      4  N   UNL     1      -9.437  10.821  33.036  0.00  0.00    -0.299 N 
ATOM      5  N   UNL     1      -7.827  11.898  35.148  0.00  0.00    -0.302 NA
ATOM     19  C   UNL     1     -10.483  10.525  32.165  0.00  0.00    +0.216 C 
ATOM     26  C   UNL     1      -8.616  12.010  32.812  0.00  0.00    +0.123 C 
ATOM     27  C   UNL     1      -8.972   9.958  34.126  0.00  0.00    +0.123 C 
ATOM     28  C   UNL     1      -8.388  12.779  34.113  0.00  0.00    +0.103 C 
ATOM     29  C   UNL     1      -8.730  10.766  35.403  0.00  0.00    +0.103 C 
ATOM     30  C   UNL     1      -7.579  12.646  36.380  0.00  0.00    +0.105 C 
ENDBRANCH  14  19
ENDBRANCH   9  14
TORSDOF 6
ENDMDL
