MODEL 1
REMARK VINA RESULT:      -6.8      0.000      0.000
REMARK  Name = 75536382
REMARK  9 active torsions:
REMARK  status: ('A' for Active; 'I' for Inactive)
REMARK    1  A    between atoms: O_2  and  C_8
REMARK    2  A    between atoms: O_4  and  C_22
REMARK    3  A    between atoms: N_5  and  C_12
REMARK    4  A    between atoms: N_5  and  C_15
REMARK    5  A    between atoms: N_5  and  C_16
REMARK    6  A    between atoms: C_7  and  C_12
REMARK    7  A    between atoms: C_9  and  C_13
REMARK    8  A    between atoms: C_13  and  C_14
REMARK    9  A    between atoms: C_18  and  C_19
REMARK                            x       y       z     vdW  Elec       q    Type
REMARK                         _______ _______ _______ _____ _____    ______ ____
ROOT
ATOM     13  C   UNL     1      11.395   8.611  17.596  0.00  0.00    +0.090 C 
ENDROOT
BRANCH  13   9
ATOM      1  O   UNL     1      10.768   8.452  19.890  0.00  0.00    -0.369 OA
ATOM      7  C   UNL     1      11.053   8.229  21.277  0.00  0.00    +0.161 C 
ATOM      8  C   UNL     1      11.721   6.865  21.497  0.00  0.00    +0.145 C 
ATOM      9  C   UNL     1      11.890   8.342  19.012  0.00  0.00    +0.125 C 
ATOM     10  C   UNL     1      12.902   6.639  20.556  0.00  0.00    +0.036 C 
ATOM     11  C   UNL     1      12.519   6.952  19.113  0.00  0.00    +0.034 C 
BRANCH   8   2
ATOM      2  O   UNL     1      10.761   5.836  21.247  0.00  0.00    -0.389 OA
ATOM     25  H   UNL     1      11.111   5.275  20.532  0.00  0.00    +0.210 HD
ENDBRANCH   8   2
BRANCH   7  12
ATOM     12  C   UNL     1      11.854   9.387  21.867  0.00  0.00    +0.118 C 
BRANCH  12   5
ATOM      5  N   UNL     1      10.977  10.487  22.239  0.00  0.00    -0.306 NA
ATOM     15  C   UNL     1      11.407  11.733  21.598  0.00  0.00    +0.104 C 
ATOM     16  C   UNL     1      10.942  10.654  23.694  0.00  0.00    +0.104 C 
ENDBRANCH  12   5
ENDBRANCH   7  12
ENDBRANCH  13   9
BRANCH  13  14
ATOM      3  O   UNL     1      13.515   9.894  14.978  0.00  0.00    -0.354 OA
ATOM      6  N   UNL     1      12.428   9.154  15.429  0.00  0.00    -0.083 NA
ATOM     14  C   UNL     1      12.446   9.289  16.758  0.00  0.00    +0.087 A 
ATOM     17  C   UNL     1      13.510  10.095  17.199  0.00  0.00    +0.076 A 
ATOM     18  C   UNL     1      14.151  10.450  16.041  0.00  0.00    +0.168 A 
BRANCH  18  19
ATOM     19  C   UNL     1      15.300  11.249  15.731  0.00  0.00    +0.023 A 
ATOM     20  C   UNL     1      15.901  11.151  14.477  0.00  0.00    +0.057 A 
ATOM     21  C   UNL     1      15.818  12.125  16.686  0.00  0.00    +0.012 A 
ATOM     22  C   UNL     1      17.019  11.928  14.177  0.00  0.00    +0.118 A 
ATOM     23  C   UNL     1      16.937  12.902  16.386  0.00  0.00    +0.004 A 
ATOM     24  C   UNL     1      17.538  12.803  15.130  0.00  0.00    +0.045 A 
BRANCH  22   4
ATOM      4  O   UNL     1      17.607  11.831  12.953  0.00  0.00    -0.507 OA
ATOM     26  H   UNL     1      17.360  12.607  12.421  0.00  0.00    +0.292 HD
ENDBRANCH  22   4
ENDBRANCH  18  19
ENDBRANCH  13  14
TORSDOF 7
ENDMDL
MODEL 2
REMARK VINA RESULT:      -6.2     25.615     28.097
REMARK  Name = 75536382
REMARK  9 active torsions:
REMARK  status: ('A' for Active; 'I' for Inactive)
REMARK    1  A    between atoms: O_2  and  C_8
REMARK    2  A    between atoms: O_4  and  C_22
REMARK    3  A    between atoms: N_5  and  C_12
REMARK    4  A    between atoms: N_5  and  C_15
REMARK    5  A    between atoms: N_5  and  C_16
REMARK    6  A    between atoms: C_7  and  C_12
REMARK    7  A    between atoms: C_9  and  C_13
REMARK    8  A    between atoms: C_13  and  C_14
REMARK    9  A    between atoms: C_18  and  C_19
REMARK                            x       y       z     vdW  Elec       q    Type
REMARK                         _______ _______ _______ _____ _____    ______ ____
ROOT
ATOM     13  C   UNL     1     -13.761   5.043  23.026  0.00  0.00    +0.090 C 
ENDROOT
BRANCH  13   9
ATOM      1  O   UNL     1     -15.710   4.426  21.801  0.00  0.00    -0.369 OA
ATOM      7  C   UNL     1     -17.123   4.221  21.672  0.00  0.00    +0.161 C 
ATOM      8  C   UNL     1     -17.648   3.259  22.746  0.00  0.00    +0.145 C 
ATOM      9  C   UNL     1     -15.276   4.884  23.084  0.00  0.00    +0.125 C 
ATOM     10  C   UNL     1     -17.182   3.644  24.148  0.00  0.00    +0.036 C 
ATOM     11  C   UNL     1     -15.677   3.893  24.175  0.00  0.00    +0.034 C 
BRANCH   8   2
ATOM      2  O   UNL     1     -17.156   1.946  22.468  0.00  0.00    -0.389 OA
ATOM     25  H   UNL     1     -17.270   1.785  21.515  0.00  0.00    +0.210 HD
ENDBRANCH   8   2
BRANCH   7  12
ATOM     12  C   UNL     1     -17.871   5.552  21.647  0.00  0.00    +0.118 C 
BRANCH  12   5
ATOM      5  N   UNL     1     -18.121   5.981  20.279  0.00  0.00    -0.306 NA
ATOM     15  C   UNL     1     -18.180   4.829  19.376  0.00  0.00    +0.104 C 
ATOM     16  C   UNL     1     -17.089   6.920  19.833  0.00  0.00    +0.104 C 
ENDBRANCH  12   5
ENDBRANCH   7  12
ENDBRANCH  13   9
BRANCH  13  14
ATOM      3  O   UNL     1     -13.432   8.037  21.046  0.00  0.00    -0.354 OA
ATOM      6  N   UNL     1     -14.078   7.256  21.997  0.00  0.00    -0.083 NA
ATOM     14  C   UNL     1     -13.352   6.137  22.077  0.00  0.00    +0.087 A 
ATOM     17  C   UNL     1     -12.247   6.155  21.209  0.00  0.00    +0.076 A 
ATOM     18  C   UNL     1     -12.343   7.370  20.583  0.00  0.00    +0.168 A 
BRANCH  18  19
ATOM     19  C   UNL     1     -11.569   8.055  19.590  0.00  0.00    +0.023 A 
ATOM     20  C   UNL     1     -11.285   7.433  18.374  0.00  0.00    +0.057 A 
ATOM     21  C   UNL     1     -11.097   9.344  19.841  0.00  0.00    +0.012 A 
ATOM     22  C   UNL     1     -10.531   8.100  17.409  0.00  0.00    +0.118 A 
ATOM     23  C   UNL     1     -10.343  10.011  18.875  0.00  0.00    +0.004 A 
ATOM     24  C   UNL     1     -10.059   9.388  17.659  0.00  0.00    +0.045 A 
BRANCH  22   4
ATOM      4  O   UNL     1     -10.253   7.492  16.224  0.00  0.00    -0.507 OA
ATOM     26  H   UNL     1     -10.596   8.042  15.499  0.00  0.00    +0.292 HD
ENDBRANCH  22   4
ENDBRANCH  18  19
ENDBRANCH  13  14
TORSDOF 7
ENDMDL
MODEL 3
REMARK VINA RESULT:      -6.1     13.205     16.801
REMARK  Name = 75536382
REMARK  9 active torsions:
REMARK  status: ('A' for Active; 'I' for Inactive)
REMARK    1  A    between atoms: O_2  and  C_8
REMARK    2  A    between atoms: O_4  and  C_22
REMARK    3  A    between atoms: N_5  and  C_12
REMARK    4  A    between atoms: N_5  and  C_15
REMARK    5  A    between atoms: N_5  and  C_16
REMARK    6  A    between atoms: C_7  and  C_12
REMARK    7  A    between atoms: C_9  and  C_13
REMARK    8  A    between atoms: C_13  and  C_14
REMARK    9  A    between atoms: C_18  and  C_19
REMARK                            x       y       z     vdW  Elec       q    Type
REMARK                         _______ _______ _______ _____ _____    ______ ____
ROOT
ATOM     13  C   UNL     1      11.097   3.976   1.447  0.00  0.00    +0.090 C 
ENDROOT
BRANCH  13   9
ATOM      1  O   UNL     1      13.234   4.813   2.089  0.00  0.00    -0.369 OA
ATOM      7  C   UNL     1      14.539   5.331   1.801  0.00  0.00    +0.161 C 
ATOM      8  C   UNL     1      15.327   4.382   0.889  0.00  0.00    +0.145 C 
ATOM      9  C   UNL     1      12.435   4.506   0.945  0.00  0.00    +0.125 C 
ATOM     10  C   UNL     1      14.523   3.955  -0.337  0.00  0.00    +0.036 C 
ATOM     11  C   UNL     1      13.133   3.471   0.063  0.00  0.00    +0.034 C 
BRANCH   8   2
ATOM      2  O   UNL     1      15.658   3.203   1.626  0.00  0.00    -0.389 OA
ATOM     25  H   UNL     1      14.830   2.721   1.796  0.00  0.00    +0.210 HD
ENDBRANCH   8   2
BRANCH   7  12
ATOM     12  C   UNL     1      14.458   6.755   1.254  0.00  0.00    +0.118 C 
BRANCH  12   5
ATOM      5  N   UNL     1      13.926   7.666   2.255  0.00  0.00    -0.306 NA
ATOM     15  C   UNL     1      12.934   8.567   1.663  0.00  0.00    +0.104 C 
ATOM     16  C   UNL     1      15.003   8.440   2.878  0.00  0.00    +0.104 C 
ENDBRANCH  12   5
ENDBRANCH   7  12
ENDBRANCH  13   9
BRANCH  13  14
ATOM      3  O   UNL     1       9.797   6.402   3.775  0.00  0.00    -0.354 OA
ATOM      6  N   UNL     1      10.164   5.997   2.496  0.00  0.00    -0.083 NA
ATOM     14  C   UNL     1      10.608   4.746   2.645  0.00  0.00    +0.087 A 
ATOM     17  C   UNL     1      10.545   4.312   3.980  0.00  0.00    +0.076 A 
ATOM     18  C   UNL     1      10.029   5.390   4.649  0.00  0.00    +0.168 A 
BRANCH  18  19
ATOM     19  C   UNL     1       9.696   5.661   6.017  0.00  0.00    +0.023 A 
ATOM     20  C   UNL     1      10.069   4.764   7.018  0.00  0.00    +0.057 A 
ATOM     21  C   UNL     1       8.995   6.821   6.347  0.00  0.00    +0.012 A 
ATOM     22  C   UNL     1       9.743   5.027   8.347  0.00  0.00    +0.118 A 
ATOM     23  C   UNL     1       8.668   7.085   7.677  0.00  0.00    +0.004 A 
ATOM     24  C   UNL     1       9.042   6.187   8.678  0.00  0.00    +0.045 A 
BRANCH  22   4
ATOM      4  O   UNL     1      10.106   4.151   9.323  0.00  0.00    -0.507 OA
ATOM     26  H   UNL     1      10.007   4.583  10.189  0.00  0.00    +0.292 HD
ENDBRANCH  22   4
ENDBRANCH  18  19
ENDBRANCH  13  14
TORSDOF 7
ENDMDL
MODEL 4
REMARK VINA RESULT:      -6.0      2.366      3.359
REMARK  Name = 75536382
REMARK  9 active torsions:
REMARK  status: ('A' for Active; 'I' for Inactive)
REMARK    1  A    between atoms: O_2  and  C_8
REMARK    2  A    between atoms: O_4  and  C_22
REMARK    3  A    between atoms: N_5  and  C_12
REMARK    4  A    between atoms: N_5  and  C_15
REMARK    5  A    between atoms: N_5  and  C_16
REMARK    6  A    between atoms: C_7  and  C_12
REMARK    7  A    between atoms: C_9  and  C_13
REMARK    8  A    between atoms: C_13  and  C_14
REMARK    9  A    between atoms: C_18  and  C_19
REMARK                            x       y       z     vdW  Elec       q    Type
REMARK                         _______ _______ _______ _____ _____    ______ ____
ROOT
ATOM     13  C   UNL     1      11.957   8.666  17.975  0.00  0.00    +0.090 C 
ENDROOT
BRANCH  13   9
ATOM      1  O   UNL     1      13.784   8.502  19.496  0.00  0.00    -0.369 OA
ATOM      7  C   UNL     1      14.518   7.852  20.542  0.00  0.00    +0.161 C 
ATOM      8  C   UNL     1      13.636   7.607  21.774  0.00  0.00    +0.145 C 
ATOM      9  C   UNL     1      12.591   7.833  19.083  0.00  0.00    +0.125 C 
ATOM     10  C   UNL     1      12.310   6.943  21.414  0.00  0.00    +0.036 C 
ATOM     11  C   UNL     1      11.629   7.672  20.259  0.00  0.00    +0.034 C 
BRANCH   8   2
ATOM      2  O   UNL     1      13.343   8.864  22.387  0.00  0.00    -0.389 OA
ATOM     25  H   UNL     1      12.913   8.681  23.241  0.00  0.00    +0.210 HD
ENDBRANCH   8   2
BRANCH   7  12
ATOM     12  C   UNL     1      15.196   6.582  20.031  0.00  0.00    +0.118 C 
BRANCH  12   5
ATOM      5  N   UNL     1      16.604   6.820  19.757  0.00  0.00    -0.306 NA
ATOM     15  C   UNL     1      17.149   5.771  18.890  0.00  0.00    +0.104 C 
ATOM     16  C   UNL     1      17.371   6.894  21.003  0.00  0.00    +0.104 C 
ENDBRANCH  12   5
ENDBRANCH   7  12
ENDBRANCH  13   9
BRANCH  13  14
ATOM      3  O   UNL     1      14.320   9.104  15.288  0.00  0.00    -0.354 OA
ATOM      6  N   UNL     1      13.389   8.354  15.998  0.00  0.00    -0.083 NA
ATOM     14  C   UNL     1      12.985   9.154  16.989  0.00  0.00    +0.087 A 
ATOM     17  C   UNL     1      13.620  10.407  16.956  0.00  0.00    +0.076 A 
ATOM     18  C   UNL     1      14.450  10.324  15.869  0.00  0.00    +0.168 A 
BRANCH  18  19
ATOM     19  C   UNL     1      15.381  11.216  15.243  0.00  0.00    +0.023 A 
ATOM     20  C   UNL     1      15.649  11.101  13.880  0.00  0.00    +0.057 A 
ATOM     21  C   UNL     1      16.023  12.197  16.000  0.00  0.00    +0.012 A 
ATOM     22  C   UNL     1      16.557  11.968  13.272  0.00  0.00    +0.118 A 
ATOM     23  C   UNL     1      16.932  13.064  15.393  0.00  0.00    +0.004 A 
ATOM     24  C   UNL     1      17.199  12.949  14.028  0.00  0.00    +0.045 A 
BRANCH  22   4
ATOM      4  O   UNL     1      16.819  11.855  11.941  0.00  0.00    -0.507 OA
ATOM     26  H   UNL     1      16.071  11.409  11.509  0.00  0.00    +0.292 HD
ENDBRANCH  22   4
ENDBRANCH  18  19
ENDBRANCH  13  14
TORSDOF 7
ENDMDL
MODEL 5
REMARK VINA RESULT:      -6.0     31.312     32.479
REMARK  Name = 75536382
REMARK  9 active torsions:
REMARK  status: ('A' for Active; 'I' for Inactive)
REMARK    1  A    between atoms: O_2  and  C_8
REMARK    2  A    between atoms: O_4  and  C_22
REMARK    3  A    between atoms: N_5  and  C_12
REMARK    4  A    between atoms: N_5  and  C_15
REMARK    5  A    between atoms: N_5  and  C_16
REMARK    6  A    between atoms: C_7  and  C_12
REMARK    7  A    between atoms: C_9  and  C_13
REMARK    8  A    between atoms: C_13  and  C_14
REMARK    9  A    between atoms: C_18  and  C_19
REMARK                            x       y       z     vdW  Elec       q    Type
REMARK                         _______ _______ _______ _____ _____    ______ ____
ROOT
ATOM     13  C   UNL     1     -15.764   0.840  28.903  0.00  0.00    +0.090 C 
ENDROOT
BRANCH  13   9
ATOM      1  O   UNL     1     -15.775   2.854  27.630  0.00  0.00    -0.369 OA
ATOM      7  C   UNL     1     -16.359   3.765  26.689  0.00  0.00    +0.161 C 
ATOM      8  C   UNL     1     -16.664   3.070  25.355  0.00  0.00    +0.145 C 
ATOM      9  C   UNL     1     -16.538   1.674  27.888  0.00  0.00    +0.125 C 
ATOM     10  C   UNL     1     -17.432   1.764  25.543  0.00  0.00    +0.036 C 
ATOM     11  C   UNL     1     -16.767   0.886  26.599  0.00  0.00    +0.034 C 
BRANCH   8   2
ATOM      2  O   UNL     1     -15.430   2.760  24.704  0.00  0.00    -0.389 OA
ATOM     25  H   UNL     1     -15.123   3.567  24.256  0.00  0.00    +0.210 HD
ENDBRANCH   8   2
BRANCH   7  12
ATOM     12  C   UNL     1     -17.575   4.468  27.287  0.00  0.00    +0.118 C 
BRANCH  12   5
ATOM      5  N   UNL     1     -17.218   5.175  28.507  0.00  0.00    -0.306 NA
ATOM     15  C   UNL     1     -18.116   4.804  29.604  0.00  0.00    +0.104 C 
ATOM     16  C   UNL     1     -17.250   6.624  28.297  0.00  0.00    +0.104 C 
ENDBRANCH  12   5
ENDBRANCH   7  12
ENDBRANCH  13   9
BRANCH  13  14
ATOM      3  O   UNL     1     -13.443   2.599  31.026  0.00  0.00    -0.354 OA
ATOM      6  N   UNL     1     -13.740   1.709  30.000  0.00  0.00    -0.083 NA
ATOM     14  C   UNL     1     -15.074   1.705  29.923  0.00  0.00    +0.087 A 
ATOM     17  C   UNL     1     -15.666   2.563  30.865  0.00  0.00    +0.076 A 
ATOM     18  C   UNL     1     -14.598   3.100  31.534  0.00  0.00    +0.168 A 
BRANCH  18  19
ATOM     19  C   UNL     1     -14.450   4.040  32.606  0.00  0.00    +0.023 A 
ATOM     20  C   UNL     1     -14.518   3.606  33.930  0.00  0.00    +0.057 A 
ATOM     21  C   UNL     1     -14.242   5.391  32.325  0.00  0.00    +0.012 A 
ATOM     22  C   UNL     1     -14.376   4.521  34.972  0.00  0.00    +0.118 A 
ATOM     23  C   UNL     1     -14.100   6.307  33.368  0.00  0.00    +0.004 A 
ATOM     24  C   UNL     1     -14.167   5.871  34.693  0.00  0.00    +0.045 A 
BRANCH  22   4
ATOM      4  O   UNL     1     -14.443   4.097  36.264  0.00  0.00    -0.507 OA
ATOM     26  H   UNL     1     -15.224   4.494  36.686  0.00  0.00    +0.292 HD
ENDBRANCH  22   4
ENDBRANCH  18  19
ENDBRANCH  13  14
TORSDOF 7
ENDMDL
MODEL 6
REMARK VINA RESULT:      -5.9     24.026     27.338
REMARK  Name = 75536382
REMARK  9 active torsions:
REMARK  status: ('A' for Active; 'I' for Inactive)
REMARK    1  A    between atoms: O_2  and  C_8
REMARK    2  A    between atoms: O_4  and  C_22
REMARK    3  A    between atoms: N_5  and  C_12
REMARK    4  A    between atoms: N_5  and  C_15
REMARK    5  A    between atoms: N_5  and  C_16
REMARK    6  A    between atoms: C_7  and  C_12
REMARK    7  A    between atoms: C_9  and  C_13
REMARK    8  A    between atoms: C_13  and  C_14
REMARK    9  A    between atoms: C_18  and  C_19
REMARK                            x       y       z     vdW  Elec       q    Type
REMARK                         _______ _______ _______ _____ _____    ______ ____
ROOT
ATOM     13  C   UNL     1     -10.880   8.439  19.763  0.00  0.00    +0.090 C 
ENDROOT
BRANCH  13   9
ATOM      1  O   UNL     1     -10.036   9.148  17.650  0.00  0.00    -0.369 OA
ATOM      7  C   UNL     1     -10.196   9.657  16.319  0.00  0.00    +0.161 C 
ATOM      8  C   UNL     1     -11.158   8.786  15.500  0.00  0.00    +0.145 C 
ATOM      9  C   UNL     1     -11.249   8.981  18.387  0.00  0.00    +0.125 C 
ATOM     10  C   UNL     1     -12.464   8.510  16.240  0.00  0.00    +0.036 C 
ATOM     11  C   UNL     1     -12.194   8.024  17.662  0.00  0.00    +0.034 C 
BRANCH   8   2
ATOM      2  O   UNL     1     -10.531   7.529  15.238  0.00  0.00    -0.389 OA
ATOM     25  H   UNL     1     -11.135   6.830  15.542  0.00  0.00    +0.210 HD
ENDBRANCH   8   2
BRANCH   7  12
ATOM     12  C   UNL     1     -10.595  11.131  16.338  0.00  0.00    +0.118 C 
BRANCH  12   5
ATOM      5  N   UNL     1      -9.739  11.889  17.237  0.00  0.00    -0.306 NA
ATOM     15  C   UNL     1     -10.541  12.709  18.150  0.00  0.00    +0.104 C 
ATOM     16  C   UNL     1      -8.812  12.735  16.482  0.00  0.00    +0.104 C 
ENDBRANCH  12   5
ENDBRANCH   7  12
ENDBRANCH  13   9
BRANCH  13  14
ATOM      3  O   UNL     1     -13.846   8.613  21.805  0.00  0.00    -0.354 OA
ATOM      6  N   UNL     1     -12.807   9.200  21.091  0.00  0.00    -0.083 NA
ATOM     14  C   UNL     1     -12.101   8.176  20.603  0.00  0.00    +0.087 A 
ATOM     17  C   UNL     1     -12.641   6.932  20.972  0.00  0.00    +0.076 A 
ATOM     18  C   UNL     1     -13.735   7.262  21.726  0.00  0.00    +0.168 A 
BRANCH  18  19
ATOM     19  C   UNL     1     -14.745   6.514  22.417  0.00  0.00    +0.023 A 
ATOM     20  C   UNL     1     -14.727   5.120  22.383  0.00  0.00    +0.057 A 
ATOM     21  C   UNL     1     -15.747   7.182  23.122  0.00  0.00    +0.012 A 
ATOM     22  C   UNL     1     -15.710   4.394  23.054  0.00  0.00    +0.118 A 
ATOM     23  C   UNL     1     -16.731   6.456  23.793  0.00  0.00    +0.004 A 
ATOM     24  C   UNL     1     -16.713   5.060  23.758  0.00  0.00    +0.045 A 
BRANCH  22   4
ATOM      4  O   UNL     1     -15.694   3.033  23.019  0.00  0.00    -0.507 OA
ATOM     26  H   UNL     1     -15.117   2.706  23.731  0.00  0.00    +0.292 HD
ENDBRANCH  22   4
ENDBRANCH  18  19
ENDBRANCH  13  14
TORSDOF 7
ENDMDL
MODEL 7
REMARK VINA RESULT:      -5.9     29.255     32.366
REMARK  Name = 75536382
REMARK  9 active torsions:
REMARK  status: ('A' for Active; 'I' for Inactive)
REMARK    1  A    between atoms: O_2  and  C_8
REMARK    2  A    between atoms: O_4  and  C_22
REMARK    3  A    between atoms: N_5  and  C_12
REMARK    4  A    between atoms: N_5  and  C_15
REMARK    5  A    between atoms: N_5  and  C_16
REMARK    6  A    between atoms: C_7  and  C_12
REMARK    7  A    between atoms: C_9  and  C_13
REMARK    8  A    between atoms: C_13  and  C_14
REMARK    9  A    between atoms: C_18  and  C_19
REMARK                            x       y       z     vdW  Elec       q    Type
REMARK                         _______ _______ _______ _____ _____    ______ ____
ROOT
ATOM     13  C   UNL     1     -16.582   1.299  26.776  0.00  0.00    +0.090 C 
ENDROOT
BRANCH  13   9
ATOM      1  O   UNL     1     -16.071   2.288  24.670  0.00  0.00    -0.369 OA
ATOM      7  C   UNL     1     -16.393   3.091  23.526  0.00  0.00    +0.161 C 
ATOM      8  C   UNL     1     -17.673   2.595  22.839  0.00  0.00    +0.145 C 
ATOM      9  C   UNL     1     -17.107   2.179  25.648  0.00  0.00    +0.125 C 
ATOM     10  C   UNL     1     -18.821   2.395  23.825  0.00  0.00    +0.036 C 
ATOM     11  C   UNL     1     -18.369   1.577  25.032  0.00  0.00    +0.034 C 
BRANCH   8   2
ATOM      2  O   UNL     1     -17.404   1.334  22.221  0.00  0.00    -0.389 OA
ATOM     25  H   UNL     1     -17.576   0.640  22.882  0.00  0.00    +0.210 HD
ENDBRANCH   8   2
BRANCH   7  12
ATOM     12  C   UNL     1     -16.449   4.572  23.892  0.00  0.00    +0.118 C 
BRANCH  12   5
ATOM      5  N   UNL     1     -15.550   5.348  23.052  0.00  0.00    -0.306 NA
ATOM     15  C   UNL     1     -14.152   5.024  23.349  0.00  0.00    +0.104 C 
ATOM     16  C   UNL     1     -15.783   6.784  23.228  0.00  0.00    +0.104 C 
ENDBRANCH  12   5
ENDBRANCH   7  12
ENDBRANCH  13   9
BRANCH  13  14
ATOM      3  O   UNL     1     -15.660   3.870  29.128  0.00  0.00    -0.354 OA
ATOM      6  N   UNL     1     -16.048   3.441  27.864  0.00  0.00    -0.083 NA
ATOM     14  C   UNL     1     -16.168   2.114  27.972  0.00  0.00    +0.087 A 
ATOM     17  C   UNL     1     -15.872   1.655  29.267  0.00  0.00    +0.076 A 
ATOM     18  C   UNL     1     -15.558   2.798  29.954  0.00  0.00    +0.168 A 
BRANCH  18  19
ATOM     19  C   UNL     1     -15.165   3.086  31.303  0.00  0.00    +0.023 A 
ATOM     20  C   UNL     1     -15.075   2.056  32.239  0.00  0.00    +0.057 A 
ATOM     21  C   UNL     1     -14.876   4.398  31.679  0.00  0.00    +0.012 A 
ATOM     22  C   UNL     1     -14.694   2.337  33.550  0.00  0.00    +0.118 A 
ATOM     23  C   UNL     1     -14.495   4.679  32.991  0.00  0.00    +0.004 A 
ATOM     24  C   UNL     1     -14.405   3.648  33.928  0.00  0.00    +0.045 A 
BRANCH  22   4
ATOM      4  O   UNL     1     -14.607   1.332  34.464  0.00  0.00    -0.507 OA
ATOM     26  H   UNL     1     -15.225   0.623  34.214  0.00  0.00    +0.292 HD
ENDBRANCH  22   4
ENDBRANCH  18  19
ENDBRANCH  13  14
TORSDOF 7
ENDMDL
MODEL 8
REMARK VINA RESULT:      -5.9     26.483     28.476
REMARK  Name = 75536382
REMARK  9 active torsions:
REMARK  status: ('A' for Active; 'I' for Inactive)
REMARK    1  A    between atoms: O_2  and  C_8
REMARK    2  A    between atoms: O_4  and  C_22
REMARK    3  A    between atoms: N_5  and  C_12
REMARK    4  A    between atoms: N_5  and  C_15
REMARK    5  A    between atoms: N_5  and  C_16
REMARK    6  A    between atoms: C_7  and  C_12
REMARK    7  A    between atoms: C_9  and  C_13
REMARK    8  A    between atoms: C_13  and  C_14
REMARK    9  A    between atoms: C_18  and  C_19
REMARK                            x       y       z     vdW  Elec       q    Type
REMARK                         _______ _______ _______ _____ _____    ______ ____
ROOT
ATOM     13  C   UNL     1      -2.512 -10.519  12.446  0.00  0.00    +0.090 C 
ENDROOT
BRANCH  13   9
ATOM      1  O   UNL     1      -4.530  -9.486  11.712  0.00  0.00    -0.369 OA
ATOM      7  C   UNL     1      -5.769  -9.478  10.990  0.00  0.00    +0.161 C 
ATOM      8  C   UNL     1      -5.555  -9.819   9.509  0.00  0.00    +0.145 C 
ATOM      9  C   UNL     1      -3.781 -10.700  11.622  0.00  0.00    +0.125 C 
ATOM     10  C   UNL     1      -4.711 -11.077   9.320  0.00  0.00    +0.036 C 
ATOM     11  C   UNL     1      -3.443 -11.018  10.166  0.00  0.00    +0.034 C 
BRANCH   8   2
ATOM      2  O   UNL     1      -4.866  -8.734   8.882  0.00  0.00    -0.389 OA
ATOM     25  H   UNL     1      -5.533  -8.081   8.608  0.00  0.00    +0.210 HD
ENDBRANCH   8   2
BRANCH   7  12
ATOM     12  C   UNL     1      -6.804 -10.375  11.664  0.00  0.00    +0.118 C 
BRANCH  12   5
ATOM      5  N   UNL     1      -7.734  -9.587  12.459  0.00  0.00    -0.306 NA
ATOM     15  C   UNL     1      -7.619  -9.925  13.880  0.00  0.00    +0.104 C 
ATOM     16  C   UNL     1      -9.111  -9.792  12.001  0.00  0.00    +0.104 C 
ENDBRANCH  12   5
ENDBRANCH   7  12
ENDBRANCH  13   9
BRANCH  13  14
ATOM      3  O   UNL     1      -2.409 -10.461  16.049  0.00  0.00    -0.354 OA
ATOM      6  N   UNL     1      -1.809 -10.354  14.799  0.00  0.00    -0.083 NA
ATOM     14  C   UNL     1      -2.797 -10.562  13.923  0.00  0.00    +0.087 A 
ATOM     17  C   UNL     1      -4.029 -10.803  14.555  0.00  0.00    +0.076 A 
ATOM     18  C   UNL     1      -3.730 -10.729  15.890  0.00  0.00    +0.168 A 
BRANCH  18  19
ATOM     19  C   UNL     1      -4.487 -10.868  17.100  0.00  0.00    +0.023 A 
ATOM     20  C   UNL     1      -5.719 -10.228  17.230  0.00  0.00    +0.057 A 
ATOM     21  C   UNL     1      -3.988 -11.640  18.150  0.00  0.00    +0.012 A 
ATOM     22  C   UNL     1      -6.453 -10.361  18.408  0.00  0.00    +0.118 A 
ATOM     23  C   UNL     1      -4.722 -11.773  19.329  0.00  0.00    +0.004 A 
ATOM     24  C   UNL     1      -5.956 -11.133  19.458  0.00  0.00    +0.045 A 
BRANCH  22   4
ATOM      4  O   UNL     1      -7.656  -9.736  18.535  0.00  0.00    -0.507 OA
ATOM     26  H   UNL     1      -7.517  -8.774  18.498  0.00  0.00    +0.292 HD
ENDBRANCH  22   4
ENDBRANCH  18  19
ENDBRANCH  13  14
TORSDOF 7
ENDMDL
MODEL 9
REMARK VINA RESULT:      -5.9     30.292     32.711
REMARK  Name = 75536382
REMARK  9 active torsions:
REMARK  status: ('A' for Active; 'I' for Inactive)
REMARK    1  A    between atoms: O_2  and  C_8
REMARK    2  A    between atoms: O_4  and  C_22
REMARK    3  A    between atoms: N_5  and  C_12
REMARK    4  A    between atoms: N_5  and  C_15
REMARK    5  A    between atoms: N_5  and  C_16
REMARK    6  A    between atoms: C_7  and  C_12
REMARK    7  A    between atoms: C_9  and  C_13
REMARK    8  A    between atoms: C_13  and  C_14
REMARK    9  A    between atoms: C_18  and  C_19
REMARK                            x       y       z     vdW  Elec       q    Type
REMARK                         _______ _______ _______ _____ _____    ______ ____
ROOT
ATOM     13  C   UNL     1     -15.480   0.500  28.978  0.00  0.00    +0.090 C 
ENDROOT
BRANCH  13   9
ATOM      1  O   UNL     1     -16.221   0.722  26.724  0.00  0.00    -0.369 OA
ATOM      7  C   UNL     1     -17.070   1.274  25.709  0.00  0.00    +0.161 C 
ATOM      8  C   UNL     1     -18.552   1.054  26.041  0.00  0.00    +0.145 C 
ATOM      9  C   UNL     1     -16.472   1.192  28.050  0.00  0.00    +0.125 C 
ATOM     10  C   UNL     1     -18.898   1.478  27.466  0.00  0.00    +0.036 C 
ATOM     11  C   UNL     1     -17.910   0.886  28.467  0.00  0.00    +0.034 C 
BRANCH   8   2
ATOM      2  O   UNL     1     -18.849  -0.339  25.917  0.00  0.00    -0.389 OA
ATOM     25  H   UNL     1     -18.051  -0.834  26.169  0.00  0.00    +0.210 HD
ENDBRANCH   8   2
BRANCH   7  12
ATOM     12  C   UNL     1     -16.730   2.740  25.445  0.00  0.00    +0.118 C 
BRANCH  12   5
ATOM      5  N   UNL     1     -16.088   2.898  24.150  0.00  0.00    -0.306 NA
ATOM     15  C   UNL     1     -15.281   4.121  24.116  0.00  0.00    +0.104 C 
ATOM     16  C   UNL     1     -17.083   2.920  23.075  0.00  0.00    +0.104 C 
ENDBRANCH  12   5
ENDBRANCH   7  12
ENDBRANCH  13   9
BRANCH  13  14
ATOM      3  O   UNL     1     -13.342   2.521  31.061  0.00  0.00    -0.354 OA
ATOM      6  N   UNL     1     -13.550   1.558  30.080  0.00  0.00    -0.083 NA
ATOM     14  C   UNL     1     -14.878   1.463  29.966  0.00  0.00    +0.087 A 
ATOM     17  C   UNL     1     -15.553   2.332  30.841  0.00  0.00    +0.076 A 
ATOM     18  C   UNL     1     -14.542   2.974  31.507  0.00  0.00    +0.168 A 
BRANCH  18  19
ATOM     19  C   UNL     1     -14.488   3.979  32.527  0.00  0.00    +0.023 A 
ATOM     20  C   UNL     1     -14.497   3.610  33.872  0.00  0.00    +0.057 A 
ATOM     21  C   UNL     1     -14.429   5.328  32.175  0.00  0.00    +0.012 A 
ATOM     22  C   UNL     1     -14.446   4.588  34.864  0.00  0.00    +0.118 A 
ATOM     23  C   UNL     1     -14.378   6.307  33.167  0.00  0.00    +0.004 A 
ATOM     24  C   UNL     1     -14.387   5.937  34.513  0.00  0.00    +0.045 A 
BRANCH  22   4
ATOM      4  O   UNL     1     -14.456   4.228  36.177  0.00  0.00    -0.507 OA
ATOM     26  H   UNL     1     -13.549   4.009  36.451  0.00  0.00    +0.292 HD
ENDBRANCH  22   4
ENDBRANCH  18  19
ENDBRANCH  13  14
TORSDOF 7
ENDMDL
MODEL 10
REMARK VINA RESULT:      -5.8     27.282     29.370
REMARK  Name = 75536382
REMARK  9 active torsions:
REMARK  status: ('A' for Active; 'I' for Inactive)
REMARK    1  A    between atoms: O_2  and  C_8
REMARK    2  A    between atoms: O_4  and  C_22
REMARK    3  A    between atoms: N_5  and  C_12
REMARK    4  A    between atoms: N_5  and  C_15
REMARK    5  A    between atoms: N_5  and  C_16
REMARK    6  A    between atoms: C_7  and  C_12
REMARK    7  A    between atoms: C_9  and  C_13
REMARK    8  A    between atoms: C_13  and  C_14
REMARK    9  A    between atoms: C_18  and  C_19
REMARK                            x       y       z     vdW  Elec       q    Type
REMARK                         _______ _______ _______ _____ _____    ______ ____
ROOT
ATOM     13  C   UNL     1      -6.350  -9.449  12.247  0.00  0.00    +0.090 C 
ENDROOT
BRANCH  13   9
ATOM      1  O   UNL     1      -6.246 -10.514  10.118  0.00  0.00    -0.369 OA
ATOM      7  C   UNL     1      -5.554 -10.932   8.934  0.00  0.00    +0.161 C 
ATOM      8  C   UNL     1      -4.883  -9.745   8.231  0.00  0.00    +0.145 C 
ATOM      9  C   UNL     1      -5.450  -9.805  11.070  0.00  0.00    +0.125 C 
ATOM     10  C   UNL     1      -4.054  -8.896   9.191  0.00  0.00    +0.036 C 
ATOM     11  C   UNL     1      -4.854  -8.546  10.442  0.00  0.00    +0.034 C 
BRANCH   8   2
ATOM      2  O   UNL     1      -5.897  -8.907   7.673  0.00  0.00    -0.389 OA
ATOM     25  H   UNL     1      -6.549  -8.727   8.373  0.00  0.00    +0.210 HD
ENDBRANCH   8   2
BRANCH   7  12
ATOM     12  C   UNL     1      -4.584 -12.072   9.237  0.00  0.00    +0.118 C 
BRANCH  12   5
ATOM      5  N   UNL     1      -4.855 -13.223   8.391  0.00  0.00    -0.306 NA
ATOM     15  C   UNL     1      -3.957 -13.240   7.233  0.00  0.00    +0.104 C 
ATOM     16  C   UNL     1      -6.251 -13.224   7.947  0.00  0.00    +0.104 C 
ENDBRANCH  12   5
ENDBRANCH   7  12
ENDBRANCH  13   9
BRANCH  13  14
ATOM      3  O   UNL     1      -4.300 -10.706  14.933  0.00  0.00    -0.354 OA
ATOM      6  N   UNL     1      -4.506 -10.352  13.605  0.00  0.00    -0.083 NA
ATOM     14  C   UNL     1      -5.770  -9.923  13.553  0.00  0.00    +0.087 A 
ATOM     17  C   UNL     1      -6.405  -9.982  14.806  0.00  0.00    +0.076 A 
ATOM     18  C   UNL     1      -5.438 -10.481  15.638  0.00  0.00    +0.168 A 
BRANCH  18  19
ATOM     19  C   UNL     1      -5.378 -10.799  17.035  0.00  0.00    +0.023 A 
ATOM     20  C   UNL     1      -6.401 -10.390  17.889  0.00  0.00    +0.057 A 
ATOM     21  C   UNL     1      -4.293 -11.517  17.540  0.00  0.00    +0.012 A 
ATOM     22  C   UNL     1      -6.341 -10.698  19.248  0.00  0.00    +0.118 A 
ATOM     23  C   UNL     1      -4.233 -11.825  18.899  0.00  0.00    +0.004 A 
ATOM     24  C   UNL     1      -5.258 -11.415  19.754  0.00  0.00    +0.045 A 
BRANCH  22   4
ATOM      4  O   UNL     1      -7.340 -10.297  20.081  0.00  0.00    -0.507 OA
ATOM     26  H   UNL     1      -8.190 -10.616  19.732  0.00  0.00    +0.292 HD
ENDBRANCH  22   4
ENDBRANCH  18  19
ENDBRANCH  13  14
TORSDOF 7
ENDMDL
