REMARK  Name = 45784104
REMARK  10 active torsions:
REMARK  status: ('A' for Active; 'I' for Inactive)
REMARK    1  A    between atoms: N_2  and  C_15
REMARK    2  A    between atoms: N_8  and  C_35
REMARK    3  A    between atoms: C_10  and  C_14
REMARK    4  A    between atoms: C_11  and  C_15
REMARK    5  A    between atoms: C_13  and  C_18
REMARK    6  A    between atoms: C_14  and  C_19
REMARK    7  A    between atoms: C_14  and  C_20
REMARK    8  A    between atoms: C_17  and  C_23
REMARK    9  A    between atoms: C_18  and  C_26
REMARK   10  A    between atoms: C_28  and  C_30
REMARK                            x       y       z     vdW  Elec       q    Type
REMARK                         _______ _______ _______ _____ _____    ______ ____
ROOT
ATOM     10  C   UNL     1      -0.103  -1.024  -0.811  0.00  0.00    +0.000 C 
ATOM     11  C   UNL     1      -0.859  -2.301  -0.377  0.00  0.00    +0.029 C 
ATOM     12  C   UNL     1       1.048  -0.724   0.160  0.00  0.00    +0.012 C 
ATOM     13  C   UNL     1       2.049  -1.890   0.301  0.00  0.00    +0.024 C 
ATOM     16  C   UNL     1       0.072  -3.415   0.031  0.00  0.00    -0.023 C 
ATOM     17  C   UNL     1       1.376  -3.253   0.325  0.00  0.00    -0.073 C 
ATOM     23  C   UNL     1       2.236  -4.448   0.636  0.00  0.00    +0.039 C 
ENDROOT
BRANCH  10  14
ATOM     14  C   UNL     1       0.405  -1.137  -2.255  0.00  0.00    -0.013 C 
ATOM     19  C   UNL     1       1.491  -0.100  -2.519  0.00  0.00    +0.007 C 
ATOM     20  C   UNL     1      -0.749  -0.975  -3.239  0.00  0.00    +0.007 C 
ENDBRANCH  10  14
BRANCH  11  15
ATOM     15  C   UNL     1      -1.837  -2.018   0.768  0.00  0.00    +0.092 C 
BRANCH  15   2
ATOM      2  N   UNL     1      -2.773  -0.958   0.398  0.00  0.00    -0.299 NA
ATOM      3  N   UNL     1      -5.313   0.338   0.232  0.00  0.00    -0.312 N 
ATOM      6  N   UNL     1      -6.796   1.606  -1.124  0.00  0.00    -0.237 NA
ATOM      7  N   UNL     1      -8.511   1.849   1.081  0.00  0.00    -0.258 NA
ATOM     21  C   UNL     1      -3.388  -0.372   1.595  0.00  0.00    +0.103 C 
ATOM     22  C   UNL     1      -3.815  -1.479  -0.495  0.00  0.00    +0.103 C 
ATOM     24  C   UNL     1      -4.328   0.778   1.224  0.00  0.00    +0.122 C 
ATOM     25  C   UNL     1      -4.769  -0.366  -0.936  0.00  0.00    +0.122 C 
ATOM     27  C   UNL     1      -6.504   1.055   0.071  0.00  0.00    +0.140 A 
ATOM     29  C   UNL     1      -7.347   1.175   1.154  0.00  0.00    +0.154 A 
ATOM     31  C   UNL     1      -7.960   2.280  -1.197  0.00  0.00    +0.132 A 
ATOM     32  C   UNL     1      -8.803   2.400  -0.114  0.00  0.00    +0.130 A 
ENDBRANCH  15   2
ENDBRANCH  11  15
BRANCH  13  18
ATOM     18  C   UNL     1       2.926  -1.636   1.533  0.00  0.00    +0.105 C 
BRANCH  18  26
ATOM      1  O   UNL     1       4.643  -0.151   0.637  0.00  0.00    -0.419 OA
ATOM      4  N   UNL     1       3.276   0.819   2.119  0.00  0.00    -0.112 NA
ATOM      5  N   UNL     1       4.191   1.766   1.698  0.00  0.00    -0.106 NA
ATOM     26  C   UNL     1       3.578  -0.284   1.474  0.00  0.00    +0.218 A 
ATOM     28  C   UNL     1       4.968   1.156   0.835  0.00  0.00    +0.266 A 
BRANCH  28  30
ATOM      8  N   UNL     1       6.873   1.191  -0.733  0.00  0.00    -0.329 N 
ATOM      9  N   UNL     1       7.579   3.290  -0.568  0.00  0.00    -0.243 NA
ATOM     30  C   UNL     1       6.044   1.794   0.171  0.00  0.00    +0.125 A 
ATOM     33  C   UNL     1       6.500   3.089   0.256  0.00  0.00    +0.143 A 
ATOM     34  C   UNL     1       7.778   2.127  -1.149  0.00  0.00    +0.199 A 
ATOM     35  C   UNL     1       6.823  -0.181  -1.184  0.00  0.00    +0.150 C 
ENDBRANCH  28  30
ENDBRANCH  18  26
ENDBRANCH  13  18
TORSDOF 6
