MODEL 1
REMARK VINA RESULT:      -6.5      0.000      0.000
REMARK  Name = 51136639
REMARK  13 active torsions:
REMARK  status: ('A' for Active; 'I' for Inactive)
REMARK    1  A    between atoms: S_1  and  N_9
REMARK    2  A    between atoms: S_1  and  C_21
REMARK    3  A    between atoms: O_4  and  C_19
REMARK    4  A    between atoms: O_6  and  C_29
REMARK    5  A    between atoms: O_6  and  C_34
REMARK    6  A    between atoms: O_7  and  C_30
REMARK    7  A    between atoms: O_7  and  C_35
REMARK    8  A    between atoms: O_8  and  C_33
REMARK    9  A    between atoms: O_8  and  C_36
REMARK   10  A    between atoms: C_11  and  C_16
REMARK   11  A    between atoms: C_12  and  C_17
REMARK   12  A    between atoms: C_16  and  C_18
REMARK   13  A    between atoms: C_17  and  C_19
REMARK                            x       y       z     vdW  Elec       q    Type
REMARK                         _______ _______ _______ _____ _____    ______ ____
ROOT
ATOM      9  N   UNL     1      -3.269 -11.129  13.658  0.00  0.00    -0.176 NA
ATOM     11  C   UNL     1      -4.945 -11.414  15.471  0.00  0.00    +0.014 C 
ATOM     12  C   UNL     1      -3.789 -11.630  16.477  0.00  0.00    +0.006 C 
ATOM     13  C   UNL     1      -4.506 -11.858  14.066  0.00  0.00    +0.113 C 
ATOM     14  C   UNL     1      -2.493 -10.960  15.995  0.00  0.00    +0.021 C 
ATOM     15  C   UNL     1      -2.129 -11.401  14.581  0.00  0.00    +0.110 C 
ENDROOT
BRANCH   9   1
ATOM      1  S   UNL     1      -2.893 -11.201  11.988  0.00  0.00    +0.061 S 
ATOM      2  O   UNL     1      -2.764 -12.587  11.593  0.00  0.00    -0.153 OA
ATOM      3  O   UNL     1      -1.847 -10.243  11.703  0.00  0.00    -0.153 OA
BRANCH   1  21
ATOM     21  C   UNL     1      -4.398 -10.581  11.307  0.00  0.00    +0.106 A 
ATOM     26  C   UNL     1      -5.303 -11.455  10.706  0.00  0.00    +0.032 A 
ATOM     27  C   UNL     1      -4.682  -9.217  11.369  0.00  0.00    +0.032 A 
ATOM     31  C   UNL     1      -6.492 -10.966  10.165  0.00  0.00    +0.047 A 
ATOM     32  C   UNL     1      -5.871  -8.727  10.827  0.00  0.00    +0.047 A 
ATOM     33  C   UNL     1      -6.776  -9.602  10.225  0.00  0.00    +0.120 A 
BRANCH  33   8
ATOM      8  O   UNL     1      -7.936  -9.123   9.697  0.00  0.00    -0.495 OA
ATOM     36  C   UNL     1      -7.838  -7.992   8.834  0.00  0.00    +0.277 C 
ENDBRANCH  33   8
ENDBRANCH   1  21
ENDBRANCH   9   1
BRANCH  11  16
ATOM     16  C   UNL     1      -5.484  -9.977  15.436  0.00  0.00    +0.060 C 
BRANCH  16  18
ATOM     10  N   UNL     1      -7.309  -9.890  13.878  0.00  0.00    -0.287 NA
ATOM     18  C   UNL     1      -6.960  -9.990  15.118  0.00  0.00    +0.044 C 
ATOM     20  C   UNL     1      -7.931 -10.108  16.236  0.00  0.00    +0.003 A 
ATOM     22  C   UNL     1      -9.252  -9.734  15.964  0.00  0.00    -0.033 A 
ATOM     23  C   UNL     1      -9.593  -9.232  14.592  0.00  0.00    +0.059 C 
ATOM     24  C   UNL     1      -8.741  -9.964  13.564  0.00  0.00    +0.146 C 
ATOM     25  C   UNL     1      -7.567 -10.554  17.508  0.00  0.00    +0.059 A 
ATOM     28  C   UNL     1     -10.207  -9.783  16.984  0.00  0.00    +0.053 A 
ATOM     29  C   UNL     1      -8.531 -10.614  18.516  0.00  0.00    +0.162 A 
ATOM     30  C   UNL     1      -9.846 -10.228  18.256  0.00  0.00    +0.162 A 
BRANCH  29   6
ATOM      6  O   UNL     1      -8.173 -11.053  19.756  0.00  0.00    -0.491 OA
ATOM     34  C   UNL     1      -7.992 -12.458  19.916  0.00  0.00    +0.277 C 
ENDBRANCH  29   6
BRANCH  30   7
ATOM      7  O   UNL     1     -10.788 -10.279  19.238  0.00  0.00    -0.491 OA
ATOM     35  C   UNL     1     -12.091  -9.796  18.913  0.00  0.00    +0.277 C 
ENDBRANCH  30   7
ENDBRANCH  16  18
ENDBRANCH  11  16
BRANCH  12  17
ATOM     17  C   UNL     1      -4.134 -11.177  17.896  0.00  0.00    +0.124 C 
BRANCH  17  19
ATOM      5  O   UNL     1      -3.348 -12.203  19.964  0.00  0.00    -0.251 OA
ATOM     19  C   UNL     1      -3.935 -12.284  18.894  0.00  0.00    +0.305 C 
BRANCH  19   4
ATOM      4  O   UNL     1      -4.513 -13.424  18.436  0.00  0.00    -0.481 OA
ATOM     37  H   UNL     1      -3.845 -14.084  18.152  0.00  0.00    +0.295 HD
ENDBRANCH  19   4
ENDBRANCH  17  19
ENDBRANCH  12  17
TORSDOF 10
ENDMDL
MODEL 2
REMARK VINA RESULT:      -6.5     23.993     27.504
REMARK  Name = 51136639
REMARK  13 active torsions:
REMARK  status: ('A' for Active; 'I' for Inactive)
REMARK    1  A    between atoms: S_1  and  N_9
REMARK    2  A    between atoms: S_1  and  C_21
REMARK    3  A    between atoms: O_4  and  C_19
REMARK    4  A    between atoms: O_6  and  C_29
REMARK    5  A    between atoms: O_6  and  C_34
REMARK    6  A    between atoms: O_7  and  C_30
REMARK    7  A    between atoms: O_7  and  C_35
REMARK    8  A    between atoms: O_8  and  C_33
REMARK    9  A    between atoms: O_8  and  C_36
REMARK   10  A    between atoms: C_11  and  C_16
REMARK   11  A    between atoms: C_12  and  C_17
REMARK   12  A    between atoms: C_16  and  C_18
REMARK   13  A    between atoms: C_17  and  C_19
REMARK                            x       y       z     vdW  Elec       q    Type
REMARK                         _______ _______ _______ _____ _____    ______ ____
ROOT
ATOM      9  N   UNL     1      10.546   8.482   6.574  0.00  0.00    -0.176 NA
ATOM     11  C   UNL     1      10.443   6.010   6.808  0.00  0.00    +0.014 C 
ATOM     12  C   UNL     1       9.954   6.190   8.265  0.00  0.00    +0.006 C 
ATOM     13  C   UNL     1      11.308   7.211   6.395  0.00  0.00    +0.113 C 
ATOM     14  C   UNL     1       9.261   7.547   8.462  0.00  0.00    +0.021 C 
ATOM     15  C   UNL     1      10.145   8.699   7.994  0.00  0.00    +0.110 C 
ENDROOT
BRANCH   9   1
ATOM      1  S   UNL     1      11.206   9.851   5.782  0.00  0.00    +0.061 S 
ATOM      2  O   UNL     1      11.428  10.898   6.756  0.00  0.00    -0.153 OA
ATOM      3  O   UNL     1      10.450  10.102   4.574  0.00  0.00    -0.153 OA
BRANCH   1  21
ATOM     21  C   UNL     1      12.781   9.205   5.313  0.00  0.00    +0.106 A 
ATOM     26  C   UNL     1      12.928   8.544   4.095  0.00  0.00    +0.032 A 
ATOM     27  C   UNL     1      13.876   9.354   6.163  0.00  0.00    +0.032 A 
ATOM     31  C   UNL     1      14.172   8.032   3.725  0.00  0.00    +0.047 A 
ATOM     32  C   UNL     1      15.120   8.841   5.795  0.00  0.00    +0.047 A 
ATOM     33  C   UNL     1      15.268   8.180   4.575  0.00  0.00    +0.120 A 
BRANCH  33   8
ATOM      8  O   UNL     1      16.482   7.679   4.215  0.00  0.00    -0.495 OA
ATOM     36  C   UNL     1      17.633   8.416   4.621  0.00  0.00    +0.277 C 
ENDBRANCH  33   8
ENDBRANCH   1  21
ENDBRANCH   9   1
BRANCH  11  16
ATOM     16  C   UNL     1       9.313   5.786   5.793  0.00  0.00    +0.060 C 
BRANCH  16  18
ATOM     10  N   UNL     1      10.562   4.397   4.283  0.00  0.00    -0.287 NA
ATOM     18  C   UNL     1       9.898   5.496   4.432  0.00  0.00    +0.044 C 
ATOM     20  C   UNL     1       9.692   6.482   3.340  0.00  0.00    +0.003 A 
ATOM     22  C   UNL     1      10.546   6.386   2.235  0.00  0.00    -0.033 A 
ATOM     23  C   UNL     1      11.604   5.324   2.231  0.00  0.00    +0.059 C 
ATOM     24  C   UNL     1      11.078   4.086   2.945  0.00  0.00    +0.146 C 
ATOM     25  C   UNL     1       8.711   7.474   3.394  0.00  0.00    +0.059 A 
ATOM     28  C   UNL     1      10.430   7.309   1.191  0.00  0.00    +0.053 A 
ATOM     29  C   UNL     1       8.593   8.381   2.340  0.00  0.00    +0.162 A 
ATOM     30  C   UNL     1       9.451   8.301   1.243  0.00  0.00    +0.162 A 
BRANCH  29   6
ATOM      6  O   UNL     1       7.632   9.347   2.395  0.00  0.00    -0.491 OA
ATOM     34  C   UNL     1       6.870   9.432   3.598  0.00  0.00    +0.277 C 
ENDBRANCH  29   6
BRANCH  30   7
ATOM      7  O   UNL     1       9.344   9.189   0.216  0.00  0.00    -0.491 OA
ATOM     35  C   UNL     1       9.336   8.653  -1.106  0.00  0.00    +0.277 C 
ENDBRANCH  30   7
ENDBRANCH  16  18
ENDBRANCH  11  16
BRANCH  12  17
ATOM     17  C   UNL     1       9.054   5.051   8.743  0.00  0.00    +0.124 C 
BRANCH  17  19
ATOM      5  O   UNL     1      10.349   4.512  10.737  0.00  0.00    -0.251 OA
ATOM     19  C   UNL     1       9.277   4.740  10.197  0.00  0.00    +0.305 C 
BRANCH  19   4
ATOM      4  O   UNL     1       8.088   4.748  10.854  0.00  0.00    -0.481 OA
ATOM     37  H   UNL     1       7.998   3.978  11.455  0.00  0.00    +0.295 HD
ENDBRANCH  19   4
ENDBRANCH  17  19
ENDBRANCH  12  17
TORSDOF 10
ENDMDL
MODEL 3
REMARK VINA RESULT:      -6.4      2.534      6.304
REMARK  Name = 51136639
REMARK  13 active torsions:
REMARK  status: ('A' for Active; 'I' for Inactive)
REMARK    1  A    between atoms: S_1  and  N_9
REMARK    2  A    between atoms: S_1  and  C_21
REMARK    3  A    between atoms: O_4  and  C_19
REMARK    4  A    between atoms: O_6  and  C_29
REMARK    5  A    between atoms: O_6  and  C_34
REMARK    6  A    between atoms: O_7  and  C_30
REMARK    7  A    between atoms: O_7  and  C_35
REMARK    8  A    between atoms: O_8  and  C_33
REMARK    9  A    between atoms: O_8  and  C_36
REMARK   10  A    between atoms: C_11  and  C_16
REMARK   11  A    between atoms: C_12  and  C_17
REMARK   12  A    between atoms: C_16  and  C_18
REMARK   13  A    between atoms: C_17  and  C_19
REMARK                            x       y       z     vdW  Elec       q    Type
REMARK                         _______ _______ _______ _____ _____    ______ ____
ROOT
ATOM      9  N   UNL     1      -4.066 -13.236  11.498  0.00  0.00    -0.176 NA
ATOM     11  C   UNL     1      -2.947 -11.027  11.715  0.00  0.00    +0.014 C 
ATOM     12  C   UNL     1      -3.261 -10.746  10.226  0.00  0.00    +0.006 C 
ATOM     13  C   UNL     1      -2.823 -12.542  11.946  0.00  0.00    +0.113 C 
ATOM     14  C   UNL     1      -4.483 -11.545   9.749  0.00  0.00    +0.021 C 
ATOM     15  C   UNL     1      -4.327 -13.033  10.043  0.00  0.00    +0.110 C 
ENDROOT
BRANCH   9   1
ATOM      1  S   UNL     1      -4.252 -14.844  12.059  0.00  0.00    +0.061 S 
ATOM      2  O   UNL     1      -2.944 -15.450  12.194  0.00  0.00    -0.153 OA
ATOM      3  O   UNL     1      -5.297 -15.488  11.294  0.00  0.00    -0.153 OA
BRANCH   1  21
ATOM     21  C   UNL     1      -4.875 -14.534  13.680  0.00  0.00    +0.106 A 
ATOM     26  C   UNL     1      -6.065 -13.827  13.846  0.00  0.00    +0.032 A 
ATOM     27  C   UNL     1      -4.177 -14.996  14.796  0.00  0.00    +0.032 A 
ATOM     31  C   UNL     1      -6.557 -13.579  15.127  0.00  0.00    +0.047 A 
ATOM     32  C   UNL     1      -4.668 -14.748  16.078  0.00  0.00    +0.047 A 
ATOM     33  C   UNL     1      -5.858 -14.039  16.243  0.00  0.00    +0.120 A 
BRANCH  33   8
ATOM      8  O   UNL     1      -6.338 -13.797  17.495  0.00  0.00    -0.495 OA
ATOM     36  C   UNL     1      -7.748 -13.635  17.628  0.00  0.00    +0.277 C 
ENDBRANCH  33   8
ENDBRANCH   1  21
ENDBRANCH   9   1
BRANCH  11  16
ATOM     16  C   UNL     1      -3.958 -10.416  12.694  0.00  0.00    +0.060 C 
BRANCH  16  18
ATOM     10  N   UNL     1      -2.087 -10.410  14.199  0.00  0.00    -0.287 NA
ATOM     18  C   UNL     1      -3.373 -10.391  14.086  0.00  0.00    +0.044 C 
ATOM     20  C   UNL     1      -4.298 -10.355  15.249  0.00  0.00    +0.003 A 
ATOM     22  C   UNL     1      -3.762 -10.719  16.490  0.00  0.00    -0.033 A 
ATOM     23  C   UNL     1      -2.321 -11.129  16.563  0.00  0.00    +0.059 C 
ATOM     24  C   UNL     1      -1.519 -10.324  15.550  0.00  0.00    +0.146 C 
ATOM     25  C   UNL     1      -5.641  -9.994  15.135  0.00  0.00    +0.059 A 
ATOM     28  C   UNL     1      -4.589 -10.745  17.618  0.00  0.00    +0.053 A 
ATOM     29  C   UNL     1      -6.455 -10.007  16.269  0.00  0.00    +0.162 A 
ATOM     30  C   UNL     1      -5.932 -10.384  17.506  0.00  0.00    +0.162 A 
BRANCH  29   6
ATOM      6  O   UNL     1      -7.765  -9.651  16.154  0.00  0.00    -0.491 OA
ATOM     34  C   UNL     1      -8.620 -10.548  15.447  0.00  0.00    +0.277 C 
ENDBRANCH  29   6
BRANCH  30   7
ATOM      7  O   UNL     1      -6.724 -10.406  18.613  0.00  0.00    -0.491 OA
ATOM     35  C   UNL     1      -6.176 -10.997  19.791  0.00  0.00    +0.277 C 
ENDBRANCH  30   7
ENDBRANCH  16  18
ENDBRANCH  11  16
BRANCH  12  17
ATOM     17  C   UNL     1      -3.436  -9.258   9.920  0.00  0.00    +0.124 C 
BRANCH  17  19
ATOM      5  O   UNL     1      -5.808  -8.717  10.070  0.00  0.00    -0.251 OA
ATOM     19  C   UNL     1      -4.814  -8.957   9.401  0.00  0.00    +0.305 C 
BRANCH  19   4
ATOM      4  O   UNL     1      -4.809  -8.988   8.043  0.00  0.00    -0.481 OA
ATOM     37  H   UNL     1      -3.900  -8.942   7.680  0.00  0.00    +0.295 HD
ENDBRANCH  19   4
ENDBRANCH  17  19
ENDBRANCH  12  17
TORSDOF 10
ENDMDL
MODEL 4
REMARK VINA RESULT:      -6.3      2.746      7.508
REMARK  Name = 51136639
REMARK  13 active torsions:
REMARK  status: ('A' for Active; 'I' for Inactive)
REMARK    1  A    between atoms: S_1  and  N_9
REMARK    2  A    between atoms: S_1  and  C_21
REMARK    3  A    between atoms: O_4  and  C_19
REMARK    4  A    between atoms: O_6  and  C_29
REMARK    5  A    between atoms: O_6  and  C_34
REMARK    6  A    between atoms: O_7  and  C_30
REMARK    7  A    between atoms: O_7  and  C_35
REMARK    8  A    between atoms: O_8  and  C_33
REMARK    9  A    between atoms: O_8  and  C_36
REMARK   10  A    between atoms: C_11  and  C_16
REMARK   11  A    between atoms: C_12  and  C_17
REMARK   12  A    between atoms: C_16  and  C_18
REMARK   13  A    between atoms: C_17  and  C_19
REMARK                            x       y       z     vdW  Elec       q    Type
REMARK                         _______ _______ _______ _____ _____    ______ ____
ROOT
ATOM      9  N   UNL     1      -7.082 -12.201  18.109  0.00  0.00    -0.176 NA
ATOM     11  C   UNL     1      -5.038 -12.790  16.824  0.00  0.00    +0.014 C 
ATOM     12  C   UNL     1      -5.644 -14.185  16.541  0.00  0.00    +0.006 C 
ATOM     13  C   UNL     1      -5.591 -12.238  18.148  0.00  0.00    +0.113 C 
ATOM     14  C   UNL     1      -7.179 -14.155  16.605  0.00  0.00    +0.021 C 
ATOM     15  C   UNL     1      -7.672 -13.558  17.919  0.00  0.00    +0.110 C 
ENDROOT
BRANCH   9   1
ATOM      1  S   UNL     1      -7.824 -11.243  19.321  0.00  0.00    +0.061 S 
ATOM      2  O   UNL     1      -6.809 -10.450  19.981  0.00  0.00    -0.153 OA
ATOM      3  O   UNL     1      -8.735 -12.072  20.080  0.00  0.00    -0.153 OA
BRANCH   1  21
ATOM     21  C   UNL     1      -8.786 -10.161  18.312  0.00  0.00    +0.106 A 
ATOM     26  C   UNL     1      -8.196  -9.509  17.230  0.00  0.00    +0.032 A 
ATOM     27  C   UNL     1     -10.135  -9.955  18.599  0.00  0.00    +0.032 A 
ATOM     31  C   UNL     1      -8.955  -8.652  16.433  0.00  0.00    +0.047 A 
ATOM     32  C   UNL     1     -10.895  -9.097  17.803  0.00  0.00    +0.047 A 
ATOM     33  C   UNL     1     -10.304  -8.445  16.720  0.00  0.00    +0.120 A 
BRANCH  33   8
ATOM      8  O   UNL     1     -11.045  -7.608  15.943  0.00  0.00    -0.495 OA
ATOM     36  C   UNL     1     -11.233  -6.277  16.421  0.00  0.00    +0.277 C 
ENDBRANCH  33   8
ENDBRANCH   1  21
ENDBRANCH   9   1
BRANCH  11  16
ATOM     16  C   UNL     1      -5.248 -11.776  15.690  0.00  0.00    +0.060 C 
BRANCH  16  18
ATOM     10  N   UNL     1      -2.868 -11.461  15.762  0.00  0.00    -0.287 NA
ATOM     18  C   UNL     1      -3.928 -11.473  15.023  0.00  0.00    +0.044 C 
ATOM     20  C   UNL     1      -3.912 -11.196  13.564  0.00  0.00    +0.003 A 
ATOM     22  C   UNL     1      -2.776 -10.551  13.057  0.00  0.00    -0.033 A 
ATOM     23  C   UNL     1      -1.677 -10.175  14.005  0.00  0.00    +0.059 C 
ATOM     24  C   UNL     1      -1.578 -11.227  15.103  0.00  0.00    +0.146 C 
ATOM     25  C   UNL     1      -4.969 -11.538  12.719  0.00  0.00    +0.059 A 
ATOM     28  C   UNL     1      -2.716 -10.226  11.699  0.00  0.00    +0.053 A 
ATOM     29  C   UNL     1      -4.893 -11.222  11.361  0.00  0.00    +0.162 A 
ATOM     30  C   UNL     1      -3.771 -10.567  10.852  0.00  0.00    +0.162 A 
BRANCH  29   6
ATOM      6  O   UNL     1      -5.926 -11.561  10.538  0.00  0.00    -0.491 OA
ATOM     34  C   UNL     1      -7.115 -10.780  10.640  0.00  0.00    +0.277 C 
ENDBRANCH  29   6
BRANCH  30   7
ATOM      7  O   UNL     1      -3.696 -10.251   9.530  0.00  0.00    -0.491 OA
ATOM     35  C   UNL     1      -4.076  -8.927   9.157  0.00  0.00    +0.277 C 
ENDBRANCH  30   7
ENDBRANCH  16  18
ENDBRANCH  11  16
BRANCH  12  17
ATOM     17  C   UNL     1      -5.171 -14.790  15.219  0.00  0.00    +0.124 C 
BRANCH  17  19
ATOM      5  O   UNL     1      -2.851 -14.804  14.468  0.00  0.00    -0.251 OA
ATOM     19  C   UNL     1      -3.712 -15.149  15.265  0.00  0.00    +0.305 C 
BRANCH  19   4
ATOM      4  O   UNL     1      -3.467 -15.934  16.346  0.00  0.00    -0.481 OA
ATOM     37  H   UNL     1      -3.158 -16.828  16.087  0.00  0.00    +0.295 HD
ENDBRANCH  19   4
ENDBRANCH  17  19
ENDBRANCH  12  17
TORSDOF 10
ENDMDL
MODEL 5
REMARK VINA RESULT:      -6.2      2.263      3.275
REMARK  Name = 51136639
REMARK  13 active torsions:
REMARK  status: ('A' for Active; 'I' for Inactive)
REMARK    1  A    between atoms: S_1  and  N_9
REMARK    2  A    between atoms: S_1  and  C_21
REMARK    3  A    between atoms: O_4  and  C_19
REMARK    4  A    between atoms: O_6  and  C_29
REMARK    5  A    between atoms: O_6  and  C_34
REMARK    6  A    between atoms: O_7  and  C_30
REMARK    7  A    between atoms: O_7  and  C_35
REMARK    8  A    between atoms: O_8  and  C_33
REMARK    9  A    between atoms: O_8  and  C_36
REMARK   10  A    between atoms: C_11  and  C_16
REMARK   11  A    between atoms: C_12  and  C_17
REMARK   12  A    between atoms: C_16  and  C_18
REMARK   13  A    between atoms: C_17  and  C_19
REMARK                            x       y       z     vdW  Elec       q    Type
REMARK                         _______ _______ _______ _____ _____    ______ ____
ROOT
ATOM      9  N   UNL     1      -3.894 -11.842  15.385  0.00  0.00    -0.176 NA
ATOM     11  C   UNL     1      -5.656 -12.044  17.126  0.00  0.00    +0.014 C 
ATOM     12  C   UNL     1      -5.010 -10.862  17.887  0.00  0.00    +0.006 C 
ATOM     13  C   UNL     1      -4.587 -12.787  16.309  0.00  0.00    +0.113 C 
ATOM     14  C   UNL     1      -4.214  -9.951  16.939  0.00  0.00    +0.021 C 
ATOM     15  C   UNL     1      -3.201 -10.745  16.121  0.00  0.00    +0.110 C 
ENDROOT
BRANCH   9   1
ATOM      1  S   UNL     1      -2.982 -12.575  14.133  0.00  0.00    +0.061 S 
ATOM      2  O   UNL     1      -3.582 -13.848  13.797  0.00  0.00    -0.153 OA
ATOM      3  O   UNL     1      -1.576 -12.476  14.459  0.00  0.00    -0.153 OA
BRANCH   1  21
ATOM     21  C   UNL     1      -3.315 -11.454  12.812  0.00  0.00    +0.106 A 
ATOM     26  C   UNL     1      -2.262 -10.813  12.159  0.00  0.00    +0.032 A 
ATOM     27  C   UNL     1      -4.631 -11.206  12.423  0.00  0.00    +0.032 A 
ATOM     31  C   UNL     1      -2.525  -9.924  11.117  0.00  0.00    +0.047 A 
ATOM     32  C   UNL     1      -4.895 -10.316  11.380  0.00  0.00    +0.047 A 
ATOM     33  C   UNL     1      -3.841  -9.676  10.728  0.00  0.00    +0.120 A 
BRANCH  33   8
ATOM      8  O   UNL     1      -4.098  -8.808   9.711  0.00  0.00    -0.495 OA
ATOM     36  C   UNL     1      -5.300  -8.045   9.797  0.00  0.00    +0.277 C 
ENDBRANCH  33   8
ENDBRANCH   1  21
ENDBRANCH   9   1
BRANCH  11  16
ATOM     16  C   UNL     1      -6.834 -11.641  16.228  0.00  0.00    +0.060 C 
BRANCH  16  18
ATOM     10  N   UNL     1      -8.179 -13.417  17.126  0.00  0.00    -0.287 NA
ATOM     18  C   UNL     1      -8.125 -12.165  16.811  0.00  0.00    +0.044 C 
ATOM     20  C   UNL     1      -9.264 -11.227  16.983  0.00  0.00    +0.003 A 
ATOM     22  C   UNL     1     -10.531 -11.799  17.148  0.00  0.00    -0.033 A 
ATOM     23  C   UNL     1     -10.657 -13.294  17.126  0.00  0.00    +0.059 C 
ATOM     24  C   UNL     1      -9.412 -13.912  17.748  0.00  0.00    +0.146 C 
ATOM     25  C   UNL     1      -9.108  -9.840  16.970  0.00  0.00    +0.059 A 
ATOM     28  C   UNL     1     -11.651 -10.972  17.276  0.00  0.00    +0.053 A 
ATOM     29  C   UNL     1     -10.230  -9.022  17.113  0.00  0.00    +0.162 A 
ATOM     30  C   UNL     1     -11.498  -9.585  17.263  0.00  0.00    +0.162 A 
BRANCH  29   6
ATOM      6  O   UNL     1     -10.074  -7.668  17.104  0.00  0.00    -0.491 OA
ATOM     34  C   UNL     1     -10.082  -7.026  15.830  0.00  0.00    +0.277 C 
ENDBRANCH  29   6
BRANCH  30   7
ATOM      7  O   UNL     1     -12.596  -8.790  17.396  0.00  0.00    -0.491 OA
ATOM     35  C   UNL     1     -13.399  -8.595  16.233  0.00  0.00    +0.277 C 
ENDBRANCH  30   7
ENDBRANCH  16  18
ENDBRANCH  11  16
BRANCH  12  17
ATOM     17  C   UNL     1      -6.017 -10.047  18.698  0.00  0.00    +0.124 C 
BRANCH  17  19
ATOM      5  O   UNL     1      -5.751 -11.419  20.696  0.00  0.00    -0.251 OA
ATOM     19  C   UNL     1      -6.462 -10.784  19.931  0.00  0.00    +0.305 C 
BRANCH  19   4
ATOM      4  O   UNL     1      -7.803 -10.644  20.088  0.00  0.00    -0.481 OA
ATOM     37  H   UNL     1      -8.024 -10.032  20.822  0.00  0.00    +0.295 HD
ENDBRANCH  19   4
ENDBRANCH  17  19
ENDBRANCH  12  17
TORSDOF 10
ENDMDL
MODEL 6
REMARK VINA RESULT:      -6.0     25.569     28.139
REMARK  Name = 51136639
REMARK  13 active torsions:
REMARK  status: ('A' for Active; 'I' for Inactive)
REMARK    1  A    between atoms: S_1  and  N_9
REMARK    2  A    between atoms: S_1  and  C_21
REMARK    3  A    between atoms: O_4  and  C_19
REMARK    4  A    between atoms: O_6  and  C_29
REMARK    5  A    between atoms: O_6  and  C_34
REMARK    6  A    between atoms: O_7  and  C_30
REMARK    7  A    between atoms: O_7  and  C_35
REMARK    8  A    between atoms: O_8  and  C_33
REMARK    9  A    between atoms: O_8  and  C_36
REMARK   10  A    between atoms: C_11  and  C_16
REMARK   11  A    between atoms: C_12  and  C_17
REMARK   12  A    between atoms: C_16  and  C_18
REMARK   13  A    between atoms: C_17  and  C_19
REMARK                            x       y       z     vdW  Elec       q    Type
REMARK                         _______ _______ _______ _____ _____    ______ ____
ROOT
ATOM      9  N   UNL     1       9.466   7.444   5.417  0.00  0.00    -0.176 NA
ATOM     11  C   UNL     1       8.340   8.092   3.299  0.00  0.00    +0.014 C 
ATOM     12  C   UNL     1       7.482   9.108   4.091  0.00  0.00    +0.006 C 
ATOM     13  C   UNL     1       8.749   6.927   4.214  0.00  0.00    +0.113 C 
ATOM     14  C   UNL     1       8.187   9.554   5.381  0.00  0.00    +0.021 C 
ATOM     15  C   UNL     1       8.612   8.360   6.228  0.00  0.00    +0.110 C 
ENDROOT
BRANCH   9   1
ATOM      1  S   UNL     1      10.337   6.270   6.312  0.00  0.00    +0.061 S 
ATOM      2  O   UNL     1      10.100   4.965   5.733  0.00  0.00    -0.153 OA
ATOM      3  O   UNL     1      10.129   6.509   7.724  0.00  0.00    -0.153 OA
BRANCH   1  21
ATOM     21  C   UNL     1      11.989   6.747   5.917  0.00  0.00    +0.106 A 
ATOM     26  C   UNL     1      12.332   7.045   4.599  0.00  0.00    +0.032 A 
ATOM     27  C   UNL     1      12.953   6.822   6.923  0.00  0.00    +0.032 A 
ATOM     31  C   UNL     1      13.639   7.419   4.286  0.00  0.00    +0.047 A 
ATOM     32  C   UNL     1      14.260   7.196   6.610  0.00  0.00    +0.047 A 
ATOM     33  C   UNL     1      14.603   7.494   5.291  0.00  0.00    +0.120 A 
BRANCH  33   8
ATOM      8  O   UNL     1      15.879   7.859   4.985  0.00  0.00    -0.495 OA
ATOM     36  C   UNL     1      16.561   8.684   5.928  0.00  0.00    +0.277 C 
ENDBRANCH  33   8
ENDBRANCH   1  21
ENDBRANCH   9   1
BRANCH  11  16
ATOM     16  C   UNL     1       9.575   8.708   2.627  0.00  0.00    +0.060 C 
BRANCH  16  18
ATOM     10  N   UNL     1       9.063   9.487   0.414  0.00  0.00    -0.287 NA
ATOM     18  C   UNL     1       9.499   8.506   1.132  0.00  0.00    +0.044 C 
ATOM     20  C   UNL     1       9.917   7.198   0.566  0.00  0.00    +0.003 A 
ATOM     22  C   UNL     1       9.481   6.906  -0.732  0.00  0.00    -0.033 A 
ATOM     23  C   UNL     1       8.624   7.906  -1.448  0.00  0.00    +0.059 C 
ATOM     24  C   UNL     1       9.047   9.312  -1.043  0.00  0.00    +0.146 C 
ATOM     25  C   UNL     1      10.694   6.281   1.276  0.00  0.00    +0.059 A 
ATOM     28  C   UNL     1       9.807   5.674  -1.309  0.00  0.00    +0.053 A 
ATOM     29  C   UNL     1      11.027   5.060   0.686  0.00  0.00    +0.162 A 
ATOM     30  C   UNL     1      10.583   4.756  -0.601  0.00  0.00    +0.162 A 
BRANCH  29   6
ATOM      6  O   UNL     1      11.788   4.169   1.382  0.00  0.00    -0.491 OA
ATOM     34  C   UNL     1      11.215   3.614   2.564  0.00  0.00    +0.277 C 
ENDBRANCH  29   6
BRANCH  30   7
ATOM      7  O   UNL     1      10.899   3.564  -1.177  0.00  0.00    -0.491 OA
ATOM     35  C   UNL     1      10.913   3.516  -2.603  0.00  0.00    +0.277 C 
ENDBRANCH  30   7
ENDBRANCH  16  18
ENDBRANCH  11  16
BRANCH  12  17
ATOM     17  C   UNL     1       7.062  10.319   3.258  0.00  0.00    +0.124 C 
BRANCH  17  19
ATOM      5  O   UNL     1       4.695   9.898   2.852  0.00  0.00    -0.251 OA
ATOM     19  C   UNL     1       5.837  10.029   2.437  0.00  0.00    +0.305 C 
BRANCH  19   4
ATOM      4  O   UNL     1       6.178   9.931   1.125  0.00  0.00    -0.481 OA
ATOM     37  H   UNL     1       6.516  10.781   0.771  0.00  0.00    +0.295 HD
ENDBRANCH  19   4
ENDBRANCH  17  19
ENDBRANCH  12  17
TORSDOF 10
ENDMDL
MODEL 7
REMARK VINA RESULT:      -5.9      2.429      7.360
REMARK  Name = 51136639
REMARK  13 active torsions:
REMARK  status: ('A' for Active; 'I' for Inactive)
REMARK    1  A    between atoms: S_1  and  N_9
REMARK    2  A    between atoms: S_1  and  C_21
REMARK    3  A    between atoms: O_4  and  C_19
REMARK    4  A    between atoms: O_6  and  C_29
REMARK    5  A    between atoms: O_6  and  C_34
REMARK    6  A    between atoms: O_7  and  C_30
REMARK    7  A    between atoms: O_7  and  C_35
REMARK    8  A    between atoms: O_8  and  C_33
REMARK    9  A    between atoms: O_8  and  C_36
REMARK   10  A    between atoms: C_11  and  C_16
REMARK   11  A    between atoms: C_12  and  C_17
REMARK   12  A    between atoms: C_16  and  C_18
REMARK   13  A    between atoms: C_17  and  C_19
REMARK                            x       y       z     vdW  Elec       q    Type
REMARK                         _______ _______ _______ _____ _____    ______ ____
ROOT
ATOM      9  N   UNL     1      -5.492 -11.916  16.956  0.00  0.00    -0.176 NA
ATOM     11  C   UNL     1      -3.736 -11.850  15.198  0.00  0.00    +0.014 C 
ATOM     12  C   UNL     1      -4.001 -13.347  14.907  0.00  0.00    +0.006 C 
ATOM     13  C   UNL     1      -4.079 -11.533  16.662  0.00  0.00    +0.113 C 
ATOM     14  C   UNL     1      -5.428 -13.753  15.309  0.00  0.00    +0.021 C 
ATOM     15  C   UNL     1      -5.730 -13.374  16.755  0.00  0.00    +0.110 C 
ENDROOT
BRANCH   9   1
ATOM      1  S   UNL     1      -6.146 -11.258  18.396  0.00  0.00    +0.061 S 
ATOM      2  O   UNL     1      -5.206 -10.305  18.948  0.00  0.00    -0.153 OA
ATOM      3  O   UNL     1      -6.678 -12.334  19.203  0.00  0.00    -0.153 OA
BRANCH   1  21
ATOM     21  C   UNL     1      -7.507 -10.353  17.731  0.00  0.00    +0.106 A 
ATOM     26  C   UNL     1      -8.754 -10.413  18.350  0.00  0.00    +0.032 A 
ATOM     27  C   UNL     1      -7.335  -9.579  16.583  0.00  0.00    +0.032 A 
ATOM     31  C   UNL     1      -9.831  -9.700  17.823  0.00  0.00    +0.047 A 
ATOM     32  C   UNL     1      -8.412  -8.866  16.054  0.00  0.00    +0.047 A 
ATOM     33  C   UNL     1      -9.659  -8.927  16.675  0.00  0.00    +0.120 A 
BRANCH  33   8
ATOM      8  O   UNL     1     -10.710  -8.231  16.159  0.00  0.00    -0.495 OA
ATOM     36  C   UNL     1     -10.523  -6.832  15.953  0.00  0.00    +0.277 C 
ENDBRANCH  33   8
ENDBRANCH   1  21
ENDBRANCH   9   1
BRANCH  11  16
ATOM     16  C   UNL     1      -4.472 -10.890  14.253  0.00  0.00    +0.060 C 
BRANCH  16  18
ATOM     10  N   UNL     1      -2.317 -10.549  13.248  0.00  0.00    -0.287 NA
ATOM     18  C   UNL     1      -3.596 -10.567  13.066  0.00  0.00    +0.044 C 
ATOM     20  C   UNL     1      -4.241 -10.277  11.760  0.00  0.00    +0.003 A 
ATOM     22  C   UNL     1      -3.460  -9.617  10.804  0.00  0.00    -0.033 A 
ATOM     23  C   UNL     1      -2.054  -9.236  11.159  0.00  0.00    +0.059 C 
ATOM     24  C   UNL     1      -1.464 -10.295  12.082  0.00  0.00    +0.146 C 
ATOM     25  C   UNL     1      -5.564 -10.624  11.478  0.00  0.00    +0.059 A 
ATOM     28  C   UNL     1      -4.020  -9.280   9.568  0.00  0.00    +0.053 A 
ATOM     29  C   UNL     1      -6.110 -10.297  10.235  0.00  0.00    +0.162 A 
ATOM     30  C   UNL     1      -5.342  -9.626   9.284  0.00  0.00    +0.162 A 
BRANCH  29   6
ATOM      6  O   UNL     1      -7.400 -10.640   9.963  0.00  0.00    -0.491 OA
ATOM     34  C   UNL     1      -8.419  -9.794  10.491  0.00  0.00    +0.277 C 
ENDBRANCH  29   6
BRANCH  30   7
ATOM      7  O   UNL     1      -5.872  -9.298   8.074  0.00  0.00    -0.491 OA
ATOM     35  C   UNL     1      -5.583 -10.170   6.982  0.00  0.00    +0.277 C 
ENDBRANCH  30   7
ENDBRANCH  16  18
ENDBRANCH  11  16
BRANCH  12  17
ATOM     17  C   UNL     1      -3.717 -13.737  13.457  0.00  0.00    +0.124 C 
BRANCH  17  19
ATOM      5  O   UNL     1      -2.200 -15.644  13.503  0.00  0.00    -0.251 OA
ATOM     19  C   UNL     1      -2.402 -14.453  13.322  0.00  0.00    +0.305 C 
BRANCH  19   4
ATOM      4  O   UNL     1      -1.435 -13.570  12.960  0.00  0.00    -0.481 OA
ATOM     37  H   UNL     1      -0.806 -13.960  12.317  0.00  0.00    +0.295 HD
ENDBRANCH  19   4
ENDBRANCH  17  19
ENDBRANCH  12  17
TORSDOF 10
ENDMDL
MODEL 8
REMARK VINA RESULT:      -5.8      2.281      3.987
REMARK  Name = 51136639
REMARK  13 active torsions:
REMARK  status: ('A' for Active; 'I' for Inactive)
REMARK    1  A    between atoms: S_1  and  N_9
REMARK    2  A    between atoms: S_1  and  C_21
REMARK    3  A    between atoms: O_4  and  C_19
REMARK    4  A    between atoms: O_6  and  C_29
REMARK    5  A    between atoms: O_6  and  C_34
REMARK    6  A    between atoms: O_7  and  C_30
REMARK    7  A    between atoms: O_7  and  C_35
REMARK    8  A    between atoms: O_8  and  C_33
REMARK    9  A    between atoms: O_8  and  C_36
REMARK   10  A    between atoms: C_11  and  C_16
REMARK   11  A    between atoms: C_12  and  C_17
REMARK   12  A    between atoms: C_16  and  C_18
REMARK   13  A    between atoms: C_17  and  C_19
REMARK                            x       y       z     vdW  Elec       q    Type
REMARK                         _______ _______ _______ _____ _____    ______ ____
ROOT
ATOM      9  N   UNL     1      -6.479 -10.976  12.523  0.00  0.00    -0.176 NA
ATOM     11  C   UNL     1      -4.839 -11.457  14.327  0.00  0.00    +0.014 C 
ATOM     12  C   UNL     1      -3.692 -11.126  13.343  0.00  0.00    +0.006 C 
ATOM     13  C   UNL     1      -6.061 -11.974  13.551  0.00  0.00    +0.113 C 
ATOM     14  C   UNL     1      -4.163 -10.177  12.230  0.00  0.00    +0.021 C 
ATOM     15  C   UNL     1      -5.403 -10.716  11.524  0.00  0.00    +0.110 C 
ENDROOT
BRANCH   9   1
ATOM      1  S   UNL     1      -8.046 -11.209  11.868  0.00  0.00    +0.061 S 
ATOM      2  O   UNL     1      -9.008 -10.502  12.686  0.00  0.00    -0.153 OA
ATOM      3  O   UNL     1      -8.218 -12.611  11.557  0.00  0.00    -0.153 OA
BRANCH   1  21
ATOM     21  C   UNL     1      -7.877 -10.331  10.347  0.00  0.00    +0.106 A 
ATOM     26  C   UNL     1      -7.769 -11.031   9.147  0.00  0.00    +0.032 A 
ATOM     27  C   UNL     1      -7.850  -8.937  10.347  0.00  0.00    +0.032 A 
ATOM     31  C   UNL     1      -7.633 -10.337   7.944  0.00  0.00    +0.047 A 
ATOM     32  C   UNL     1      -7.714  -8.242   9.144  0.00  0.00    +0.047 A 
ATOM     33  C   UNL     1      -7.605  -8.943   7.943  0.00  0.00    +0.120 A 
BRANCH  33   8
ATOM      8  O   UNL     1      -7.472  -8.265   6.770  0.00  0.00    -0.495 OA
ATOM     36  C   UNL     1      -8.446  -7.262   6.486  0.00  0.00    +0.277 C 
ENDBRANCH  33   8
ENDBRANCH   1  21
ENDBRANCH   9   1
BRANCH  11  16
ATOM     16  C   UNL     1      -5.237 -10.288  15.240  0.00  0.00    +0.060 C 
BRANCH  16  18
ATOM     10  N   UNL     1      -4.030 -11.086  17.157  0.00  0.00    -0.287 NA
ATOM     18  C   UNL     1      -5.176 -10.723  16.685  0.00  0.00    +0.044 C 
ATOM     20  C   UNL     1      -6.428 -10.720  17.485  0.00  0.00    +0.003 A 
ATOM     22  C   UNL     1      -6.424 -11.475  18.664  0.00  0.00    -0.033 A 
ATOM     23  C   UNL     1      -5.184 -12.236  19.029  0.00  0.00    +0.059 C 
ATOM     24  C   UNL     1      -3.960 -11.450  18.577  0.00  0.00    +0.146 C 
ATOM     25  C   UNL     1      -7.571 -10.020  17.096  0.00  0.00    +0.059 A 
ATOM     28  C   UNL     1      -7.583 -11.547  19.442  0.00  0.00    +0.053 A 
ATOM     29  C   UNL     1      -8.720 -10.085  17.887  0.00  0.00    +0.162 A 
ATOM     30  C   UNL     1      -8.727 -10.848  19.055  0.00  0.00    +0.162 A 
BRANCH  29   6
ATOM      6  O   UNL     1      -9.833  -9.398  17.505  0.00  0.00    -0.491 OA
ATOM     34  C   UNL     1      -9.691  -7.991  17.318  0.00  0.00    +0.277 C 
ENDBRANCH  29   6
BRANCH  30   7
ATOM      7  O   UNL     1      -9.847 -10.920  19.826  0.00  0.00    -0.491 OA
ATOM     35  C   UNL     1     -10.304 -12.224  20.184  0.00  0.00    +0.277 C 
ENDBRANCH  30   7
ENDBRANCH  16  18
ENDBRANCH  11  16
BRANCH  12  17
ATOM     17  C   UNL     1      -2.447 -10.569  14.035  0.00  0.00    +0.124 C 
BRANCH  17  19
ATOM      5  O   UNL     1      -1.329 -12.731  14.175  0.00  0.00    -0.251 OA
ATOM     19  C   UNL     1      -1.636 -11.660  14.677  0.00  0.00    +0.305 C 
BRANCH  19   4
ATOM      4  O   UNL     1      -1.274 -11.284  15.931  0.00  0.00    -0.481 OA
ATOM     37  H   UNL     1      -0.510 -11.802  16.262  0.00  0.00    +0.295 HD
ENDBRANCH  19   4
ENDBRANCH  17  19
ENDBRANCH  12  17
TORSDOF 10
ENDMDL
MODEL 9
REMARK VINA RESULT:      -5.8     20.285     23.583
REMARK  Name = 51136639
REMARK  13 active torsions:
REMARK  status: ('A' for Active; 'I' for Inactive)
REMARK    1  A    between atoms: S_1  and  N_9
REMARK    2  A    between atoms: S_1  and  C_21
REMARK    3  A    between atoms: O_4  and  C_19
REMARK    4  A    between atoms: O_6  and  C_29
REMARK    5  A    between atoms: O_6  and  C_34
REMARK    6  A    between atoms: O_7  and  C_30
REMARK    7  A    between atoms: O_7  and  C_35
REMARK    8  A    between atoms: O_8  and  C_33
REMARK    9  A    between atoms: O_8  and  C_36
REMARK   10  A    between atoms: C_11  and  C_16
REMARK   11  A    between atoms: C_12  and  C_17
REMARK   12  A    between atoms: C_16  and  C_18
REMARK   13  A    between atoms: C_17  and  C_19
REMARK                            x       y       z     vdW  Elec       q    Type
REMARK                         _______ _______ _______ _____ _____    ______ ____
ROOT
ATOM      9  N   UNL     1       4.012 -10.676  36.959  0.00  0.00    -0.176 NA
ATOM     11  C   UNL     1       5.252  -8.790  35.917  0.00  0.00    +0.014 C 
ATOM     12  C   UNL     1       5.663  -8.309  37.329  0.00  0.00    +0.006 C 
ATOM     13  C   UNL     1       3.914  -9.544  35.991  0.00  0.00    +0.113 C 
ATOM     14  C   UNL     1       5.662  -9.466  38.340  0.00  0.00    +0.021 C 
ATOM     15  C   UNL     1       4.329 -10.207  38.339  0.00  0.00    +0.110 C 
ENDROOT
BRANCH   9   1
ATOM      1  S   UNL     1       2.764 -11.845  36.851  0.00  0.00    +0.061 S 
ATOM      2  O   UNL     1       1.516 -11.174  36.553  0.00  0.00    -0.153 OA
ATOM      3  O   UNL     1       2.875 -12.753  37.971  0.00  0.00    -0.153 OA
BRANCH   1  21
ATOM     21  C   UNL     1       3.275 -12.706  35.398  0.00  0.00    +0.106 A 
ATOM     26  C   UNL     1       2.483 -12.672  34.252  0.00  0.00    +0.032 A 
ATOM     27  C   UNL     1       4.470 -13.425  35.398  0.00  0.00    +0.032 A 
ATOM     31  C   UNL     1       2.885 -13.355  33.104  0.00  0.00    +0.047 A 
ATOM     32  C   UNL     1       4.873 -14.109  34.251  0.00  0.00    +0.047 A 
ATOM     33  C   UNL     1       4.080 -14.074  33.104  0.00  0.00    +0.120 A 
BRANCH  33   8
ATOM      8  O   UNL     1       4.473 -14.742  31.984  0.00  0.00    -0.495 OA
ATOM     36  C   UNL     1       4.334 -14.059  30.740  0.00  0.00    +0.277 C 
ENDBRANCH  33   8
ENDBRANCH   1  21
ENDBRANCH   9   1
BRANCH  11  16
ATOM     16  C   UNL     1       6.313  -9.647  35.214  0.00  0.00    +0.060 C 
BRANCH  16  18
ATOM     10  N   UNL     1       6.603  -7.811  33.694  0.00  0.00    -0.287 NA
ATOM     18  C   UNL     1       6.588  -9.095  33.836  0.00  0.00    +0.044 C 
ATOM     20  C   UNL     1       6.817 -10.046  32.718  0.00  0.00    +0.003 A 
ATOM     22  C   UNL     1       6.682  -9.536  31.421  0.00  0.00    -0.033 A 
ATOM     23  C   UNL     1       6.307  -8.095  31.247  0.00  0.00    +0.059 C 
ATOM     24  C   UNL     1       6.930  -7.274  32.368  0.00  0.00    +0.146 C 
ATOM     25  C   UNL     1       7.139 -11.388  32.923  0.00  0.00    +0.059 A 
ATOM     28  C   UNL     1       6.846 -10.388  30.324  0.00  0.00    +0.053 A 
ATOM     29  C   UNL     1       7.316 -12.228  31.821  0.00  0.00    +0.162 A 
ATOM     30  C   UNL     1       7.168 -11.731  30.527  0.00  0.00    +0.162 A 
BRANCH  29   6
ATOM      6  O   UNL     1       7.633 -13.538  32.025  0.00  0.00    -0.491 OA
ATOM     34  C   UNL     1       8.991 -13.832  32.344  0.00  0.00    +0.277 C 
ENDBRANCH  29   6
BRANCH  30   7
ATOM      7  O   UNL     1       7.332 -12.548  29.450  0.00  0.00    -0.491 OA
ATOM     35  C   UNL     1       8.488 -12.332  28.642  0.00  0.00    +0.277 C 
ENDBRANCH  30   7
ENDBRANCH  16  18
ENDBRANCH  11  16
BRANCH  12  17
ATOM     17  C   UNL     1       7.006  -7.579  37.347  0.00  0.00    +0.124 C 
BRANCH  17  19
ATOM      5  O   UNL     1       6.541  -5.278  38.007  0.00  0.00    -0.251 OA
ATOM     19  C   UNL     1       6.835  -6.098  37.150  0.00  0.00    +0.305 C 
BRANCH  19   4
ATOM      4  O   UNL     1       7.059  -5.781  35.848  0.00  0.00    -0.481 OA
ATOM     37  H   UNL     1       6.501  -5.031  35.553  0.00  0.00    +0.295 HD
ENDBRANCH  19   4
ENDBRANCH  17  19
ENDBRANCH  12  17
TORSDOF 10
ENDMDL
MODEL 10
REMARK VINA RESULT:      -5.7     31.019     34.376
REMARK  Name = 51136639
REMARK  13 active torsions:
REMARK  status: ('A' for Active; 'I' for Inactive)
REMARK    1  A    between atoms: S_1  and  N_9
REMARK    2  A    between atoms: S_1  and  C_21
REMARK    3  A    between atoms: O_4  and  C_19
REMARK    4  A    between atoms: O_6  and  C_29
REMARK    5  A    between atoms: O_6  and  C_34
REMARK    6  A    between atoms: O_7  and  C_30
REMARK    7  A    between atoms: O_7  and  C_35
REMARK    8  A    between atoms: O_8  and  C_33
REMARK    9  A    between atoms: O_8  and  C_36
REMARK   10  A    between atoms: C_11  and  C_16
REMARK   11  A    between atoms: C_12  and  C_17
REMARK   12  A    between atoms: C_16  and  C_18
REMARK   13  A    between atoms: C_17  and  C_19
REMARK                            x       y       z     vdW  Elec       q    Type
REMARK                         _______ _______ _______ _____ _____    ______ ____
ROOT
ATOM      9  N   UNL     1      21.452   7.792  21.681  0.00  0.00    -0.176 NA
ATOM     11  C   UNL     1      23.207   7.831  19.922  0.00  0.00    +0.014 C 
ATOM     12  C   UNL     1      22.864   9.314  19.643  0.00  0.00    +0.006 C 
ATOM     13  C   UNL     1      21.967   7.101  20.463  0.00  0.00    +0.113 C 
ATOM     14  C   UNL     1      22.240   9.988  20.875  0.00  0.00    +0.021 C 
ATOM     15  C   UNL     1      21.044   9.198  21.397  0.00  0.00    +0.110 C 
ENDROOT
BRANCH   9   1
ATOM      1  S   UNL     1      20.348   6.886  22.628  0.00  0.00    +0.061 S 
ATOM      2  O   UNL     1      19.918   7.692  23.751  0.00  0.00    -0.153 OA
ATOM      3  O   UNL     1      20.882   5.556  22.824  0.00  0.00    -0.153 OA
BRANCH   1  21
ATOM     21  C   UNL     1      18.998   6.768  21.497  0.00  0.00    +0.106 A 
ATOM     26  C   UNL     1      17.895   7.610  21.638  0.00  0.00    +0.032 A 
ATOM     27  C   UNL     1      19.033   5.832  20.464  0.00  0.00    +0.032 A 
ATOM     31  C   UNL     1      16.827   7.516  20.746  0.00  0.00    +0.047 A 
ATOM     32  C   UNL     1      17.965   5.737  19.572  0.00  0.00    +0.047 A 
ATOM     33  C   UNL     1      16.861   6.579  19.714  0.00  0.00    +0.120 A 
BRANCH  33   8
ATOM      8  O   UNL     1      15.819   6.486  18.843  0.00  0.00    -0.495 OA
ATOM     36  C   UNL     1      14.840   7.523  18.891  0.00  0.00    +0.277 C 
ENDBRANCH  33   8
ENDBRANCH   1  21
ENDBRANCH   9   1
BRANCH  11  16
ATOM     16  C   UNL     1      24.402   7.631  20.864  0.00  0.00    +0.060 C 
BRANCH  16  18
ATOM     10  N   UNL     1      26.321   6.950  19.592  0.00  0.00    -0.287 NA
ATOM     18  C   UNL     1      25.319   6.567  20.311  0.00  0.00    +0.044 C 
ATOM     20  C   UNL     1      25.022   5.142  20.609  0.00  0.00    +0.003 A 
ATOM     22  C   UNL     1      25.633   4.186  19.789  0.00  0.00    -0.033 A 
ATOM     23  C   UNL     1      26.519   4.653  18.673  0.00  0.00    +0.059 C 
ATOM     24  C   UNL     1      27.246   5.920  19.105  0.00  0.00    +0.146 C 
ATOM     25  C   UNL     1      24.169   4.749  21.642  0.00  0.00    +0.059 A 
ATOM     28  C   UNL     1      25.364   2.829  19.992  0.00  0.00    +0.053 A 
ATOM     29  C   UNL     1      23.918   3.391  21.847  0.00  0.00    +0.162 A 
ATOM     30  C   UNL     1      24.511   2.434  21.024  0.00  0.00    +0.162 A 
BRANCH  29   6
ATOM      6  O   UNL     1      23.087   3.011  22.858  0.00  0.00    -0.491 OA
ATOM     34  C   UNL     1      23.524   3.279  24.189  0.00  0.00    +0.277 C 
ENDBRANCH  29   6
BRANCH  30   7
ATOM      7  O   UNL     1      24.264   1.109  21.215  0.00  0.00    -0.491 OA
ATOM     35  C   UNL     1      25.228   0.371  21.965  0.00  0.00    +0.277 C 
ENDBRANCH  30   7
ENDBRANCH  16  18
ENDBRANCH  11  16
BRANCH  12  17
ATOM     17  C   UNL     1      24.059  10.121  19.134  0.00  0.00    +0.124 C 
BRANCH  17  19
ATOM      5  O   UNL     1      23.739   9.947  16.723  0.00  0.00    -0.251 OA
ATOM     19  C   UNL     1      24.416   9.751  17.722  0.00  0.00    +0.305 C 
BRANCH  19   4
ATOM      4  O   UNL     1      25.634   9.150  17.700  0.00  0.00    -0.481 OA
ATOM     37  H   UNL     1      26.320   9.727  17.302  0.00  0.00    +0.295 HD
ENDBRANCH  19   4
ENDBRANCH  17  19
ENDBRANCH  12  17
TORSDOF 10
ENDMDL
