MODEL 1
REMARK VINA RESULT:      -7.8      0.000      0.000
REMARK  Name = 11883985
REMARK  6 active torsions:
REMARK  status: ('A' for Active; 'I' for Inactive)
REMARK    1  A    between atoms: O_6  and  C_14
REMARK    2  A    between atoms: O_6  and  C_18
REMARK    3  A    between atoms: N_9  and  C_13
REMARK    4  A    between atoms: N_10  and  C_22
REMARK    5  A    between atoms: C_17  and  C_19
REMARK    6  A    between atoms: C_26  and  C_32
REMARK                            x       y       z     vdW  Elec       q    Type
REMARK                         _______ _______ _______ _____ _____    ______ ____
ROOT
ATOM      4  O   UNL     1      -6.819 -11.556  16.685  0.00  0.00    -0.368 OA
ATOM      5  O   UNL     1      -6.729 -10.629  19.606  0.00  0.00    -0.368 OA
ATOM     11  C   UNL     1      -7.149  -9.954  18.402  0.00  0.00    +0.173 C 
ATOM     12  C   UNL     1      -6.214 -10.406  17.297  0.00  0.00    +0.192 C 
ATOM     13  C   UNL     1      -8.501 -10.466  17.963  0.00  0.00    +0.130 C 
ATOM     14  C   UNL     1      -4.962 -10.771  18.058  0.00  0.00    +0.235 C 
ATOM     15  C   UNL     1      -8.138 -11.741  17.223  0.00  0.00    +0.185 C 
ATOM     16  C   UNL     1      -5.523 -11.358  19.333  0.00  0.00    +0.207 C 
ENDROOT
BRANCH  13   9
ATOM      7  O   UNL     1     -11.007  -9.151  18.446  0.00  0.00    -0.270 OA
ATOM      9  N   UNL     1      -9.161  -9.524  17.094  0.00  0.00    -0.304 N 
ATOM     17  C   UNL     1     -10.377  -8.938  17.415  0.00  0.00    +0.244 C 
ATOM     36  H   UNL     1      -8.755  -9.387  16.173  0.00  0.00    +0.149 HD
BRANCH  17  19
ATOM     19  C   UNL     1     -10.939  -8.007  16.401  0.00  0.00    +0.037 A 
ATOM     20  C   UNL     1     -11.328  -8.513  15.177  0.00  0.00    +0.013 A 
ATOM     21  C   UNL     1     -11.051  -6.669  16.714  0.00  0.00    +0.013 A 
ATOM     24  C   UNL     1     -11.853  -7.640  14.224  0.00  0.00    +0.013 A 
ATOM     25  C   UNL     1     -11.577  -5.797  15.761  0.00  0.00    +0.013 A 
ATOM     26  C   UNL     1     -11.978  -6.281  14.516  0.00  0.00    +0.055 A 
BRANCH  26  32
ATOM      1  F   UNL     1     -11.781  -4.231  13.300  0.00  0.00    -0.166 F 
ATOM      2  F   UNL     1     -13.785  -4.881  13.814  0.00  0.00    -0.166 F 
ATOM      3  F   UNL     1     -12.668  -5.927  12.269  0.00  0.00    -0.166 F 
ATOM     32  C   UNL     1     -12.541  -5.349  13.498  0.00  0.00    +0.417 C 
ENDBRANCH  26  32
ENDBRANCH  17  19
ENDBRANCH  13   9
BRANCH  14   6
ATOM      6  O   UNL     1      -4.133 -11.683  17.374  0.00  0.00    -0.442 OA
BRANCH   6  18
ATOM      8  O   UNL     1      -2.278 -10.651  16.525  0.00  0.00    -0.226 OA
ATOM     10  N   UNL     1      -4.025 -11.370  15.142  0.00  0.00    -0.251 N 
ATOM     18  C   UNL     1      -3.368 -11.178  16.343  0.00  0.00    +0.405 C 
ATOM     37  H   UNL     1      -4.922 -11.832  15.229  0.00  0.00    +0.158 HD
BRANCH  10  22
ATOM     22  C   UNL     1      -3.595 -11.003  13.847  0.00  0.00    +0.044 A 
ATOM     23  C   UNL     1      -4.428 -10.295  12.978  0.00  0.00    +0.003 A 
ATOM     27  C   UNL     1      -2.310 -11.380  13.478  0.00  0.00    +0.024 A 
ATOM     28  C   UNL     1      -3.944  -9.957  11.692  0.00  0.00    -0.016 A 
ATOM     29  C   UNL     1      -5.729  -9.911  13.344  0.00  0.00    +0.010 A 
ATOM     30  C   UNL     1      -1.832 -11.047  12.214  0.00  0.00    +0.002 A 
ATOM     31  C   UNL     1      -2.643 -10.340  11.326  0.00  0.00    +0.008 A 
ATOM     33  C   UNL     1      -4.773  -9.244  10.810  0.00  0.00    +0.008 A 
ATOM     34  C   UNL     1      -6.539  -9.204  12.456  0.00  0.00    +0.001 A 
ATOM     35  C   UNL     1      -6.063  -8.871  11.191  0.00  0.00    +0.001 A 
ENDBRANCH  10  22
ENDBRANCH   6  18
ENDBRANCH  14   6
TORSDOF 6
ENDMDL
MODEL 2
REMARK VINA RESULT:      -7.7      2.912      4.924
REMARK  Name = 11883985
REMARK  6 active torsions:
REMARK  status: ('A' for Active; 'I' for Inactive)
REMARK    1  A    between atoms: O_6  and  C_14
REMARK    2  A    between atoms: O_6  and  C_18
REMARK    3  A    between atoms: N_9  and  C_13
REMARK    4  A    between atoms: N_10  and  C_22
REMARK    5  A    between atoms: C_17  and  C_19
REMARK    6  A    between atoms: C_26  and  C_32
REMARK                            x       y       z     vdW  Elec       q    Type
REMARK                         _______ _______ _______ _____ _____    ______ ____
ROOT
ATOM      4  O   UNL     1      -3.802 -12.085  14.401  0.00  0.00    -0.368 OA
ATOM      5  O   UNL     1      -1.967 -10.886  16.545  0.00  0.00    -0.368 OA
ATOM     11  C   UNL     1      -3.330 -10.588  16.178  0.00  0.00    +0.173 C 
ATOM     12  C   UNL     1      -3.419 -10.726  14.671  0.00  0.00    +0.192 C 
ATOM     13  C   UNL     1      -4.255 -11.665  16.696  0.00  0.00    +0.130 C 
ATOM     14  C   UNL     1      -2.002 -10.445  14.233  0.00  0.00    +0.235 C 
ATOM     15  C   UNL     1      -4.117 -12.744  15.636  0.00  0.00    +0.185 C 
ATOM     16  C   UNL     1      -1.194 -11.068  15.349  0.00  0.00    +0.207 C 
ENDROOT
BRANCH  13   9
ATOM      7  O   UNL     1      -5.534 -10.563  19.018  0.00  0.00    -0.270 OA
ATOM      9  N   UNL     1      -5.614 -11.189  16.787  0.00  0.00    -0.304 N 
ATOM     17  C   UNL     1      -6.145 -10.671  17.960  0.00  0.00    +0.244 C 
ATOM     36  H   UNL     1      -6.212 -11.353  15.984  0.00  0.00    +0.149 HD
BRANCH  17  19
ATOM     19  C   UNL     1      -7.569 -10.248  17.897  0.00  0.00    +0.037 A 
ATOM     20  C   UNL     1      -7.920  -9.215  17.053  0.00  0.00    +0.013 A 
ATOM     21  C   UNL     1      -8.492 -10.900  18.686  0.00  0.00    +0.013 A 
ATOM     24  C   UNL     1      -9.255  -8.816  16.995  0.00  0.00    +0.013 A 
ATOM     25  C   UNL     1      -9.828 -10.502  18.628  0.00  0.00    +0.013 A 
ATOM     26  C   UNL     1     -10.210  -9.460  17.783  0.00  0.00    +0.055 A 
BRANCH  26  32
ATOM      1  F   UNL     1     -12.271  -9.064  18.931  0.00  0.00    -0.166 F 
ATOM      2  F   UNL     1     -12.404  -9.813  16.900  0.00  0.00    -0.166 F 
ATOM      3  F   UNL     1     -11.786  -7.759  17.260  0.00  0.00    -0.166 F 
ATOM     32  C   UNL     1     -11.638  -9.035  17.721  0.00  0.00    +0.417 C 
ENDBRANCH  26  32
ENDBRANCH  17  19
ENDBRANCH  13   9
BRANCH  14   6
ATOM      6  O   UNL     1      -1.682 -10.996  12.976  0.00  0.00    -0.442 OA
BRANCH   6  18
ATOM      8  O   UNL     1      -1.362  -9.487  11.289  0.00  0.00    -0.226 OA
ATOM     10  N   UNL     1      -3.386 -10.635  11.542  0.00  0.00    -0.251 N 
ATOM     18  C   UNL     1      -2.087 -10.289  11.863  0.00  0.00    +0.405 C 
ATOM     37  H   UNL     1      -3.797 -11.325  12.160  0.00  0.00    +0.158 HD
BRANCH  10  22
ATOM     22  C   UNL     1      -4.179 -10.148  10.479  0.00  0.00    +0.044 A 
ATOM     23  C   UNL     1      -4.443 -10.929   9.351  0.00  0.00    +0.003 A 
ATOM     27  C   UNL     1      -4.683  -8.860  10.606  0.00  0.00    +0.024 A 
ATOM     28  C   UNL     1      -5.243 -10.388   8.318  0.00  0.00    -0.016 A 
ATOM     29  C   UNL     1      -3.937 -12.233   9.216  0.00  0.00    +0.010 A 
ATOM     30  C   UNL     1      -5.470  -8.327   9.591  0.00  0.00    +0.002 A 
ATOM     31  C   UNL     1      -5.750  -9.085   8.453  0.00  0.00    +0.008 A 
ATOM     33  C   UNL     1      -5.515 -11.165   7.180  0.00  0.00    +0.008 A 
ATOM     34  C   UNL     1      -4.216 -12.990   8.078  0.00  0.00    +0.001 A 
ATOM     35  C   UNL     1      -5.003 -12.457   7.062  0.00  0.00    +0.001 A 
ENDBRANCH  10  22
ENDBRANCH   6  18
ENDBRANCH  14   6
TORSDOF 6
ENDMDL
MODEL 3
REMARK VINA RESULT:      -7.6     27.125     30.458
REMARK  Name = 11883985
REMARK  6 active torsions:
REMARK  status: ('A' for Active; 'I' for Inactive)
REMARK    1  A    between atoms: O_6  and  C_14
REMARK    2  A    between atoms: O_6  and  C_18
REMARK    3  A    between atoms: N_9  and  C_13
REMARK    4  A    between atoms: N_10  and  C_22
REMARK    5  A    between atoms: C_17  and  C_19
REMARK    6  A    between atoms: C_26  and  C_32
REMARK                            x       y       z     vdW  Elec       q    Type
REMARK                         _______ _______ _______ _____ _____    ______ ____
ROOT
ATOM      4  O   UNL     1      14.327   8.173   1.801  0.00  0.00    -0.368 OA
ATOM      5  O   UNL     1      15.160   5.520   0.508  0.00  0.00    -0.368 OA
ATOM     11  C   UNL     1      14.697   5.831   1.838  0.00  0.00    +0.173 C 
ATOM     12  C   UNL     1      15.284   7.179   2.204  0.00  0.00    +0.192 C 
ATOM     13  C   UNL     1      13.206   6.077   1.825  0.00  0.00    +0.130 C 
ATOM     14  C   UNL     1      16.534   7.231   1.359  0.00  0.00    +0.235 C 
ATOM     15  C   UNL     1      13.122   7.523   1.367  0.00  0.00    +0.185 C 
ATOM     16  C   UNL     1      16.094   6.529   0.094  0.00  0.00    +0.207 C 
ENDROOT
BRANCH  13   9
ATOM      7  O   UNL     1      10.433   5.678   2.453  0.00  0.00    -0.270 OA
ATOM      9  N   UNL     1      12.636   5.908   3.139  0.00  0.00    -0.304 N 
ATOM     17  C   UNL     1      11.276   5.720   3.344  0.00  0.00    +0.244 C 
ATOM     36  H   UNL     1      13.257   6.046   3.930  0.00  0.00    +0.149 HD
BRANCH  17  19
ATOM     19  C   UNL     1      10.844   5.589   4.760  0.00  0.00    +0.037 A 
ATOM     20  C   UNL     1      10.087   4.495   5.126  0.00  0.00    +0.013 A 
ATOM     21  C   UNL     1      11.211   6.565   5.662  0.00  0.00    +0.013 A 
ATOM     24  C   UNL     1       9.679   4.372   6.454  0.00  0.00    +0.013 A 
ATOM     25  C   UNL     1      10.803   6.442   6.990  0.00  0.00    +0.013 A 
ATOM     26  C   UNL     1      10.037   5.346   7.387  0.00  0.00    +0.055 A 
BRANCH  26  32
ATOM      1  F   UNL     1       9.069   3.992   9.104  0.00  0.00    -0.166 F 
ATOM      2  F   UNL     1       8.645   6.117   9.171  0.00  0.00    -0.166 F 
ATOM      3  F   UNL     1      10.628   5.390   9.689  0.00  0.00    -0.166 F 
ATOM     32  C   UNL     1       9.602   5.213   8.807  0.00  0.00    +0.417 C 
ENDBRANCH  26  32
ENDBRANCH  17  19
ENDBRANCH  13   9
BRANCH  14   6
ATOM      6  O   UNL     1      16.990   8.541   1.107  0.00  0.00    -0.442 OA
BRANCH   6  18
ATOM      8  O   UNL     1      18.769   9.951   1.378  0.00  0.00    -0.226 OA
ATOM     10  N   UNL     1      18.697   7.851   2.410  0.00  0.00    -0.251 N 
ATOM     18  C   UNL     1      18.224   8.882   1.621  0.00  0.00    +0.405 C 
ATOM     37  H   UNL     1      18.075   7.054   2.471  0.00  0.00    +0.158 HD
BRANCH  10  22
ATOM     22  C   UNL     1      19.917   7.789   3.121  0.00  0.00    +0.044 A 
ATOM     23  C   UNL     1      19.981   8.090   4.483  0.00  0.00    +0.003 A 
ATOM     27  C   UNL     1      21.047   7.417   2.403  0.00  0.00    +0.024 A 
ATOM     28  C   UNL     1      21.231   8.012   5.142  0.00  0.00    -0.016 A 
ATOM     29  C   UNL     1      18.843   8.468   5.215  0.00  0.00    +0.010 A 
ATOM     30  C   UNL     1      22.277   7.338   3.050  0.00  0.00    +0.002 A 
ATOM     31  C   UNL     1      22.370   7.633   4.411  0.00  0.00    +0.008 A 
ATOM     33  C   UNL     1      21.307   8.311   6.512  0.00  0.00    +0.008 A 
ATOM     34  C   UNL     1      18.936   8.763   6.575  0.00  0.00    +0.001 A 
ATOM     35  C   UNL     1      20.166   8.685   7.222  0.00  0.00    +0.001 A 
ENDBRANCH  10  22
ENDBRANCH   6  18
ENDBRANCH  14   6
TORSDOF 6
ENDMDL
MODEL 4
REMARK VINA RESULT:      -7.6      2.314      3.812
REMARK  Name = 11883985
REMARK  6 active torsions:
REMARK  status: ('A' for Active; 'I' for Inactive)
REMARK    1  A    between atoms: O_6  and  C_14
REMARK    2  A    between atoms: O_6  and  C_18
REMARK    3  A    between atoms: N_9  and  C_13
REMARK    4  A    between atoms: N_10  and  C_22
REMARK    5  A    between atoms: C_17  and  C_19
REMARK    6  A    between atoms: C_26  and  C_32
REMARK                            x       y       z     vdW  Elec       q    Type
REMARK                         _______ _______ _______ _____ _____    ______ ____
ROOT
ATOM      4  O   UNL     1     -10.198 -10.170  15.203  0.00  0.00    -0.368 OA
ATOM      5  O   UNL     1      -9.315  -8.400  17.547  0.00  0.00    -0.368 OA
ATOM     11  C   UNL     1      -9.527  -8.102  16.151  0.00  0.00    +0.173 C 
ATOM     12  C   UNL     1      -9.057  -9.312  15.368  0.00  0.00    +0.192 C 
ATOM     13  C   UNL     1     -11.006  -8.031  15.853  0.00  0.00    +0.130 C 
ATOM     14  C   UNL     1      -8.028  -9.919  16.291  0.00  0.00    +0.235 C 
ATOM     15  C   UNL     1     -11.371  -9.495  15.683  0.00  0.00    +0.185 C 
ATOM     16  C   UNL     1      -8.628  -9.656  17.654  0.00  0.00    +0.207 C 
ENDROOT
BRANCH  13   9
ATOM      7  O   UNL     1     -12.992  -5.989  15.492  0.00  0.00    -0.270 OA
ATOM      9  N   UNL     1     -11.263  -7.282  14.647  0.00  0.00    -0.304 N 
ATOM     17  C   UNL     1     -12.249  -6.310  14.569  0.00  0.00    +0.244 C 
ATOM     36  H   UNL     1     -10.765  -7.574  13.812  0.00  0.00    +0.149 HD
BRANCH  17  19
ATOM     19  C   UNL     1     -12.405  -5.646  13.248  0.00  0.00    +0.037 A 
ATOM     20  C   UNL     1     -12.466  -6.429  12.113  0.00  0.00    +0.013 A 
ATOM     21  C   UNL     1     -12.483  -4.271  13.198  0.00  0.00    +0.013 A 
ATOM     24  C   UNL     1     -12.610  -5.807  10.873  0.00  0.00    +0.013 A 
ATOM     25  C   UNL     1     -12.627  -3.649  11.958  0.00  0.00    +0.013 A 
ATOM     26  C   UNL     1     -12.691  -4.417  10.795  0.00  0.00    +0.055 A 
BRANCH  26  32
ATOM      1  F   UNL     1     -13.790  -2.764   9.460  0.00  0.00    -0.166 F 
ATOM      2  F   UNL     1     -13.219  -4.607   8.470  0.00  0.00    -0.166 F 
ATOM      3  F   UNL     1     -11.694  -3.163   9.038  0.00  0.00    -0.166 F 
ATOM     32  C   UNL     1     -12.847  -3.752   9.469  0.00  0.00    +0.417 C 
ENDBRANCH  26  32
ENDBRANCH  17  19
ENDBRANCH  13   9
BRANCH  14   6
ATOM      6  O   UNL     1      -7.810 -11.293  16.064  0.00  0.00    -0.442 OA
BRANCH   6  18
ATOM      8  O   UNL     1      -6.141 -12.854  16.154  0.00  0.00    -0.226 OA
ATOM     10  N   UNL     1      -5.718 -10.637  15.534  0.00  0.00    -0.251 N 
ATOM     18  C   UNL     1      -6.499 -11.704  15.934  0.00  0.00    +0.405 C 
ATOM     37  H   UNL     1      -6.229  -9.770  15.411  0.00  0.00    +0.158 HD
BRANCH  10  22
ATOM     22  C   UNL     1      -4.327 -10.621  15.285  0.00  0.00    +0.044 A 
ATOM     23  C   UNL     1      -3.821 -10.537  13.986  0.00  0.00    +0.003 A 
ATOM     27  C   UNL     1      -3.487 -10.696  16.390  0.00  0.00    +0.024 A 
ATOM     28  C   UNL     1      -2.419 -10.527  13.798  0.00  0.00    -0.016 A 
ATOM     29  C   UNL     1      -4.664 -10.462  12.864  0.00  0.00    +0.010 A 
ATOM     30  C   UNL     1      -2.108 -10.685  16.206  0.00  0.00    +0.002 A 
ATOM     31  C   UNL     1      -1.576 -10.601  14.919  0.00  0.00    +0.008 A 
ATOM     33  C   UNL     1      -1.900 -10.441  12.496  0.00  0.00    +0.008 A 
ATOM     34  C   UNL     1      -4.132 -10.378  11.578  0.00  0.00    +0.001 A 
ATOM     35  C   UNL     1      -2.753 -10.368  11.394  0.00  0.00    +0.001 A 
ENDBRANCH  10  22
ENDBRANCH   6  18
ENDBRANCH  14   6
TORSDOF 6
ENDMDL
MODEL 5
REMARK VINA RESULT:      -7.6     23.945     26.812
REMARK  Name = 11883985
REMARK  6 active torsions:
REMARK  status: ('A' for Active; 'I' for Inactive)
REMARK    1  A    between atoms: O_6  and  C_14
REMARK    2  A    between atoms: O_6  and  C_18
REMARK    3  A    between atoms: N_9  and  C_13
REMARK    4  A    between atoms: N_10  and  C_22
REMARK    5  A    between atoms: C_17  and  C_19
REMARK    6  A    between atoms: C_26  and  C_32
REMARK                            x       y       z     vdW  Elec       q    Type
REMARK                         _______ _______ _______ _____ _____    ______ ____
ROOT
ATOM      4  O   UNL     1       4.359  10.563   3.838  0.00  0.00    -0.368 OA
ATOM      5  O   UNL     1       6.338  12.794   3.126  0.00  0.00    -0.368 OA
ATOM     11  C   UNL     1       6.367  11.784   4.156  0.00  0.00    +0.173 C 
ATOM     12  C   UNL     1       4.940  11.607   4.637  0.00  0.00    +0.192 C 
ATOM     13  C   UNL     1       6.716  10.442   3.557  0.00  0.00    +0.130 C 
ATOM     14  C   UNL     1       4.324  12.952   4.335  0.00  0.00    +0.235 C 
ATOM     15  C   UNL     1       5.377   9.972   3.016  0.00  0.00    +0.185 C 
ATOM     16  C   UNL     1       5.010  13.334   3.043  0.00  0.00    +0.207 C 
ENDROOT
BRANCH  13   9
ATOM      7  O   UNL     1       8.242   8.053   3.097  0.00  0.00    -0.270 OA
ATOM      9  N   UNL     1       7.224   9.537   4.559  0.00  0.00    -0.304 N 
ATOM     17  C   UNL     1       7.955   8.402   4.238  0.00  0.00    +0.244 C 
ATOM     36  H   UNL     1       6.928   9.700   5.516  0.00  0.00    +0.149 HD
BRANCH  17  19
ATOM     19  C   UNL     1       8.384   7.559   5.385  0.00  0.00    +0.037 A 
ATOM     20  C   UNL     1       8.792   6.263   5.142  0.00  0.00    +0.013 A 
ATOM     21  C   UNL     1       8.359   8.098   6.653  0.00  0.00    +0.013 A 
ATOM     24  C   UNL     1       9.193   5.471   6.218  0.00  0.00    +0.013 A 
ATOM     25  C   UNL     1       8.760   7.305   7.729  0.00  0.00    +0.013 A 
ATOM     26  C   UNL     1       9.177   5.992   7.512  0.00  0.00    +0.055 A 
BRANCH  26  32
ATOM      1  F   UNL     1       9.713   3.819   8.355  0.00  0.00    -0.166 F 
ATOM      2  F   UNL     1       8.753   5.196   9.727  0.00  0.00    -0.166 F 
ATOM      3  F   UNL     1      10.828   5.506   9.153  0.00  0.00    -0.166 F 
ATOM     32  C   UNL     1       9.607   5.145   8.662  0.00  0.00    +0.417 C 
ENDBRANCH  26  32
ENDBRANCH  17  19
ENDBRANCH  13   9
BRANCH  14   6
ATOM      6  O   UNL     1       2.922  12.911   4.199  0.00  0.00    -0.442 OA
BRANCH   6  18
ATOM      8  O   UNL     1       1.789  14.665   5.129  0.00  0.00    -0.226 OA
ATOM     10  N   UNL     1       1.976  12.605   6.224  0.00  0.00    -0.251 N 
ATOM     18  C   UNL     1       2.181  13.507   5.197  0.00  0.00    +0.405 C 
ATOM     37  H   UNL     1       2.393  11.695   6.066  0.00  0.00    +0.158 HD
BRANCH  10  22
ATOM     22  C   UNL     1       1.271  12.806   7.432  0.00  0.00    +0.044 A 
ATOM     23  C   UNL     1       1.939  13.095   8.624  0.00  0.00    +0.003 A 
ATOM     27  C   UNL     1      -0.113  12.701   7.380  0.00  0.00    +0.024 A 
ATOM     28  C   UNL     1       1.180  13.285   9.803  0.00  0.00    -0.016 A 
ATOM     29  C   UNL     1       3.339  13.202   8.684  0.00  0.00    +0.010 A 
ATOM     30  C   UNL     1      -0.860  12.888   8.538  0.00  0.00    +0.002 A 
ATOM     31  C   UNL     1      -0.219  13.179   9.743  0.00  0.00    +0.008 A 
ATOM     33  C   UNL     1       1.842  13.577  11.007  0.00  0.00    +0.008 A 
ATOM     34  C   UNL     1       3.979  13.491   9.889  0.00  0.00    +0.001 A 
ATOM     35  C   UNL     1       3.232  13.678  11.048  0.00  0.00    +0.001 A 
ENDBRANCH  10  22
ENDBRANCH   6  18
ENDBRANCH  14   6
TORSDOF 6
ENDMDL
MODEL 6
REMARK VINA RESULT:      -7.5     28.734     31.686
REMARK  Name = 11883985
REMARK  6 active torsions:
REMARK  status: ('A' for Active; 'I' for Inactive)
REMARK    1  A    between atoms: O_6  and  C_14
REMARK    2  A    between atoms: O_6  and  C_18
REMARK    3  A    between atoms: N_9  and  C_13
REMARK    4  A    between atoms: N_10  and  C_22
REMARK    5  A    between atoms: C_17  and  C_19
REMARK    6  A    between atoms: C_26  and  C_32
REMARK                            x       y       z     vdW  Elec       q    Type
REMARK                         _______ _______ _______ _____ _____    ______ ____
ROOT
ATOM      4  O   UNL     1      22.412   2.970  25.229  0.00  0.00    -0.368 OA
ATOM      5  O   UNL     1      24.691   2.413  23.256  0.00  0.00    -0.368 OA
ATOM     11  C   UNL     1      23.283   2.652  23.047  0.00  0.00    +0.173 C 
ATOM     12  C   UNL     1      22.550   1.983  24.194  0.00  0.00    +0.192 C 
ATOM     13  C   UNL     1      22.974   4.119  23.227  0.00  0.00    +0.130 C 
ATOM     14  C   UNL     1      23.503   0.882  24.593  0.00  0.00    +0.235 C 
ATOM     15  C   UNL     1      22.857   4.242  24.736  0.00  0.00    +0.185 C 
ATOM     16  C   UNL     1      24.851   1.534  24.380  0.00  0.00    +0.207 C 
ENDROOT
BRANCH  13   9
ATOM      7  O   UNL     1      22.394   6.594  21.891  0.00  0.00    -0.270 OA
ATOM      9  N   UNL     1      21.738   4.478  22.573  0.00  0.00    -0.304 N 
ATOM     17  C   UNL     1      21.551   5.704  21.952  0.00  0.00    +0.244 C 
ATOM     36  H   UNL     1      20.959   3.836  22.683  0.00  0.00    +0.149 HD
BRANCH  17  19
ATOM     19  C   UNL     1      20.212   5.929  21.348  0.00  0.00    +0.037 A 
ATOM     20  C   UNL     1      19.843   5.181  20.249  0.00  0.00    +0.013 A 
ATOM     21  C   UNL     1      19.383   6.880  21.903  0.00  0.00    +0.013 A 
ATOM     24  C   UNL     1      18.587   5.394  19.680  0.00  0.00    +0.013 A 
ATOM     25  C   UNL     1      18.127   7.093  21.335  0.00  0.00    +0.013 A 
ATOM     26  C   UNL     1      17.728   6.350  20.224  0.00  0.00    +0.055 A 
BRANCH  26  32
ATOM      1  F   UNL     1      15.359   6.043  20.343  0.00  0.00    -0.166 F 
ATOM      2  F   UNL     1      16.252   6.038  18.368  0.00  0.00    -0.166 F 
ATOM      3  F   UNL     1      16.087   7.901  19.479  0.00  0.00    -0.166 F 
ATOM     32  C   UNL     1      16.385   6.576  19.616  0.00  0.00    +0.417 C 
ENDBRANCH  26  32
ENDBRANCH  17  19
ENDBRANCH  13   9
BRANCH  14   6
ATOM      6  O   UNL     1      23.331   0.443  25.921  0.00  0.00    -0.442 OA
BRANCH   6  18
ATOM      8  O   UNL     1      23.051  -1.825  25.844  0.00  0.00    -0.226 OA
ATOM     10  N   UNL     1      21.357  -0.403  26.612  0.00  0.00    -0.251 N 
ATOM     18  C   UNL     1      22.605  -0.715  26.106  0.00  0.00    +0.405 C 
ATOM     37  H   UNL     1      21.202   0.589  26.753  0.00  0.00    +0.158 HD
BRANCH  10  22
ATOM     22  C   UNL     1      20.306  -1.287  26.944  0.00  0.00    +0.044 A 
ATOM     23  C   UNL     1      19.215  -1.473  26.091  0.00  0.00    +0.003 A 
ATOM     27  C   UNL     1      20.407  -1.961  28.155  0.00  0.00    +0.024 A 
ATOM     28  C   UNL     1      18.192  -2.371  26.478  0.00  0.00    -0.016 A 
ATOM     29  C   UNL     1      19.107  -0.794  24.866  0.00  0.00    +0.010 A 
ATOM     30  C   UNL     1      19.402  -2.845  28.535  0.00  0.00    +0.002 A 
ATOM     31  C   UNL     1      18.301  -3.050  27.702  0.00  0.00    +0.008 A 
ATOM     33  C   UNL     1      17.091  -2.565  25.627  0.00  0.00    +0.008 A 
ATOM     34  C   UNL     1      18.006  -0.999  24.034  0.00  0.00    +0.001 A 
ATOM     35  C   UNL     1      17.000  -1.883  24.414  0.00  0.00    +0.001 A 
ENDBRANCH  10  22
ENDBRANCH   6  18
ENDBRANCH  14   6
TORSDOF 6
ENDMDL
MODEL 7
REMARK VINA RESULT:      -7.5     27.976     30.082
REMARK  Name = 11883985
REMARK  6 active torsions:
REMARK  status: ('A' for Active; 'I' for Inactive)
REMARK    1  A    between atoms: O_6  and  C_14
REMARK    2  A    between atoms: O_6  and  C_18
REMARK    3  A    between atoms: N_9  and  C_13
REMARK    4  A    between atoms: N_10  and  C_22
REMARK    5  A    between atoms: C_17  and  C_19
REMARK    6  A    between atoms: C_26  and  C_32
REMARK                            x       y       z     vdW  Elec       q    Type
REMARK                         _______ _______ _______ _____ _____    ______ ____
ROOT
ATOM      4  O   UNL     1      14.106   8.897  20.272  0.00  0.00    -0.368 OA
ATOM      5  O   UNL     1      12.438   6.749  18.855  0.00  0.00    -0.368 OA
ATOM     11  C   UNL     1      12.783   8.096  18.474  0.00  0.00    +0.173 C 
ATOM     12  C   UNL     1      12.771   8.928  19.741  0.00  0.00    +0.192 C 
ATOM     13  C   UNL     1      14.222   8.155  18.017  0.00  0.00    +0.130 C 
ATOM     14  C   UNL     1      11.801   8.173  20.618  0.00  0.00    +0.235 C 
ATOM     15  C   UNL     1      14.975   8.245  19.333  0.00  0.00    +0.185 C 
ATOM     16  C   UNL     1      12.090   6.736  20.248  0.00  0.00    +0.207 C 
ENDROOT
BRANCH  13   9
ATOM      7  O   UNL     1      13.695   8.401  15.205  0.00  0.00    -0.270 OA
ATOM      9  N   UNL     1      14.464   9.314  17.193  0.00  0.00    -0.304 N 
ATOM     17  C   UNL     1      14.175   9.338  15.836  0.00  0.00    +0.244 C 
ATOM     36  H   UNL     1      14.965  10.085  17.622  0.00  0.00    +0.149 HD
BRANCH  17  19
ATOM     19  C   UNL     1      14.507  10.599  15.122  0.00  0.00    +0.037 A 
ATOM     20  C   UNL     1      15.827  10.866  14.822  0.00  0.00    +0.013 A 
ATOM     21  C   UNL     1      13.486  11.462  14.785  0.00  0.00    +0.013 A 
ATOM     24  C   UNL     1      16.139  12.050  14.154  0.00  0.00    +0.013 A 
ATOM     25  C   UNL     1      13.799  12.646  14.117  0.00  0.00    +0.013 A 
ATOM     26  C   UNL     1      15.125  12.940  13.801  0.00  0.00    +0.055 A 
BRANCH  26  32
ATOM      1  F   UNL     1      16.335  15.003  13.766  0.00  0.00    -0.166 F 
ATOM      2  F   UNL     1      14.373  14.998  12.842  0.00  0.00    -0.166 F 
ATOM      3  F   UNL     1      16.034  13.985  11.868  0.00  0.00    -0.166 F 
ATOM     32  C   UNL     1      15.459  14.205  13.086  0.00  0.00    +0.417 C 
ENDBRANCH  26  32
ENDBRANCH  17  19
ENDBRANCH  13   9
BRANCH  14   6
ATOM      6  O   UNL     1      11.984   8.414  21.994  0.00  0.00    -0.442 OA
BRANCH   6  18
ATOM      8  O   UNL     1       9.935   9.141  22.703  0.00  0.00    -0.226 OA
ATOM     10  N   UNL     1      11.866  10.434  22.991  0.00  0.00    -0.251 N 
ATOM     18  C   UNL     1      11.139   9.331  22.585  0.00  0.00    +0.405 C 
ATOM     37  H   UNL     1      12.857  10.376  22.790  0.00  0.00    +0.158 HD
BRANCH  10  22
ATOM     22  C   UNL     1      11.392  11.599  23.636  0.00  0.00    +0.044 A 
ATOM     23  C   UNL     1      11.128  12.769  22.921  0.00  0.00    +0.003 A 
ATOM     27  C   UNL     1      11.203  11.527  25.010  0.00  0.00    +0.024 A 
ATOM     28  C   UNL     1      10.658  13.905  23.620  0.00  0.00    -0.016 A 
ATOM     29  C   UNL     1      11.318  12.849  21.531  0.00  0.00    +0.010 A 
ATOM     30  C   UNL     1      10.739  12.643  25.699  0.00  0.00    +0.002 A 
ATOM     31  C   UNL     1      10.467  13.825  25.010  0.00  0.00    +0.008 A 
ATOM     33  C   UNL     1      10.388  15.087  22.911  0.00  0.00    +0.008 A 
ATOM     34  C   UNL     1      11.047  14.031  20.842  0.00  0.00    +0.001 A 
ATOM     35  C   UNL     1      10.583  15.149  21.531  0.00  0.00    +0.001 A 
ENDBRANCH  10  22
ENDBRANCH   6  18
ENDBRANCH  14   6
TORSDOF 6
ENDMDL
MODEL 8
REMARK VINA RESULT:      -7.5     23.556     26.414
REMARK  Name = 11883985
REMARK  6 active torsions:
REMARK  status: ('A' for Active; 'I' for Inactive)
REMARK    1  A    between atoms: O_6  and  C_14
REMARK    2  A    between atoms: O_6  and  C_18
REMARK    3  A    between atoms: N_9  and  C_13
REMARK    4  A    between atoms: N_10  and  C_22
REMARK    5  A    between atoms: C_17  and  C_19
REMARK    6  A    between atoms: C_26  and  C_32
REMARK                            x       y       z     vdW  Elec       q    Type
REMARK                         _______ _______ _______ _____ _____    ______ ____
ROOT
ATOM      4  O   UNL     1       5.654   9.583   2.590  0.00  0.00    -0.368 OA
ATOM      5  O   UNL     1       6.329  12.452   3.432  0.00  0.00    -0.368 OA
ATOM     11  C   UNL     1       6.286  11.221   4.183  0.00  0.00    +0.173 C 
ATOM     12  C   UNL     1       5.125  10.414   3.636  0.00  0.00    +0.192 C 
ATOM     13  C   UNL     1       7.497  10.376   3.864  0.00  0.00    +0.130 C 
ATOM     14  C   UNL     1       4.210  11.485   3.092  0.00  0.00    +0.235 C 
ATOM     15  C   UNL     1       7.085   9.698   2.569  0.00  0.00    +0.185 C 
ATOM     16  C   UNL     1       5.193  12.501   2.556  0.00  0.00    +0.207 C 
ENDROOT
BRANCH  13   9
ATOM      7  O   UNL     1       9.989   9.061   4.416  0.00  0.00    -0.270 OA
ATOM      9  N   UNL     1       7.750   9.410   4.905  0.00  0.00    -0.304 N 
ATOM     17  C   UNL     1       8.994   8.826   5.095  0.00  0.00    +0.244 C 
ATOM     36  H   UNL     1       6.946   9.082   5.431  0.00  0.00    +0.149 HD
BRANCH  17  19
ATOM     19  C   UNL     1       9.084   7.829   6.194  0.00  0.00    +0.037 A 
ATOM     20  C   UNL     1       9.333   6.510   5.877  0.00  0.00    +0.013 A 
ATOM     21  C   UNL     1       8.914   8.255   7.494  0.00  0.00    +0.013 A 
ATOM     24  C   UNL     1       9.416   5.574   6.908  0.00  0.00    +0.013 A 
ATOM     25  C   UNL     1       8.997   7.319   8.525  0.00  0.00    +0.013 A 
ATOM     26  C   UNL     1       9.248   5.978   8.233  0.00  0.00    +0.055 A 
BRANCH  26  32
ATOM      1  F   UNL     1       9.408   3.686   8.897  0.00  0.00    -0.166 F 
ATOM      2  F   UNL     1       8.269   5.006  10.187  0.00  0.00    -0.166 F 
ATOM      3  F   UNL     1      10.438   5.158  10.121  0.00  0.00    -0.166 F 
ATOM     32  C   UNL     1       9.337   4.977   9.335  0.00  0.00    +0.417 C 
ENDBRANCH  26  32
ENDBRANCH  17  19
ENDBRANCH  13   9
BRANCH  14   6
ATOM      6  O   UNL     1       3.331  11.019   2.094  0.00  0.00    -0.442 OA
BRANCH   6  18
ATOM      8  O   UNL     1       1.635  12.542   2.269  0.00  0.00    -0.226 OA
ATOM     10  N   UNL     1       1.222  10.238   2.261  0.00  0.00    -0.251 N 
ATOM     18  C   UNL     1       2.004  11.376   2.215  0.00  0.00    +0.405 C 
ATOM     37  H   UNL     1       1.744   9.371   2.199  0.00  0.00    +0.158 HD
BRANCH  10  22
ATOM     22  C   UNL     1      -0.183  10.152   2.381  0.00  0.00    +0.044 A 
ATOM     23  C   UNL     1      -1.002  10.018   1.257  0.00  0.00    +0.003 A 
ATOM     27  C   UNL     1      -0.712  10.208   3.664  0.00  0.00    +0.024 A 
ATOM     28  C   UNL     1      -2.403   9.938   1.439  0.00  0.00    -0.016 A 
ATOM     29  C   UNL     1      -0.475   9.961  -0.044  0.00  0.00    +0.010 A 
ATOM     30  C   UNL     1      -2.089  10.128   3.845  0.00  0.00    +0.002 A 
ATOM     31  C   UNL     1      -2.931   9.994   2.740  0.00  0.00    +0.008 A 
ATOM     33  C   UNL     1      -3.236   9.802   0.316  0.00  0.00    +0.008 A 
ATOM     34  C   UNL     1      -1.316   9.827  -1.148  0.00  0.00    +0.001 A 
ATOM     35  C   UNL     1      -2.694   9.748  -0.968  0.00  0.00    +0.001 A 
ENDBRANCH  10  22
ENDBRANCH   6  18
ENDBRANCH  14   6
TORSDOF 6
ENDMDL
MODEL 9
REMARK VINA RESULT:      -7.4      4.833      9.521
REMARK  Name = 11883985
REMARK  6 active torsions:
REMARK  status: ('A' for Active; 'I' for Inactive)
REMARK    1  A    between atoms: O_6  and  C_14
REMARK    2  A    between atoms: O_6  and  C_18
REMARK    3  A    between atoms: N_9  and  C_13
REMARK    4  A    between atoms: N_10  and  C_22
REMARK    5  A    between atoms: C_17  and  C_19
REMARK    6  A    between atoms: C_26  and  C_32
REMARK                            x       y       z     vdW  Elec       q    Type
REMARK                         _______ _______ _______ _____ _____    ______ ____
ROOT
ATOM      4  O   UNL     1     -10.194  -7.218  15.818  0.00  0.00    -0.368 OA
ATOM      5  O   UNL     1     -11.832  -9.770  16.270  0.00  0.00    -0.368 OA
ATOM     11  C   UNL     1     -10.495  -9.570  15.767  0.00  0.00    +0.173 C 
ATOM     12  C   UNL     1     -10.524  -8.303  14.935  0.00  0.00    +0.192 C 
ATOM     13  C   UNL     1      -9.557  -9.235  16.903  0.00  0.00    +0.130 C 
ATOM     14  C   UNL     1     -11.965  -8.240  14.486  0.00  0.00    +0.235 C 
ATOM     15  C   UNL     1      -9.799  -7.748  17.093  0.00  0.00    +0.185 C 
ATOM     16  C   UNL     1     -12.699  -8.782  15.692  0.00  0.00    +0.207 C 
ENDROOT
BRANCH  13   9
ATOM      7  O   UNL     1      -7.716 -10.927  18.315  0.00  0.00    -0.270 OA
ATOM      9  N   UNL     1      -8.186  -9.503  16.546  0.00  0.00    -0.304 N 
ATOM     17  C   UNL     1      -7.370 -10.339  17.295  0.00  0.00    +0.244 C 
ATOM     36  H   UNL     1      -7.797  -8.961  15.780  0.00  0.00    +0.149 HD
BRANCH  17  19
ATOM     19  C   UNL     1      -5.973 -10.490  16.809  0.00  0.00    +0.037 A 
ATOM     20  C   UNL     1      -4.991 -10.849  17.708  0.00  0.00    +0.013 A 
ATOM     21  C   UNL     1      -5.704 -10.265  15.475  0.00  0.00    +0.013 A 
ATOM     24  C   UNL     1      -3.679 -10.989  17.253  0.00  0.00    +0.013 A 
ATOM     25  C   UNL     1      -4.393 -10.406  15.021  0.00  0.00    +0.013 A 
ATOM     26  C   UNL     1      -3.380 -10.768  15.909  0.00  0.00    +0.055 A 
BRANCH  26  32
ATOM      1  F   UNL     1      -1.673 -10.101  14.372  0.00  0.00    -0.166 F 
ATOM      2  F   UNL     1      -1.684 -12.180  14.988  0.00  0.00    -0.166 F 
ATOM      3  F   UNL     1      -1.055 -10.637  16.386  0.00  0.00    -0.166 F 
ATOM     32  C   UNL     1      -1.979 -10.919  15.422  0.00  0.00    +0.417 C 
ENDBRANCH  26  32
ENDBRANCH  17  19
ENDBRANCH  13   9
BRANCH  14   6
ATOM      6  O   UNL     1     -12.391  -6.941  14.145  0.00  0.00    -0.442 OA
BRANCH   6  18
ATOM      8  O   UNL     1     -13.351  -7.551  12.162  0.00  0.00    -0.226 OA
ATOM     10  N   UNL     1     -12.302  -5.476  12.433  0.00  0.00    -0.251 N 
ATOM     18  C   UNL     1     -12.742  -6.724  12.829  0.00  0.00    +0.405 C 
ATOM     37  H   UNL     1     -11.817  -4.957  13.155  0.00  0.00    +0.158 HD
BRANCH  10  22
ATOM     22  C   UNL     1     -12.451  -4.861  11.169  0.00  0.00    +0.044 A 
ATOM     23  C   UNL     1     -13.476  -3.944  10.922  0.00  0.00    +0.003 A 
ATOM     27  C   UNL     1     -11.535  -5.211  10.185  0.00  0.00    +0.024 A 
ATOM     28  C   UNL     1     -13.576  -3.362   9.636  0.00  0.00    -0.016 A 
ATOM     29  C   UNL     1     -14.407  -3.587  11.912  0.00  0.00    +0.010 A 
ATOM     30  C   UNL     1     -11.632  -4.638   8.921  0.00  0.00    +0.002 A 
ATOM     31  C   UNL     1     -12.645  -3.719   8.647  0.00  0.00    +0.008 A 
ATOM     33  C   UNL     1     -14.602  -2.438   9.378  0.00  0.00    +0.008 A 
ATOM     34  C   UNL     1     -15.420  -2.668  11.638  0.00  0.00    +0.001 A 
ATOM     35  C   UNL     1     -15.518  -2.095  10.373  0.00  0.00    +0.001 A 
ENDBRANCH  10  22
ENDBRANCH   6  18
ENDBRANCH  14   6
TORSDOF 6
ENDMDL
MODEL 10
REMARK VINA RESULT:      -7.3     27.553     30.821
REMARK  Name = 11883985
REMARK  6 active torsions:
REMARK  status: ('A' for Active; 'I' for Inactive)
REMARK    1  A    between atoms: O_6  and  C_14
REMARK    2  A    between atoms: O_6  and  C_18
REMARK    3  A    between atoms: N_9  and  C_13
REMARK    4  A    between atoms: N_10  and  C_22
REMARK    5  A    between atoms: C_17  and  C_19
REMARK    6  A    between atoms: C_26  and  C_32
REMARK                            x       y       z     vdW  Elec       q    Type
REMARK                         _______ _______ _______ _____ _____    ______ ____
ROOT
ATOM      4  O   UNL     1      13.141   8.121   4.323  0.00  0.00    -0.368 OA
ATOM      5  O   UNL     1      12.599   8.062   7.341  0.00  0.00    -0.368 OA
ATOM     11  C   UNL     1      13.732   7.620   6.564  0.00  0.00    +0.173 C 
ATOM     12  C   UNL     1      13.183   7.044   5.274  0.00  0.00    +0.192 C 
ATOM     13  C   UNL     1      14.547   8.810   6.112  0.00  0.00    +0.130 C 
ATOM     14  C   UNL     1      11.798   6.600   5.679  0.00  0.00    +0.235 C 
ATOM     15  C   UNL     1      13.783   9.276   4.886  0.00  0.00    +0.185 C 
ATOM     16  C   UNL     1      11.394   7.674   6.664  0.00  0.00    +0.207 C 
ENDROOT
BRANCH  13   9
ATOM      7  O   UNL     1      16.924  10.378   6.478  0.00  0.00    -0.270 OA
ATOM      9  N   UNL     1      15.895   8.423   5.775  0.00  0.00    -0.304 N 
ATOM     17  C   UNL     1      16.985   9.254   5.990  0.00  0.00    +0.244 C 
ATOM     36  H   UNL     1      16.008   7.554   5.263  0.00  0.00    +0.149 HD
BRANCH  17  19
ATOM     19  C   UNL     1      18.305   8.718   5.564  0.00  0.00    +0.037 A 
ATOM     20  C   UNL     1      19.318   8.624   6.496  0.00  0.00    +0.013 A 
ATOM     21  C   UNL     1      18.475   8.335   4.250  0.00  0.00    +0.013 A 
ATOM     24  C   UNL     1      20.557   8.124   6.096  0.00  0.00    +0.013 A 
ATOM     25  C   UNL     1      19.714   7.835   3.850  0.00  0.00    +0.013 A 
ATOM     26  C   UNL     1      20.756   7.729   4.772  0.00  0.00    +0.055 A 
BRANCH  26  32
ATOM      1  F   UNL     1      22.142   5.828   4.338  0.00  0.00    -0.166 F 
ATOM      2  F   UNL     1      23.114   7.591   5.145  0.00  0.00    -0.166 F 
ATOM      3  F   UNL     1      22.422   7.582   3.083  0.00  0.00    -0.166 F 
ATOM     32  C   UNL     1      22.080   7.193   4.345  0.00  0.00    +0.417 C 
ENDBRANCH  26  32
ENDBRANCH  17  19
ENDBRANCH  13   9
BRANCH  14   6
ATOM      6  O   UNL     1      10.899   6.508   4.597  0.00  0.00    -0.442 OA
BRANCH   6  18
ATOM      8  O   UNL     1      10.541   4.308   4.089  0.00  0.00    -0.226 OA
ATOM     10  N   UNL     1      11.706   5.729   2.640  0.00  0.00    -0.251 N 
ATOM     18  C   UNL     1      11.010   5.398   3.786  0.00  0.00    +0.405 C 
ATOM     37  H   UNL     1      12.002   6.698   2.599  0.00  0.00    +0.158 HD
BRANCH  10  22
ATOM     22  C   UNL     1      12.041   4.892   1.552  0.00  0.00    +0.044 A 
ATOM     23  C   UNL     1      11.300   4.906   0.368  0.00  0.00    +0.003 A 
ATOM     27  C   UNL     1      13.139   4.056   1.713  0.00  0.00    +0.024 A 
ATOM     28  C   UNL     1      11.681   4.045  -0.687  0.00  0.00    -0.016 A 
ATOM     29  C   UNL     1      10.188   5.749   0.199  0.00  0.00    +0.010 A 
ATOM     30  C   UNL     1      13.516   3.209   0.676  0.00  0.00    +0.002 A 
ATOM     31  C   UNL     1      12.793   3.203  -0.518  0.00  0.00    +0.008 A 
ATOM     33  C   UNL     1      10.943   4.052  -1.882  0.00  0.00    +0.008 A 
ATOM     34  C   UNL     1       9.465   5.742  -0.994  0.00  0.00    +0.001 A 
ATOM     35  C   UNL     1       9.841   4.895  -2.032  0.00  0.00    +0.001 A 
ENDBRANCH  10  22
ENDBRANCH   6  18
ENDBRANCH  14   6
TORSDOF 6
ENDMDL
