REMARK  Name = 38029777
REMARK  12 active torsions:
REMARK  status: ('A' for Active; 'I' for Inactive)
REMARK    1  A    between atoms: O_1  and  C_18
REMARK    2  A    between atoms: O_1  and  C_21
REMARK    3  A    between atoms: N_4  and  C_13
REMARK    4  A    between atoms: C_6  and  C_10
REMARK    5  A    between atoms: C_7  and  C_13
REMARK    6  A    between atoms: C_9  and  C_14
REMARK    7  A    between atoms: C_10  and  C_15
REMARK    8  A    between atoms: C_10  and  C_16
REMARK    9  A    between atoms: C_11  and  C_17
REMARK   10  A    between atoms: C_14  and  C_18
REMARK   11  A    between atoms: C_19  and  C_20
REMARK   12  A    between atoms: C_21  and  C_24
REMARK                            x       y       z     vdW  Elec       q    Type
REMARK                         _______ _______ _______ _____ _____    ______ ____
ROOT
ATOM      6  C   UNL     1      -1.522   1.086  -0.778  0.00  0.00    +0.000 C 
ATOM      7  C   UNL     1      -1.125   2.442  -0.143  0.00  0.00    +0.032 C 
ATOM      8  C   UNL     1      -2.696   0.458  -0.011  0.00  0.00    +0.012 C 
ATOM      9  C   UNL     1      -2.362   0.223   1.475  0.00  0.00    +0.025 C 
ATOM     11  C   UNL     1      -1.714   1.439   2.106  0.00  0.00    -0.073 C 
ATOM     12  C   UNL     1      -1.179   2.427   1.367  0.00  0.00    -0.022 C 
ATOM     17  C   UNL     1      -1.737   1.516   3.607  0.00  0.00    +0.039 C 
ENDROOT
BRANCH   6  10
ATOM     10  C   UNL     1      -1.890   1.236  -2.257  0.00  0.00    -0.013 C 
ATOM     15  C   UNL     1      -1.691  -0.086  -2.992  0.00  0.00    +0.007 C 
ATOM     16  C   UNL     1      -3.329   1.723  -2.400  0.00  0.00    +0.007 C 
ENDBRANCH   6  10
BRANCH   7  13
ATOM     13  C   UNL     1       0.272   2.878  -0.600  0.00  0.00    +0.112 C 
BRANCH  13   4
ATOM      3  O   UNL     1       2.095   1.315  -2.173  0.00  0.00    -0.270 OA
ATOM      4  N   UNL     1       1.270   1.981  -0.109  0.00  0.00    -0.311 N 
ATOM     19  C   UNL     1       2.118   1.257  -0.947  0.00  0.00    +0.244 C 
ATOM     27  H   UNL     1       1.343   1.878   0.897  0.00  0.00    +0.149 HD
BRANCH  19  20
ATOM      5  N   UNL     1       4.899  -1.370   0.974  0.00  0.00    -0.263 NA
ATOM     20  C   UNL     1       3.084   0.347  -0.281  0.00  0.00    +0.040 A 
ATOM     22  C   UNL     1       3.552  -0.782  -0.945  0.00  0.00    +0.033 A 
ATOM     23  C   UNL     1       3.523   0.618   1.011  0.00  0.00    +0.033 A 
ATOM     25  C   UNL     1       4.450  -1.601  -0.280  0.00  0.00    +0.111 A 
ATOM     26  C   UNL     1       4.423  -0.264   1.589  0.00  0.00    +0.111 A 
ENDBRANCH  19  20
ENDBRANCH  13   4
ENDBRANCH   7  13
BRANCH   9  14
ATOM     14  C   UNL     1      -1.485  -1.021   1.654  0.00  0.00    +0.128 C 
BRANCH  14  18
ATOM      2  O   UNL     1      -3.198  -2.715   1.324  0.00  0.00    -0.251 OA
ATOM     18  C   UNL     1      -2.112  -2.237   1.025  0.00  0.00    +0.308 C 
BRANCH  18   1
ATOM      1  O   UNL     1      -1.263  -2.713   0.067  0.00  0.00    -0.465 OA
BRANCH   1  21
ATOM     21  C   UNL     1      -1.714  -3.878  -0.632  0.00  0.00    +0.229 C 
ATOM     24  C   UNL     1      -0.669  -4.277  -1.651  0.00  0.00    +0.048 C 
ENDBRANCH   1  21
ENDBRANCH  18   1
ENDBRANCH  14  18
ENDBRANCH   9  14
TORSDOF 8
