MODEL 1
REMARK VINA RESULT:      -7.8      0.000      0.000
REMARK  Name = 11884036
REMARK  8 active torsions:
REMARK  status: ('A' for Active; 'I' for Inactive)
REMARK    1  A    between atoms: O_3  and  C_14
REMARK    2  A    between atoms: O_3  and  C_18
REMARK    3  A    between atoms: O_6  and  C_30
REMARK    4  A    between atoms: O_6  and  C_32
REMARK    5  A    between atoms: N_7  and  C_13
REMARK    6  A    between atoms: N_8  and  C_19
REMARK    7  A    between atoms: N_9  and  C_20
REMARK    8  A    between atoms: C_25  and  C_31
REMARK                            x       y       z     vdW  Elec       q    Type
REMARK                         _______ _______ _______ _____ _____    ______ ____
ROOT
ATOM      1  O   UNL     1      11.611   3.546  -0.155  0.00  0.00    -0.368 OA
ATOM      2  O   UNL     1      12.789   6.377  -0.132  0.00  0.00    -0.368 OA
ATOM     11  C   UNL     1      11.726   5.778   0.637  0.00  0.00    +0.173 C 
ATOM     12  C   UNL     1      10.988   4.835  -0.291  0.00  0.00    +0.192 C 
ATOM     13  C   UNL     1      12.301   4.867   1.697  0.00  0.00    +0.131 C 
ATOM     14  C   UNL     1      11.252   5.441  -1.649  0.00  0.00    +0.235 C 
ATOM     15  C   UNL     1      12.566   3.592   0.915  0.00  0.00    +0.185 C 
ATOM     16  C   UNL     1      12.665   5.958  -1.499  0.00  0.00    +0.207 C 
ENDROOT
BRANCH  13   7
ATOM      4  O   UNL     1      11.809   6.581   3.939  0.00  0.00    -0.252 OA
ATOM      7  N   UNL     1      11.356   4.642   2.763  0.00  0.00    -0.292 N 
ATOM      8  N   UNL     1      10.197   5.055   4.704  0.00  0.00    -0.269 N 
ATOM     17  C   UNL     1      11.175   5.534   3.828  0.00  0.00    +0.304 C 
ATOM     38  H   UNL     1      10.747   3.832   2.706  0.00  0.00    +0.151 HD
ATOM     39  H   UNL     1       9.767   4.164   4.465  0.00  0.00    +0.156 HD
BRANCH   8  19
ATOM     19  C   UNL     1       9.726   5.658   5.894  0.00  0.00    +0.036 A 
ATOM     21  C   UNL     1       9.962   5.049   7.126  0.00  0.00    +0.042 A 
ATOM     22  C   UNL     1       9.025   6.863   5.834  0.00  0.00    +0.023 A 
ATOM     25  C   UNL     1       9.498   5.644   8.298  0.00  0.00    +0.054 A 
ATOM     26  C   UNL     1       8.562   7.458   7.007  0.00  0.00    +0.003 A 
ATOM     29  C   UNL     1       8.798   6.849   8.239  0.00  0.00    +0.019 A 
BRANCH  25  31
ATOM     10  N   UNL     1       9.934   4.515  10.587  0.00  0.00    -0.191 NA
ATOM     31  C   UNL     1       9.739   5.021   9.561  0.00  0.00    +0.099 C 
ENDBRANCH  25  31
ENDBRANCH   8  19
ENDBRANCH  13   7
BRANCH  14   3
ATOM      3  O   UNL     1      11.133   4.521  -2.710  0.00  0.00    -0.442 OA
BRANCH   3  18
ATOM      5  O   UNL     1       9.342   3.194  -3.220  0.00  0.00    -0.226 OA
ATOM      9  N   UNL     1       9.331   5.493  -3.656  0.00  0.00    -0.251 N 
ATOM     18  C   UNL     1       9.865   4.301  -3.207  0.00  0.00    +0.405 C 
ATOM     40  H   UNL     1       9.923   6.316  -3.559  0.00  0.00    +0.158 HD
BRANCH   9  20
ATOM     20  C   UNL     1       8.061   5.715  -4.236  0.00  0.00    +0.037 A 
ATOM     23  C   UNL     1       7.019   6.221  -3.459  0.00  0.00    +0.027 A 
ATOM     24  C   UNL     1       7.852   5.430  -5.584  0.00  0.00    +0.027 A 
ATOM     27  C   UNL     1       5.766   6.441  -4.032  0.00  0.00    +0.048 A 
ATOM     28  C   UNL     1       6.599   5.650  -6.157  0.00  0.00    +0.048 A 
ATOM     30  C   UNL     1       5.556   6.156  -5.380  0.00  0.00    +0.129 A 
BRANCH  30   6
ATOM      6  O   UNL     1       4.333   6.371  -5.939  0.00  0.00    -0.456 OA
BRANCH   6  32
ATOM     32  C   UNL     1       3.274   5.602  -5.485  0.00  0.00    +0.128 A 
ATOM     33  C   UNL     1       2.117   6.219  -5.010  0.00  0.00    +0.046 A 
ATOM     34  C   UNL     1       3.366   4.211  -5.502  0.00  0.00    +0.046 A 
ATOM     35  C   UNL     1       1.051   5.445  -4.552  0.00  0.00    +0.004 A 
ATOM     36  C   UNL     1       2.300   3.436  -5.044  0.00  0.00    +0.004 A 
ATOM     37  C   UNL     1       1.142   4.054  -4.569  0.00  0.00    +0.000 A 
ENDBRANCH   6  32
ENDBRANCH  30   6
ENDBRANCH   9  20
ENDBRANCH   3  18
ENDBRANCH  14   3
TORSDOF 8
ENDMDL
MODEL 2
REMARK VINA RESULT:      -7.6     22.666     24.741
REMARK  Name = 11884036
REMARK  8 active torsions:
REMARK  status: ('A' for Active; 'I' for Inactive)
REMARK    1  A    between atoms: O_3  and  C_14
REMARK    2  A    between atoms: O_3  and  C_18
REMARK    3  A    between atoms: O_6  and  C_30
REMARK    4  A    between atoms: O_6  and  C_32
REMARK    5  A    between atoms: N_7  and  C_13
REMARK    6  A    between atoms: N_8  and  C_19
REMARK    7  A    between atoms: N_9  and  C_20
REMARK    8  A    between atoms: C_25  and  C_31
REMARK                            x       y       z     vdW  Elec       q    Type
REMARK                         _______ _______ _______ _____ _____    ______ ____
ROOT
ATOM      1  O   UNL     1      -7.000 -10.249  10.108  0.00  0.00    -0.368 OA
ATOM      2  O   UNL     1      -4.077 -10.018   9.209  0.00  0.00    -0.368 OA
ATOM     11  C   UNL     1      -4.789  -9.416  10.310  0.00  0.00    +0.173 C 
ATOM     12  C   UNL     1      -6.185  -9.102   9.812  0.00  0.00    +0.192 C 
ATOM     13  C   UNL     1      -5.014 -10.436  11.402  0.00  0.00    +0.131 C 
ATOM     14  C   UNL     1      -5.972  -8.936   8.327  0.00  0.00    +0.235 C 
ATOM     15  C   UNL     1      -6.244 -11.175  10.903  0.00  0.00    +0.185 C 
ATOM     16  C   UNL     1      -4.907  -9.971   8.039  0.00  0.00    +0.207 C 
ENDROOT
BRANCH  13   7
ATOM      4  O   UNL     1      -5.410 -11.735  13.924  0.00  0.00    -0.252 OA
ATOM      7  N   UNL     1      -5.264  -9.797  12.671  0.00  0.00    -0.292 N 
ATOM      8  N   UNL     1      -5.671  -9.628  14.926  0.00  0.00    -0.269 N 
ATOM     17  C   UNL     1      -5.448 -10.508  13.864  0.00  0.00    +0.304 C 
ATOM     38  H   UNL     1      -5.243  -8.783  12.714  0.00  0.00    +0.151 HD
ATOM     39  H   UNL     1      -5.672  -8.635  14.703  0.00  0.00    +0.156 HD
BRANCH   8  19
ATOM     19  C   UNL     1      -5.899  -9.947  16.285  0.00  0.00    +0.036 A 
ATOM     21  C   UNL     1      -4.927 -10.632  17.015  0.00  0.00    +0.042 A 
ATOM     22  C   UNL     1      -7.097  -9.576  16.896  0.00  0.00    +0.023 A 
ATOM     25  C   UNL     1      -5.152 -10.945  18.354  0.00  0.00    +0.054 A 
ATOM     26  C   UNL     1      -7.322  -9.890  18.237  0.00  0.00    +0.003 A 
ATOM     29  C   UNL     1      -6.350 -10.575  18.965  0.00  0.00    +0.019 A 
BRANCH  25  31
ATOM     10  N   UNL     1      -3.349 -12.217  19.710  0.00  0.00    -0.191 NA
ATOM     31  C   UNL     1      -4.157 -11.647  19.102  0.00  0.00    +0.099 C 
ENDBRANCH  25  31
ENDBRANCH   8  19
ENDBRANCH  13   7
BRANCH  14   3
ATOM      3  O   UNL     1      -7.138  -9.148   7.563  0.00  0.00    -0.442 OA
BRANCH   3  18
ATOM      5  O   UNL     1      -7.915  -7.468   6.221  0.00  0.00    -0.226 OA
ATOM      9  N   UNL     1      -8.670  -7.733   8.421  0.00  0.00    -0.251 N 
ATOM     18  C   UNL     1      -7.922  -8.044   7.302  0.00  0.00    +0.405 C 
ATOM     40  H   UNL     1      -8.539  -8.335   9.231  0.00  0.00    +0.158 HD
BRANCH   9  20
ATOM     20  C   UNL     1      -9.601  -6.681   8.582  0.00  0.00    +0.037 A 
ATOM     23  C   UNL     1     -10.962  -6.964   8.686  0.00  0.00    +0.027 A 
ATOM     24  C   UNL     1      -9.156  -5.361   8.637  0.00  0.00    +0.027 A 
ATOM     27  C   UNL     1     -11.879  -5.925   8.846  0.00  0.00    +0.048 A 
ATOM     28  C   UNL     1     -10.073  -4.322   8.797  0.00  0.00    +0.048 A 
ATOM     30  C   UNL     1     -11.435  -4.604   8.902  0.00  0.00    +0.129 A 
BRANCH  30   6
ATOM      6  O   UNL     1     -12.330  -3.590   9.058  0.00  0.00    -0.456 OA
BRANCH   6  32
ATOM     32  C   UNL     1     -13.073  -3.562  10.226  0.00  0.00    +0.128 A 
ATOM     33  C   UNL     1     -14.466  -3.513  10.167  0.00  0.00    +0.046 A 
ATOM     34  C   UNL     1     -12.428  -3.581  11.462  0.00  0.00    +0.046 A 
ATOM     35  C   UNL     1     -15.214  -3.484  11.343  0.00  0.00    +0.004 A 
ATOM     36  C   UNL     1     -13.176  -3.551  12.639  0.00  0.00    +0.004 A 
ATOM     37  C   UNL     1     -14.569  -3.503  12.580  0.00  0.00    +0.000 A 
ENDBRANCH   6  32
ENDBRANCH  30   6
ENDBRANCH   9  20
ENDBRANCH   3  18
ENDBRANCH  14   3
TORSDOF 8
ENDMDL
MODEL 3
REMARK VINA RESULT:      -7.6     24.459     26.770
REMARK  Name = 11884036
REMARK  8 active torsions:
REMARK  status: ('A' for Active; 'I' for Inactive)
REMARK    1  A    between atoms: O_3  and  C_14
REMARK    2  A    between atoms: O_3  and  C_18
REMARK    3  A    between atoms: O_6  and  C_30
REMARK    4  A    between atoms: O_6  and  C_32
REMARK    5  A    between atoms: N_7  and  C_13
REMARK    6  A    between atoms: N_8  and  C_19
REMARK    7  A    between atoms: N_9  and  C_20
REMARK    8  A    between atoms: C_25  and  C_31
REMARK                            x       y       z     vdW  Elec       q    Type
REMARK                         _______ _______ _______ _____ _____    ______ ____
ROOT
ATOM      1  O   UNL     1     -11.261  -5.869  16.069  0.00  0.00    -0.368 OA
ATOM      2  O   UNL     1     -12.399  -8.356  14.682  0.00  0.00    -0.368 OA
ATOM     11  C   UNL     1     -11.046  -7.878  14.828  0.00  0.00    +0.173 C 
ATOM     12  C   UNL     1     -11.100  -6.367  14.730  0.00  0.00    +0.192 C 
ATOM     13  C   UNL     1     -10.554  -8.133  16.233  0.00  0.00    +0.131 C 
ATOM     14  C   UNL     1     -12.338  -6.139  13.896  0.00  0.00    +0.235 C 
ATOM     15  C   UNL     1     -11.139  -6.957  16.997  0.00  0.00    +0.185 C 
ATOM     16  C   UNL     1     -13.253  -7.245  14.372  0.00  0.00    +0.207 C 
ENDROOT
BRANCH  13   7
ATOM      4  O   UNL     1      -8.837 -10.427  16.248  0.00  0.00    -0.252 OA
ATOM      7  N   UNL     1      -9.112  -8.131  16.292  0.00  0.00    -0.292 N 
ATOM      8  N   UNL     1      -6.983  -8.991  16.357  0.00  0.00    -0.269 N 
ATOM     17  C   UNL     1      -8.344  -9.302  16.295  0.00  0.00    +0.304 C 
ATOM     38  H   UNL     1      -8.629  -7.239  16.264  0.00  0.00    +0.151 HD
ATOM     39  H   UNL     1      -6.741  -8.004  16.391  0.00  0.00    +0.156 HD
BRANCH   8  19
ATOM     19  C   UNL     1      -5.888  -9.886  16.380  0.00  0.00    +0.036 A 
ATOM     21  C   UNL     1      -5.441 -10.413  17.592  0.00  0.00    +0.042 A 
ATOM     22  C   UNL     1      -5.254 -10.243  15.189  0.00  0.00    +0.023 A 
ATOM     25  C   UNL     1      -4.362 -11.296  17.613  0.00  0.00    +0.054 A 
ATOM     26  C   UNL     1      -4.175 -11.126  15.211  0.00  0.00    +0.003 A 
ATOM     29  C   UNL     1      -3.729 -11.652  16.423  0.00  0.00    +0.019 A 
BRANCH  25  31
ATOM     10  N   UNL     1      -3.530 -12.273  19.862  0.00  0.00    -0.191 NA
ATOM     31  C   UNL     1      -3.903 -11.835  18.854  0.00  0.00    +0.099 C 
ENDBRANCH  25  31
ENDBRANCH   8  19
ENDBRANCH  13   7
BRANCH  14   3
ATOM      3  O   UNL     1     -12.910  -4.863  14.075  0.00  0.00    -0.442 OA
BRANCH   3  18
ATOM      5  O   UNL     1     -12.040  -3.198  12.773  0.00  0.00    -0.226 OA
ATOM      9  N   UNL     1     -14.039  -4.278  12.213  0.00  0.00    -0.251 N 
ATOM     18  C   UNL     1     -12.920  -4.024  12.981  0.00  0.00    +0.405 C 
ATOM     40  H   UNL     1     -14.660  -5.010  12.551  0.00  0.00    +0.158 HD
BRANCH   9  20
ATOM     20  C   UNL     1     -14.432  -3.647  11.010  0.00  0.00    +0.037 A 
ATOM     23  C   UNL     1     -13.869  -4.044   9.798  0.00  0.00    +0.027 A 
ATOM     24  C   UNL     1     -15.384  -2.628  11.037  0.00  0.00    +0.027 A 
ATOM     27  C   UNL     1     -14.258  -3.421   8.612  0.00  0.00    +0.048 A 
ATOM     28  C   UNL     1     -15.774  -2.006   9.851  0.00  0.00    +0.048 A 
ATOM     30  C   UNL     1     -15.210  -2.402   8.638  0.00  0.00    +0.129 A 
BRANCH  30   6
ATOM      6  O   UNL     1     -15.589  -1.795   7.480  0.00  0.00    -0.456 OA
BRANCH   6  32
ATOM     32  C   UNL     1     -15.085  -0.531   7.221  0.00  0.00    +0.128 A 
ATOM     33  C   UNL     1     -15.910   0.587   7.339  0.00  0.00    +0.046 A 
ATOM     34  C   UNL     1     -13.752  -0.378   6.840  0.00  0.00    +0.046 A 
ATOM     35  C   UNL     1     -15.402   1.860   7.078  0.00  0.00    +0.004 A 
ATOM     36  C   UNL     1     -13.244   0.894   6.578  0.00  0.00    +0.004 A 
ATOM     37  C   UNL     1     -14.069   2.013   6.697  0.00  0.00    +0.000 A 
ENDBRANCH   6  32
ENDBRANCH  30   6
ENDBRANCH   9  20
ENDBRANCH   3  18
ENDBRANCH  14   3
TORSDOF 8
ENDMDL
MODEL 4
REMARK VINA RESULT:      -7.4     20.884     24.737
REMARK  Name = 11884036
REMARK  8 active torsions:
REMARK  status: ('A' for Active; 'I' for Inactive)
REMARK    1  A    between atoms: O_3  and  C_14
REMARK    2  A    between atoms: O_3  and  C_18
REMARK    3  A    between atoms: O_6  and  C_30
REMARK    4  A    between atoms: O_6  and  C_32
REMARK    5  A    between atoms: N_7  and  C_13
REMARK    6  A    between atoms: N_8  and  C_19
REMARK    7  A    between atoms: N_9  and  C_20
REMARK    8  A    between atoms: C_25  and  C_31
REMARK                            x       y       z     vdW  Elec       q    Type
REMARK                         _______ _______ _______ _____ _____    ______ ____
ROOT
ATOM      1  O   UNL     1      15.375   8.719  19.653  0.00  0.00    -0.368 OA
ATOM      2  O   UNL     1      14.404   6.225  21.149  0.00  0.00    -0.368 OA
ATOM     11  C   UNL     1      15.514   6.429  20.251  0.00  0.00    +0.173 C 
ATOM     12  C   UNL     1      15.046   7.400  19.186  0.00  0.00    +0.192 C 
ATOM     13  C   UNL     1      16.623   7.173  20.957  0.00  0.00    +0.131 C 
ATOM     14  C   UNL     1      13.553   7.170  19.168  0.00  0.00    +0.235 C 
ATOM     15  C   UNL     1      16.162   8.617  20.849  0.00  0.00    +0.185 C 
ATOM     16  C   UNL     1      13.253   6.905  20.626  0.00  0.00    +0.207 C 
ENDROOT
BRANCH  13   7
ATOM      4  O   UNL     1      19.133   6.585  22.207  0.00  0.00    -0.252 OA
ATOM      7  N   UNL     1      17.890   6.975  20.296  0.00  0.00    -0.292 N 
ATOM      8  N   UNL     1      20.138   6.550  20.085  0.00  0.00    -0.269 N 
ATOM     17  C   UNL     1      19.077   6.690  20.983  0.00  0.00    +0.304 C 
ATOM     38  H   UNL     1      17.911   6.979  19.281  0.00  0.00    +0.151 HD
ATOM     39  H   UNL     1      19.919   6.670  19.098  0.00  0.00    +0.156 HD
BRANCH   8  19
ATOM     19  C   UNL     1      21.492   6.262  20.377  0.00  0.00    +0.036 A 
ATOM     21  C   UNL     1      21.921   4.938  20.467  0.00  0.00    +0.042 A 
ATOM     22  C   UNL     1      22.398   7.304  20.576  0.00  0.00    +0.023 A 
ATOM     25  C   UNL     1      23.255   4.655  20.755  0.00  0.00    +0.054 A 
ATOM     26  C   UNL     1      23.733   7.021  20.864  0.00  0.00    +0.003 A 
ATOM     29  C   UNL     1      24.161   5.696  20.954  0.00  0.00    +0.019 A 
BRANCH  25  31
ATOM     10  N   UNL     1      24.052   2.198  20.923  0.00  0.00    -0.191 NA
ATOM     31  C   UNL     1      23.695   3.299  20.847  0.00  0.00    +0.099 C 
ENDBRANCH  25  31
ENDBRANCH   8  19
ENDBRANCH  13   7
BRANCH  14   3
ATOM      3  O   UNL     1      12.821   8.264  18.665  0.00  0.00    -0.442 OA
BRANCH   3  18
ATOM      5  O   UNL     1      10.676   8.576  19.394  0.00  0.00    -0.226 OA
ATOM      9  N   UNL     1      12.491   9.639  20.422  0.00  0.00    -0.251 N 
ATOM     18  C   UNL     1      11.872   8.817  19.500  0.00  0.00    +0.405 C 
ATOM     40  H   UNL     1      13.504   9.712  20.351  0.00  0.00    +0.158 HD
BRANCH   9  20
ATOM     20  C   UNL     1      11.891  10.396  21.455  0.00  0.00    +0.037 A 
ATOM     23  C   UNL     1      11.708  11.769  21.297  0.00  0.00    +0.027 A 
ATOM     24  C   UNL     1      11.482   9.767  22.630  0.00  0.00    +0.027 A 
ATOM     27  C   UNL     1      11.115  12.515  22.317  0.00  0.00    +0.048 A 
ATOM     28  C   UNL     1      10.889  10.513  23.650  0.00  0.00    +0.048 A 
ATOM     30  C   UNL     1      10.706  11.887  23.493  0.00  0.00    +0.129 A 
BRANCH  30   6
ATOM      6  O   UNL     1      10.127  12.615  24.487  0.00  0.00    -0.456 OA
BRANCH   6  32
ATOM     32  C   UNL     1      10.961  13.334  25.326  0.00  0.00    +0.128 A 
ATOM     33  C   UNL     1      12.295  12.955  25.478  0.00  0.00    +0.046 A 
ATOM     34  C   UNL     1      10.467  14.438  26.021  0.00  0.00    +0.046 A 
ATOM     35  C   UNL     1      13.135  13.679  26.324  0.00  0.00    +0.004 A 
ATOM     36  C   UNL     1      11.306  15.162  26.868  0.00  0.00    +0.004 A 
ATOM     37  C   UNL     1      12.640  14.782  27.019  0.00  0.00    +0.000 A 
ENDBRANCH   6  32
ENDBRANCH  30   6
ENDBRANCH   9  20
ENDBRANCH   3  18
ENDBRANCH  14   3
TORSDOF 8
ENDMDL
MODEL 5
REMARK VINA RESULT:      -7.1     25.234     28.528
REMARK  Name = 11884036
REMARK  8 active torsions:
REMARK  status: ('A' for Active; 'I' for Inactive)
REMARK    1  A    between atoms: O_3  and  C_14
REMARK    2  A    between atoms: O_3  and  C_18
REMARK    3  A    between atoms: O_6  and  C_30
REMARK    4  A    between atoms: O_6  and  C_32
REMARK    5  A    between atoms: N_7  and  C_13
REMARK    6  A    between atoms: N_8  and  C_19
REMARK    7  A    between atoms: N_9  and  C_20
REMARK    8  A    between atoms: C_25  and  C_31
REMARK                            x       y       z     vdW  Elec       q    Type
REMARK                         _______ _______ _______ _____ _____    ______ ____
ROOT
ATOM      1  O   UNL     1      -6.892 -10.362  19.679  0.00  0.00    -0.368 OA
ATOM      2  O   UNL     1      -7.341 -13.271  18.822  0.00  0.00    -0.368 OA
ATOM     11  C   UNL     1      -6.877 -12.120  18.088  0.00  0.00    +0.173 C 
ATOM     12  C   UNL     1      -7.658 -10.927  18.601  0.00  0.00    +0.192 C 
ATOM     13  C   UNL     1      -5.448 -11.806  18.462  0.00  0.00    +0.131 C 
ATOM     14  C   UNL     1      -8.935 -11.562  19.097  0.00  0.00    +0.235 C 
ATOM     15  C   UNL     1      -5.618 -11.020  19.751  0.00  0.00    +0.185 C 
ATOM     16  C   UNL     1      -8.442 -12.878  19.654  0.00  0.00    +0.207 C 
ENDROOT
BRANCH  13   7
ATOM      4  O   UNL     1      -4.924 -12.588  15.756  0.00  0.00    -0.252 OA
ATOM      7  N   UNL     1      -4.802 -11.013  17.445  0.00  0.00    -0.292 N 
ATOM      8  N   UNL     1      -3.940 -10.490  15.381  0.00  0.00    -0.269 N 
ATOM     17  C   UNL     1      -4.583 -11.471  16.140  0.00  0.00    +0.304 C 
ATOM     38  H   UNL     1      -4.551 -10.054  17.667  0.00  0.00    +0.151 HD
ATOM     39  H   UNL     1      -3.725  -9.615  15.853  0.00  0.00    +0.156 HD
BRANCH   8  19
ATOM     19  C   UNL     1      -3.545 -10.561  14.024  0.00  0.00    +0.036 A 
ATOM     21  C   UNL     1      -4.496 -10.430  13.012  0.00  0.00    +0.042 A 
ATOM     22  C   UNL     1      -2.204 -10.762  13.699  0.00  0.00    +0.023 A 
ATOM     25  C   UNL     1      -4.107 -10.499  11.675  0.00  0.00    +0.054 A 
ATOM     26  C   UNL     1      -1.814 -10.831  12.361  0.00  0.00    +0.003 A 
ATOM     29  C   UNL     1      -2.765 -10.701  11.349  0.00  0.00    +0.019 A 
BRANCH  25  31
ATOM     10  N   UNL     1      -5.871 -10.258   9.795  0.00  0.00    -0.191 NA
ATOM     31  C   UNL     1      -5.080 -10.366  10.638  0.00  0.00    +0.099 C 
ENDBRANCH  25  31
ENDBRANCH   8  19
ENDBRANCH  13   7
BRANCH  14   3
ATOM      3  O   UNL     1      -9.606 -10.792  20.069  0.00  0.00    -0.442 OA
BRANCH   3  18
ATOM      5  O   UNL     1     -11.670  -9.832  20.283  0.00  0.00    -0.226 OA
ATOM      9  N   UNL     1     -10.338  -9.474  18.392  0.00  0.00    -0.251 N 
ATOM     18  C   UNL     1     -10.648 -10.003  19.629  0.00  0.00    +0.405 C 
ATOM     40  H   UNL     1      -9.432  -9.733  18.007  0.00  0.00    +0.158 HD
BRANCH   9  20
ATOM     20  C   UNL     1     -11.124  -8.615  17.589  0.00  0.00    +0.037 A 
ATOM     23  C   UNL     1     -12.429  -8.974  17.256  0.00  0.00    +0.027 A 
ATOM     24  C   UNL     1     -10.593  -7.409  17.133  0.00  0.00    +0.027 A 
ATOM     27  C   UNL     1     -13.204  -8.125  16.465  0.00  0.00    +0.048 A 
ATOM     28  C   UNL     1     -11.368  -6.561  16.342  0.00  0.00    +0.048 A 
ATOM     30  C   UNL     1     -12.674  -6.919  16.008  0.00  0.00    +0.129 A 
BRANCH  30   6
ATOM      6  O   UNL     1     -13.431  -6.091  15.236  0.00  0.00    -0.456 OA
BRANCH   6  32
ATOM     32  C   UNL     1     -13.019  -5.872  13.933  0.00  0.00    +0.128 A 
ATOM     33  C   UNL     1     -12.684  -4.584  13.514  0.00  0.00    +0.046 A 
ATOM     34  C   UNL     1     -12.940  -6.939  13.038  0.00  0.00    +0.046 A 
ATOM     35  C   UNL     1     -12.269  -4.363  12.201  0.00  0.00    +0.004 A 
ATOM     36  C   UNL     1     -12.526  -6.718  11.724  0.00  0.00    +0.004 A 
ATOM     37  C   UNL     1     -12.190  -5.430  11.306  0.00  0.00    +0.000 A 
ENDBRANCH   6  32
ENDBRANCH  30   6
ENDBRANCH   9  20
ENDBRANCH   3  18
ENDBRANCH  14   3
TORSDOF 8
ENDMDL
MODEL 6
REMARK VINA RESULT:      -7.0     22.934     24.838
REMARK  Name = 11884036
REMARK  8 active torsions:
REMARK  status: ('A' for Active; 'I' for Inactive)
REMARK    1  A    between atoms: O_3  and  C_14
REMARK    2  A    between atoms: O_3  and  C_18
REMARK    3  A    between atoms: O_6  and  C_30
REMARK    4  A    between atoms: O_6  and  C_32
REMARK    5  A    between atoms: N_7  and  C_13
REMARK    6  A    between atoms: N_8  and  C_19
REMARK    7  A    between atoms: N_9  and  C_20
REMARK    8  A    between atoms: C_25  and  C_31
REMARK                            x       y       z     vdW  Elec       q    Type
REMARK                         _______ _______ _______ _____ _____    ______ ____
ROOT
ATOM      1  O   UNL     1      -7.519 -10.489   9.501  0.00  0.00    -0.368 OA
ATOM      2  O   UNL     1      -4.601 -10.506   8.559  0.00  0.00    -0.368 OA
ATOM     11  C   UNL     1      -5.231  -9.904   9.709  0.00  0.00    +0.173 C 
ATOM     12  C   UNL     1      -6.593  -9.416   9.260  0.00  0.00    +0.192 C 
ATOM     13  C   UNL     1      -5.547 -10.962  10.740  0.00  0.00    +0.131 C 
ATOM     14  C   UNL     1      -6.384  -9.179   7.783  0.00  0.00    +0.235 C 
ATOM     15  C   UNL     1      -6.854 -11.537  10.222  0.00  0.00    +0.185 C 
ATOM     16  C   UNL     1      -5.438 -10.299   7.411  0.00  0.00    +0.207 C 
ENDROOT
BRANCH  13   7
ATOM      4  O   UNL     1      -4.762 -12.125  13.238  0.00  0.00    -0.252 OA
ATOM      7  N   UNL     1      -5.712 -10.382  12.051  0.00  0.00    -0.292 N 
ATOM      8  N   UNL     1      -5.586 -10.222  14.339  0.00  0.00    -0.269 N 
ATOM     17  C   UNL     1      -5.299 -11.020  13.228  0.00  0.00    +0.304 C 
ATOM     38  H   UNL     1      -6.086  -9.441  12.120  0.00  0.00    +0.151 HD
ATOM     39  H   UNL     1      -6.037  -9.329  14.156  0.00  0.00    +0.156 HD
BRANCH   8  19
ATOM     19  C   UNL     1      -5.328 -10.505  15.702  0.00  0.00    +0.036 A 
ATOM     21  C   UNL     1      -6.380 -10.556  16.616  0.00  0.00    +0.042 A 
ATOM     22  C   UNL     1      -4.020 -10.735  16.129  0.00  0.00    +0.023 A 
ATOM     25  C   UNL     1      -6.125 -10.836  17.958  0.00  0.00    +0.054 A 
ATOM     26  C   UNL     1      -3.765 -11.015  17.472  0.00  0.00    +0.003 A 
ATOM     29  C   UNL     1      -4.817 -11.065  18.386  0.00  0.00    +0.019 A 
BRANCH  25  31
ATOM     10  N   UNL     1      -8.076 -10.927  19.657  0.00  0.00    -0.191 NA
ATOM     31  C   UNL     1      -7.202 -10.887  18.895  0.00  0.00    +0.099 C 
ENDBRANCH  25  31
ENDBRANCH   8  19
ENDBRANCH  13   7
BRANCH  14   3
ATOM      3  O   UNL     1      -7.576  -9.221   7.032  0.00  0.00    -0.442 OA
BRANCH   3  18
ATOM      5  O   UNL     1      -8.197  -7.351   5.872  0.00  0.00    -0.226 OA
ATOM      9  N   UNL     1      -8.996  -7.780   8.030  0.00  0.00    -0.251 N 
ATOM     18  C   UNL     1      -8.264  -8.034   6.886  0.00  0.00    +0.405 C 
ATOM     40  H   UNL     1      -8.923  -8.472   8.773  0.00  0.00    +0.158 HD
BRANCH   9  20
ATOM     20  C   UNL     1      -9.837  -6.676   8.299  0.00  0.00    +0.037 A 
ATOM     23  C   UNL     1      -9.281  -5.426   8.570  0.00  0.00    +0.027 A 
ATOM     24  C   UNL     1     -11.222  -6.838   8.290  0.00  0.00    +0.027 A 
ATOM     27  C   UNL     1     -10.112  -4.337   8.834  0.00  0.00    +0.048 A 
ATOM     28  C   UNL     1     -12.053  -5.748   8.554  0.00  0.00    +0.048 A 
ATOM     30  C   UNL     1     -11.497  -4.497   8.826  0.00  0.00    +0.129 A 
BRANCH  30   6
ATOM      6  O   UNL     1     -12.308  -3.434   9.084  0.00  0.00    -0.456 OA
BRANCH   6  32
ATOM     32  C   UNL     1     -13.012  -3.436  10.276  0.00  0.00    +0.128 A 
ATOM     33  C   UNL     1     -12.345  -3.659  11.480  0.00  0.00    +0.046 A 
ATOM     34  C   UNL     1     -14.389  -3.216  10.272  0.00  0.00    +0.046 A 
ATOM     35  C   UNL     1     -13.054  -3.661  12.681  0.00  0.00    +0.004 A 
ATOM     36  C   UNL     1     -15.099  -3.219  11.473  0.00  0.00    +0.004 A 
ATOM     37  C   UNL     1     -14.431  -3.441  12.678  0.00  0.00    +0.000 A 
ENDBRANCH   6  32
ENDBRANCH  30   6
ENDBRANCH   9  20
ENDBRANCH   3  18
ENDBRANCH  14   3
TORSDOF 8
ENDMDL
MODEL 7
REMARK VINA RESULT:      -7.0      3.057     10.453
REMARK  Name = 11884036
REMARK  8 active torsions:
REMARK  status: ('A' for Active; 'I' for Inactive)
REMARK    1  A    between atoms: O_3  and  C_14
REMARK    2  A    between atoms: O_3  and  C_18
REMARK    3  A    between atoms: O_6  and  C_30
REMARK    4  A    between atoms: O_6  and  C_32
REMARK    5  A    between atoms: N_7  and  C_13
REMARK    6  A    between atoms: N_8  and  C_19
REMARK    7  A    between atoms: N_9  and  C_20
REMARK    8  A    between atoms: C_25  and  C_31
REMARK                            x       y       z     vdW  Elec       q    Type
REMARK                         _______ _______ _______ _____ _____    ______ ____
ROOT
ATOM      1  O   UNL     1      10.191   5.470  -3.655  0.00  0.00    -0.368 OA
ATOM      2  O   UNL     1       9.953   4.438  -6.533  0.00  0.00    -0.368 OA
ATOM     11  C   UNL     1       9.003   4.472  -5.448  0.00  0.00    +0.173 C 
ATOM     12  C   UNL     1       9.777   4.195  -4.175  0.00  0.00    +0.192 C 
ATOM     13  C   UNL     1       8.483   5.878  -5.258  0.00  0.00    +0.131 C 
ATOM     14  C   UNL     1      10.951   3.389  -4.677  0.00  0.00    +0.235 C 
ATOM     15  C   UNL     1       9.582   6.517  -4.425  0.00  0.00    +0.185 C 
ATOM     16  C   UNL     1      11.229   4.029  -6.018  0.00  0.00    +0.207 C 
ENDROOT
BRANCH  13   7
ATOM      4  O   UNL     1       5.868   5.831  -6.428  0.00  0.00    -0.252 OA
ATOM      7  N   UNL     1       7.223   5.880  -4.554  0.00  0.00    -0.292 N 
ATOM      8  N   UNL     1       4.944   5.864  -4.270  0.00  0.00    -0.269 N 
ATOM     17  C   UNL     1       5.983   5.856  -5.204  0.00  0.00    +0.304 C 
ATOM     38  H   UNL     1       7.236   5.832  -3.540  0.00  0.00    +0.151 HD
ATOM     39  H   UNL     1       5.212   5.887  -3.289  0.00  0.00    +0.156 HD
BRANCH   8  19
ATOM     19  C   UNL     1       3.551   5.846  -4.519  0.00  0.00    +0.036 A 
ATOM     21  C   UNL     1       2.815   4.684  -4.287  0.00  0.00    +0.042 A 
ATOM     22  C   UNL     1       2.915   6.991  -4.998  0.00  0.00    +0.023 A 
ATOM     25  C   UNL     1       1.443   4.668  -4.532  0.00  0.00    +0.054 A 
ATOM     26  C   UNL     1       1.541   6.974  -5.243  0.00  0.00    +0.003 A 
ATOM     29  C   UNL     1       0.806   5.812  -5.011  0.00  0.00    +0.019 A 
BRANCH  25  31
ATOM     10  N   UNL     1       0.075   2.511  -4.102  0.00  0.00    -0.191 NA
ATOM     31  C   UNL     1       0.688   3.478  -4.295  0.00  0.00    +0.099 C 
ENDBRANCH  25  31
ENDBRANCH   8  19
ENDBRANCH  13   7
BRANCH  14   3
ATOM      3  O   UNL     1      12.072   3.435  -3.823  0.00  0.00    -0.442 OA
BRANCH   3  18
ATOM      5  O   UNL     1      11.885   1.779  -2.259  0.00  0.00    -0.226 OA
ATOM      9  N   UNL     1      11.747   4.041  -1.676  0.00  0.00    -0.251 N 
ATOM     18  C   UNL     1      11.896   2.971  -2.536  0.00  0.00    +0.405 C 
ATOM     40  H   UNL     1      11.786   4.967  -2.097  0.00  0.00    +0.158 HD
BRANCH   9  20
ATOM     20  C   UNL     1      11.545   4.012  -0.276  0.00  0.00    +0.037 A 
ATOM     23  C   UNL     1      12.573   3.592   0.567  0.00  0.00    +0.027 A 
ATOM     24  C   UNL     1      10.319   4.403   0.259  0.00  0.00    +0.027 A 
ATOM     27  C   UNL     1      12.374   3.564   1.948  0.00  0.00    +0.048 A 
ATOM     28  C   UNL     1      10.120   4.376   1.640  0.00  0.00    +0.048 A 
ATOM     30  C   UNL     1      11.148   3.956   2.484  0.00  0.00    +0.129 A 
BRANCH  30   6
ATOM      6  O   UNL     1      10.954   3.928   3.831  0.00  0.00    -0.456 OA
BRANCH   6  32
ATOM     32  C   UNL     1      10.519   5.092   4.442  0.00  0.00    +0.128 A 
ATOM     33  C   UNL     1       9.316   5.102   5.149  0.00  0.00    +0.046 A 
ATOM     34  C   UNL     1      11.283   6.256   4.350  0.00  0.00    +0.046 A 
ATOM     35  C   UNL     1       8.877   6.274   5.764  0.00  0.00    +0.004 A 
ATOM     36  C   UNL     1      10.844   7.428   4.964  0.00  0.00    +0.004 A 
ATOM     37  C   UNL     1       9.641   7.438   5.672  0.00  0.00    +0.000 A 
ENDBRANCH   6  32
ENDBRANCH  30   6
ENDBRANCH   9  20
ENDBRANCH   3  18
ENDBRANCH  14   3
TORSDOF 8
ENDMDL
MODEL 8
REMARK VINA RESULT:      -7.0     24.026     27.105
REMARK  Name = 11884036
REMARK  8 active torsions:
REMARK  status: ('A' for Active; 'I' for Inactive)
REMARK    1  A    between atoms: O_3  and  C_14
REMARK    2  A    between atoms: O_3  and  C_18
REMARK    3  A    between atoms: O_6  and  C_30
REMARK    4  A    between atoms: O_6  and  C_32
REMARK    5  A    between atoms: N_7  and  C_13
REMARK    6  A    between atoms: N_8  and  C_19
REMARK    7  A    between atoms: N_9  and  C_20
REMARK    8  A    between atoms: C_25  and  C_31
REMARK                            x       y       z     vdW  Elec       q    Type
REMARK                         _______ _______ _______ _____ _____    ______ ____
ROOT
ATOM      1  O   UNL     1      -6.616 -11.220  16.806  0.00  0.00    -0.368 OA
ATOM      2  O   UNL     1      -6.467 -11.185  19.868  0.00  0.00    -0.368 OA
ATOM     11  C   UNL     1      -6.801 -10.155  18.916  0.00  0.00    +0.173 C 
ATOM     12  C   UNL     1      -5.904 -10.361  17.712  0.00  0.00    +0.192 C 
ATOM     13  C   UNL     1      -8.193 -10.379  18.373  0.00  0.00    +0.131 C 
ATOM     14  C   UNL     1      -4.705 -11.054  18.314  0.00  0.00    +0.235 C 
ATOM     15  C   UNL     1      -7.952 -11.418  17.291  0.00  0.00    +0.185 C 
ATOM     16  C   UNL     1      -5.339 -11.923  19.377  0.00  0.00    +0.207 C 
ENDROOT
BRANCH  13   7
ATOM      4  O   UNL     1     -10.789 -10.050  17.208  0.00  0.00    -0.252 OA
ATOM      7  N   UNL     1      -8.743  -9.165  17.822  0.00  0.00    -0.292 N 
ATOM      8  N   UNL     1     -10.285  -7.790  16.818  0.00  0.00    -0.269 N 
ATOM     17  C   UNL     1     -10.027  -9.087  17.268  0.00  0.00    +0.304 C 
ATOM     38  H   UNL     1      -8.199  -8.311  17.897  0.00  0.00    +0.151 HD
ATOM     39  H   UNL     1      -9.542  -7.107  16.943  0.00  0.00    +0.156 HD
BRANCH   8  19
ATOM     19  C   UNL     1     -11.461  -7.303  16.200  0.00  0.00    +0.036 A 
ATOM     21  C   UNL     1     -11.385  -6.264  15.273  0.00  0.00    +0.042 A 
ATOM     22  C   UNL     1     -12.698  -7.864  16.519  0.00  0.00    +0.023 A 
ATOM     25  C   UNL     1     -12.544  -5.785  14.665  0.00  0.00    +0.054 A 
ATOM     26  C   UNL     1     -13.858  -7.384  15.910  0.00  0.00    +0.003 A 
ATOM     29  C   UNL     1     -13.781  -6.345  14.984  0.00  0.00    +0.019 A 
BRANCH  25  31
ATOM     10  N   UNL     1     -12.404  -3.854  12.946  0.00  0.00    -0.191 NA
ATOM     31  C   UNL     1     -12.467  -4.720  13.716  0.00  0.00    +0.099 C 
ENDBRANCH  25  31
ENDBRANCH   8  19
ENDBRANCH  13   7
BRANCH  14   3
ATOM      3  O   UNL     1      -3.965 -11.810  17.382  0.00  0.00    -0.442 OA
BRANCH   3  18
ATOM      5  O   UNL     1      -2.560 -10.318  16.371  0.00  0.00    -0.226 OA
ATOM      9  N   UNL     1      -4.141 -11.537  15.151  0.00  0.00    -0.251 N 
ATOM     18  C   UNL     1      -3.466 -11.136  16.287  0.00  0.00    +0.405 C 
ATOM     40  H   UNL     1      -4.870 -12.236  15.283  0.00  0.00    +0.158 HD
BRANCH   9  20
ATOM     20  C   UNL     1      -3.946 -11.098  13.821  0.00  0.00    +0.037 A 
ATOM     23  C   UNL     1      -4.964 -10.414  13.156  0.00  0.00    +0.027 A 
ATOM     24  C   UNL     1      -2.736 -11.348  13.176  0.00  0.00    +0.027 A 
ATOM     27  C   UNL     1      -4.770  -9.980  11.844  0.00  0.00    +0.048 A 
ATOM     28  C   UNL     1      -2.542 -10.914  11.864  0.00  0.00    +0.048 A 
ATOM     30  C   UNL     1      -3.560 -10.230  11.198  0.00  0.00    +0.129 A 
BRANCH  30   6
ATOM      6  O   UNL     1      -3.371  -9.807   9.918  0.00  0.00    -0.456 OA
BRANCH   6  32
ATOM     32  C   UNL     1      -4.226 -10.296   8.946  0.00  0.00    +0.128 A 
ATOM     33  C   UNL     1      -5.022  -9.418   8.209  0.00  0.00    +0.046 A 
ATOM     34  C   UNL     1      -4.294 -11.668   8.704  0.00  0.00    +0.046 A 
ATOM     35  C   UNL     1      -5.884  -9.911   7.230  0.00  0.00    +0.004 A 
ATOM     36  C   UNL     1      -5.156 -12.162   7.725  0.00  0.00    +0.004 A 
ATOM     37  C   UNL     1      -5.951 -11.283   6.988  0.00  0.00    +0.000 A 
ENDBRANCH   6  32
ENDBRANCH  30   6
ENDBRANCH   9  20
ENDBRANCH   3  18
ENDBRANCH  14   3
TORSDOF 8
ENDMDL
MODEL 9
REMARK VINA RESULT:      -6.9     20.586     27.530
REMARK  Name = 11884036
REMARK  8 active torsions:
REMARK  status: ('A' for Active; 'I' for Inactive)
REMARK    1  A    between atoms: O_3  and  C_14
REMARK    2  A    between atoms: O_3  and  C_18
REMARK    3  A    between atoms: O_6  and  C_30
REMARK    4  A    between atoms: O_6  and  C_32
REMARK    5  A    between atoms: N_7  and  C_13
REMARK    6  A    between atoms: N_8  and  C_19
REMARK    7  A    between atoms: N_9  and  C_20
REMARK    8  A    between atoms: C_25  and  C_31
REMARK                            x       y       z     vdW  Elec       q    Type
REMARK                         _______ _______ _______ _____ _____    ______ ____
ROOT
ATOM      1  O   UNL     1      21.202   5.651  23.288  0.00  0.00    -0.368 OA
ATOM      2  O   UNL     1      22.094   6.571  20.502  0.00  0.00    -0.368 OA
ATOM     11  C   UNL     1      20.857   5.991  20.966  0.00  0.00    +0.173 C 
ATOM     12  C   UNL     1      21.221   4.967  22.022  0.00  0.00    +0.192 C 
ATOM     13  C   UNL     1      20.052   7.022  21.722  0.00  0.00    +0.131 C 
ATOM     14  C   UNL     1      22.622   4.570  21.623  0.00  0.00    +0.235 C 
ATOM     15  C   UNL     1      20.688   6.978  23.102  0.00  0.00    +0.185 C 
ATOM     16  C   UNL     1      23.190   5.874  21.112  0.00  0.00    +0.207 C 
ENDROOT
BRANCH  13   7
ATOM      4  O   UNL     1      17.831   8.647  20.926  0.00  0.00    -0.252 OA
ATOM      7  N   UNL     1      18.657   6.661  21.776  0.00  0.00    -0.292 N 
ATOM      8  N   UNL     1      16.385   6.899  21.532  0.00  0.00    -0.269 N 
ATOM     17  C   UNL     1      17.627   7.517  21.366  0.00  0.00    +0.304 C 
ATOM     38  H   UNL     1      18.412   5.719  22.065  0.00  0.00    +0.151 HD
ATOM     39  H   UNL     1      16.392   5.956  21.912  0.00  0.00    +0.156 HD
BRANCH   8  19
ATOM     19  C   UNL     1      15.106   7.427  21.236  0.00  0.00    +0.036 A 
ATOM     21  C   UNL     1      14.513   7.170  20.000  0.00  0.00    +0.042 A 
ATOM     22  C   UNL     1      14.438   8.205  22.182  0.00  0.00    +0.023 A 
ATOM     25  C   UNL     1      13.252   7.689  19.710  0.00  0.00    +0.054 A 
ATOM     26  C   UNL     1      13.176   8.724  21.891  0.00  0.00    +0.003 A 
ATOM     29  C   UNL     1      12.584   8.467  20.655  0.00  0.00    +0.019 A 
BRANCH  25  31
ATOM     10  N   UNL     1      12.150   7.213  17.416  0.00  0.00    -0.191 NA
ATOM     31  C   UNL     1      12.644   7.427  18.444  0.00  0.00    +0.099 C 
ENDBRANCH  25  31
ENDBRANCH   8  19
ENDBRANCH  13   7
BRANCH  14   3
ATOM      3  O   UNL     1      23.381   4.040  22.686  0.00  0.00    -0.442 OA
BRANCH   3  18
ATOM      5  O   UNL     1      23.561   1.897  21.910  0.00  0.00    -0.226 OA
ATOM      9  N   UNL     1      23.110   2.356  24.161  0.00  0.00    -0.251 N 
ATOM     18  C   UNL     1      23.367   2.669  22.840  0.00  0.00    +0.405 C 
ATOM     40  H   UNL     1      22.975   3.143  24.792  0.00  0.00    +0.158 HD
BRANCH   9  20
ATOM     20  C   UNL     1      23.009   1.073  24.748  0.00  0.00    +0.037 A 
ATOM     23  C   UNL     1      24.148   0.280  24.889  0.00  0.00    +0.027 A 
ATOM     24  C   UNL     1      21.772   0.603  25.186  0.00  0.00    +0.027 A 
ATOM     27  C   UNL     1      24.048  -0.984  25.470  0.00  0.00    +0.048 A 
ATOM     28  C   UNL     1      21.672  -0.662  25.766  0.00  0.00    +0.048 A 
ATOM     30  C   UNL     1      22.811  -1.456  25.908  0.00  0.00    +0.129 A 
BRANCH  30   6
ATOM      6  O   UNL     1      22.714  -2.690  26.474  0.00  0.00    -0.456 OA
BRANCH   6  32
ATOM     32  C   UNL     1      22.569  -3.776  25.628  0.00  0.00    +0.128 A 
ATOM     33  C   UNL     1      21.311  -4.105  25.124  0.00  0.00    +0.046 A 
ATOM     34  C   UNL     1      23.682  -4.543  25.281  0.00  0.00    +0.046 A 
ATOM     35  C   UNL     1      21.165  -5.200  24.272  0.00  0.00    +0.004 A 
ATOM     36  C   UNL     1      23.536  -5.638  24.430  0.00  0.00    +0.004 A 
ATOM     37  C   UNL     1      22.277  -5.966  23.925  0.00  0.00    +0.000 A 
ENDBRANCH   6  32
ENDBRANCH  30   6
ENDBRANCH   9  20
ENDBRANCH   3  18
ENDBRANCH  14   3
TORSDOF 8
ENDMDL
MODEL 10
REMARK VINA RESULT:      -6.8     23.849     26.824
REMARK  Name = 11884036
REMARK  8 active torsions:
REMARK  status: ('A' for Active; 'I' for Inactive)
REMARK    1  A    between atoms: O_3  and  C_14
REMARK    2  A    between atoms: O_3  and  C_18
REMARK    3  A    between atoms: O_6  and  C_30
REMARK    4  A    between atoms: O_6  and  C_32
REMARK    5  A    between atoms: N_7  and  C_13
REMARK    6  A    between atoms: N_8  and  C_19
REMARK    7  A    between atoms: N_9  and  C_20
REMARK    8  A    between atoms: C_25  and  C_31
REMARK                            x       y       z     vdW  Elec       q    Type
REMARK                         _______ _______ _______ _____ _____    ______ ____
ROOT
ATOM      1  O   UNL     1      -6.215 -11.234  16.619  0.00  0.00    -0.368 OA
ATOM      2  O   UNL     1      -5.457 -11.515  19.577  0.00  0.00    -0.368 OA
ATOM     11  C   UNL     1      -5.960 -10.394  18.821  0.00  0.00    +0.173 C 
ATOM     12  C   UNL     1      -5.325 -10.467  17.448  0.00  0.00    +0.192 C 
ATOM     13  C   UNL     1      -7.435 -10.572  18.548  0.00  0.00    +0.131 C 
ATOM     14  C   UNL     1      -4.039 -11.210  17.723  0.00  0.00    +0.235 C 
ATOM     15  C   UNL     1      -7.430 -11.491  17.338  0.00  0.00    +0.185 C 
ATOM     16  C   UNL     1      -4.459 -12.189  18.796  0.00  0.00    +0.207 C 
ENDROOT
BRANCH  13   7
ATOM      4  O   UNL     1      -9.782 -10.172  16.954  0.00  0.00    -0.252 OA
ATOM      7  N   UNL     1      -8.068  -9.312  18.247  0.00  0.00    -0.292 N 
ATOM      8  N   UNL     1      -9.603  -7.863  17.338  0.00  0.00    -0.269 N 
ATOM     17  C   UNL     1      -9.219  -9.202  17.455  0.00  0.00    +0.304 C 
ATOM     38  H   UNL     1      -7.701  -8.470  18.680  0.00  0.00    +0.151 HD
ATOM     39  H   UNL     1      -9.023  -7.178  17.817  0.00  0.00    +0.156 HD
BRANCH   8  19
ATOM     19  C   UNL     1     -10.706  -7.335  16.627  0.00  0.00    +0.036 A 
ATOM     21  C   UNL     1     -11.988  -7.837  16.853  0.00  0.00    +0.042 A 
ATOM     22  C   UNL     1     -10.512  -6.311  15.699  0.00  0.00    +0.023 A 
ATOM     25  C   UNL     1     -13.074  -7.316  16.153  0.00  0.00    +0.054 A 
ATOM     26  C   UNL     1     -11.600  -5.790  14.999  0.00  0.00    +0.003 A 
ATOM     29  C   UNL     1     -12.881  -6.292  15.225  0.00  0.00    +0.019 A 
BRANCH  25  31
ATOM     10  N   UNL     1     -15.454  -8.246  16.570  0.00  0.00    -0.191 NA
ATOM     31  C   UNL     1     -14.388  -7.830  16.384  0.00  0.00    +0.099 C 
ENDBRANCH  25  31
ENDBRANCH   8  19
ENDBRANCH  13   7
BRANCH  14   3
ATOM      3  O   UNL     1      -3.510 -11.860  16.589  0.00  0.00    -0.442 OA
BRANCH   3  18
ATOM      5  O   UNL     1      -2.273 -10.246  15.544  0.00  0.00    -0.226 OA
ATOM      9  N   UNL     1      -4.023 -11.353  14.453  0.00  0.00    -0.251 N 
ATOM     18  C   UNL     1      -3.183 -11.065  15.510  0.00  0.00    +0.405 C 
ATOM     40  H   UNL     1      -4.724 -12.072  14.617  0.00  0.00    +0.158 HD
BRANCH   9  20
ATOM     20  C   UNL     1      -4.032 -10.771  13.164  0.00  0.00    +0.037 A 
ATOM     23  C   UNL     1      -5.178 -10.130  12.696  0.00  0.00    +0.027 A 
ATOM     24  C   UNL     1      -2.893 -10.839  12.362  0.00  0.00    +0.027 A 
ATOM     27  C   UNL     1      -5.185  -9.555  11.425  0.00  0.00    +0.048 A 
ATOM     28  C   UNL     1      -2.900 -10.264  11.091  0.00  0.00    +0.048 A 
ATOM     30  C   UNL     1      -4.047  -9.622  10.622  0.00  0.00    +0.129 A 
BRANCH  30   6
ATOM      6  O   UNL     1      -4.055  -9.061   9.382  0.00  0.00    -0.456 OA
BRANCH   6  32
ATOM     32  C   UNL     1      -4.934  -9.580   8.446  0.00  0.00    +0.128 A 
ATOM     33  C   UNL     1      -6.160  -8.955   8.219  0.00  0.00    +0.046 A 
ATOM     34  C   UNL     1      -4.594 -10.729   7.733  0.00  0.00    +0.046 A 
ATOM     35  C   UNL     1      -7.046  -9.478   7.277  0.00  0.00    +0.004 A 
ATOM     36  C   UNL     1      -5.480 -11.253   6.791  0.00  0.00    +0.004 A 
ATOM     37  C   UNL     1      -6.706 -10.627   6.563  0.00  0.00    +0.000 A 
ENDBRANCH   6  32
ENDBRANCH  30   6
ENDBRANCH   9  20
ENDBRANCH   3  18
ENDBRANCH  14   3
TORSDOF 8
ENDMDL
