MODEL 1
REMARK VINA RESULT:      -6.8      0.000      0.000
REMARK  Name = 45783696
REMARK  8 active torsions:
REMARK  status: ('A' for Active; 'I' for Inactive)
REMARK    1  A    between atoms: O_2  and  C_15
REMARK    2  A    between atoms: O_2  and  C_24
REMARK    3  A    between atoms: O_3  and  C_26
REMARK    4  A    between atoms: O_3  and  C_27
REMARK    5  A    between atoms: N_4  and  C_12
REMARK    6  A    between atoms: C_8  and  C_13
REMARK    7  A    between atoms: C_12  and  C_14
REMARK    8  A    between atoms: C_17  and  C_20
REMARK                            x       y       z     vdW  Elec       q    Type
REMARK                         _______ _______ _______ _____ _____    ______ ____
ROOT
ATOM      4  N   UNL     1      11.638   8.973  21.672  0.00  0.00    -0.287 NA
ATOM      8  C   UNL     1      12.373   7.855  21.047  0.00  0.00    +0.146 C 
ATOM      9  C   UNL     1      11.451   6.634  21.224  0.00  0.00    +0.030 C 
ATOM     10  C   UNL     1      10.255   7.150  22.012  0.00  0.00    +0.017 C 
ATOM     11  C   UNL     1      10.791   8.384  22.709  0.00  0.00    +0.085 C 
ENDROOT
BRANCH   8  13
ATOM      1  O   UNL     1      12.117   7.322  18.676  0.00  0.00    -0.336 OA
ATOM      5  N   UNL     1      13.520   9.019  19.085  0.00  0.00    -0.190 NA
ATOM      6  N   UNL     1      12.584   7.751  17.426  0.00  0.00    -0.056 NA
ATOM     13  C   UNL     1      12.716   8.121  19.596  0.00  0.00    +0.245 A 
ATOM     17  C   UNL     1      13.406   8.753  17.751  0.00  0.00    +0.204 A 
BRANCH  17  20
ATOM      7  N   UNL     1      15.048   9.651  14.537  0.00  0.00    -0.221 NA
ATOM     20  C   UNL     1      14.126   9.510  16.768  0.00  0.00    +0.041 A 
ATOM     22  C   UNL     1      14.596  10.788  17.051  0.00  0.00    +0.018 A 
ATOM     23  C   UNL     1      14.375   8.992  15.508  0.00  0.00    +0.126 A 
ATOM     25  C   UNL     1      15.292  11.497  16.079  0.00  0.00    +0.068 A 
ATOM     26  C   UNL     1      15.490  10.890  14.849  0.00  0.00    +0.214 A 
BRANCH  26   3
ATOM      3  O   UNL     1      16.173  11.569  13.875  0.00  0.00    -0.480 OA
ATOM     27  C   UNL     1      15.464  11.850  12.673  0.00  0.00    +0.279 C 
ENDBRANCH  26   3
ENDBRANCH  17  20
ENDBRANCH   8  13
BRANCH   4  12
ATOM     12  C   UNL     1      12.514  10.010  22.202  0.00  0.00    +0.124 C 
BRANCH  12  14
ATOM     14  C   UNL     1      12.021  11.390  21.857  0.00  0.00    +0.008 A 
ATOM     15  C   UNL     1      11.155  12.072  22.712  0.00  0.00    +0.124 A 
ATOM     16  C   UNL     1      12.441  11.987  20.669  0.00  0.00    +0.008 A 
ATOM     18  C   UNL     1      10.708  13.350  22.377  0.00  0.00    +0.046 A 
ATOM     19  C   UNL     1      11.994  13.265  20.334  0.00  0.00    +0.001 A 
ATOM     21  C   UNL     1      11.128  13.946  21.188  0.00  0.00    +0.004 A 
BRANCH  15   2
ATOM      2  O   UNL     1      10.735  11.504  23.877  0.00  0.00    -0.495 OA
ATOM     24  C   UNL     1      10.864  12.287  25.062  0.00  0.00    +0.277 C 
ENDBRANCH  15   2
ENDBRANCH  12  14
ENDBRANCH   4  12
TORSDOF 6
ENDMDL
MODEL 2
REMARK VINA RESULT:      -6.6     25.634     28.956
REMARK  Name = 45783696
REMARK  8 active torsions:
REMARK  status: ('A' for Active; 'I' for Inactive)
REMARK    1  A    between atoms: O_2  and  C_15
REMARK    2  A    between atoms: O_2  and  C_24
REMARK    3  A    between atoms: O_3  and  C_26
REMARK    4  A    between atoms: O_3  and  C_27
REMARK    5  A    between atoms: N_4  and  C_12
REMARK    6  A    between atoms: C_8  and  C_13
REMARK    7  A    between atoms: C_12  and  C_14
REMARK    8  A    between atoms: C_17  and  C_20
REMARK                            x       y       z     vdW  Elec       q    Type
REMARK                         _______ _______ _______ _____ _____    ______ ____
ROOT
ATOM      4  N   UNL     1      -2.716 -10.657  13.884  0.00  0.00    -0.287 NA
ATOM      8  C   UNL     1      -2.555 -11.649  14.965  0.00  0.00    +0.146 C 
ATOM      9  C   UNL     1      -1.518 -11.025  15.918  0.00  0.00    +0.030 C 
ATOM     10  C   UNL     1      -1.111  -9.715  15.258  0.00  0.00    +0.017 C 
ATOM     11  C   UNL     1      -1.450  -9.930  13.797  0.00  0.00    +0.085 C 
ENDROOT
BRANCH   8  13
ATOM      1  O   UNL     1      -4.421 -13.177  15.361  0.00  0.00    -0.336 OA
ATOM      5  N   UNL     1      -4.550 -11.259  16.511  0.00  0.00    -0.190 NA
ATOM      6  N   UNL     1      -5.604 -13.250  16.109  0.00  0.00    -0.056 NA
ATOM     13  C   UNL     1      -3.863 -11.975  15.657  0.00  0.00    +0.245 A 
ATOM     17  C   UNL     1      -5.610 -12.083  16.759  0.00  0.00    +0.204 A 
BRANCH  17  20
ATOM      7  N   UNL     1      -7.622 -11.854  19.879  0.00  0.00    -0.221 NA
ATOM     20  C   UNL     1      -6.657 -11.711  17.667  0.00  0.00    +0.041 A 
ATOM     22  C   UNL     1      -7.697 -10.882  17.258  0.00  0.00    +0.018 A 
ATOM     23  C   UNL     1      -6.666 -12.166  18.974  0.00  0.00    +0.126 A 
ATOM     25  C   UNL     1      -8.698 -10.539  18.159  0.00  0.00    +0.068 A 
ATOM     26  C   UNL     1      -8.616 -11.047  19.446  0.00  0.00    +0.214 A 
BRANCH  26   3
ATOM      3  O   UNL     1      -9.592 -10.723  20.352  0.00  0.00    -0.480 OA
ATOM     27  C   UNL     1     -10.827 -10.254  19.822  0.00  0.00    +0.279 C 
ENDBRANCH  26   3
ENDBRANCH  17  20
ENDBRANCH   8  13
BRANCH   4  12
ATOM     12  C   UNL     1      -3.096 -11.253  12.609  0.00  0.00    +0.124 C 
BRANCH  12  14
ATOM     14  C   UNL     1      -3.789 -10.263  11.711  0.00  0.00    +0.008 A 
ATOM     15  C   UNL     1      -5.037  -9.743  12.054  0.00  0.00    +0.124 A 
ATOM     16  C   UNL     1      -3.169  -9.866  10.527  0.00  0.00    +0.008 A 
ATOM     18  C   UNL     1      -5.666  -8.826  11.211  0.00  0.00    +0.046 A 
ATOM     19  C   UNL     1      -3.797  -8.950   9.684  0.00  0.00    +0.001 A 
ATOM     21  C   UNL     1      -5.045  -8.430  10.026  0.00  0.00    +0.004 A 
BRANCH  15   2
ATOM      2  O   UNL     1      -5.657 -10.119  13.207  0.00  0.00    -0.495 OA
ATOM     24  C   UNL     1      -6.707 -11.079  13.094  0.00  0.00    +0.277 C 
ENDBRANCH  15   2
ENDBRANCH  12  14
ENDBRANCH   4  12
TORSDOF 6
ENDMDL
MODEL 3
REMARK VINA RESULT:      -6.6     25.631     28.665
REMARK  Name = 45783696
REMARK  8 active torsions:
REMARK  status: ('A' for Active; 'I' for Inactive)
REMARK    1  A    between atoms: O_2  and  C_15
REMARK    2  A    between atoms: O_2  and  C_24
REMARK    3  A    between atoms: O_3  and  C_26
REMARK    4  A    between atoms: O_3  and  C_27
REMARK    5  A    between atoms: N_4  and  C_12
REMARK    6  A    between atoms: C_8  and  C_13
REMARK    7  A    between atoms: C_12  and  C_14
REMARK    8  A    between atoms: C_17  and  C_20
REMARK                            x       y       z     vdW  Elec       q    Type
REMARK                         _______ _______ _______ _____ _____    ______ ____
ROOT
ATOM      4  N   UNL     1      -3.128 -10.500  14.381  0.00  0.00    -0.287 NA
ATOM      8  C   UNL     1      -3.061 -11.252  15.649  0.00  0.00    +0.146 C 
ATOM      9  C   UNL     1      -1.732 -10.816  16.293  0.00  0.00    +0.030 C 
ATOM     10  C   UNL     1      -1.095  -9.868  15.287  0.00  0.00    +0.017 C 
ATOM     11  C   UNL     1      -1.745 -10.253  13.973  0.00  0.00    +0.085 C 
ENDROOT
BRANCH   8  13
ATOM      1  O   UNL     1      -4.080 -11.227  17.870  0.00  0.00    -0.336 OA
ATOM      5  N   UNL     1      -5.455 -10.575  16.227  0.00  0.00    -0.190 NA
ATOM      6  N   UNL     1      -5.303 -10.923  18.484  0.00  0.00    -0.056 NA
ATOM     13  C   UNL     1      -4.256 -10.994  16.544  0.00  0.00    +0.245 A 
ATOM     17  C   UNL     1      -6.061 -10.548  17.450  0.00  0.00    +0.204 A 
BRANCH  17  20
ATOM      7  N   UNL     1      -9.559 -10.422  18.709  0.00  0.00    -0.221 NA
ATOM     20  C   UNL     1      -7.427 -10.136  17.604  0.00  0.00    +0.041 A 
ATOM     22  C   UNL     1      -7.954  -9.100  16.839  0.00  0.00    +0.018 A 
ATOM     23  C   UNL     1      -8.263 -10.759  18.516  0.00  0.00    +0.126 A 
ATOM     25  C   UNL     1      -9.281  -8.725  17.010  0.00  0.00    +0.068 A 
ATOM     26  C   UNL     1     -10.035  -9.411  17.949  0.00  0.00    +0.214 A 
BRANCH  26   3
ATOM      3  O   UNL     1     -11.346  -9.059  18.134  0.00  0.00    -0.480 OA
ATOM     27  C   UNL     1     -12.042  -8.561  16.997  0.00  0.00    +0.279 C 
ENDBRANCH  26   3
ENDBRANCH  17  20
ENDBRANCH   8  13
BRANCH   4  12
ATOM     12  C   UNL     1      -3.891 -11.187  13.346  0.00  0.00    +0.124 C 
BRANCH  12  14
ATOM     14  C   UNL     1      -4.141 -10.302  12.154  0.00  0.00    +0.008 A 
ATOM     15  C   UNL     1      -5.260  -9.471  12.106  0.00  0.00    +0.124 A 
ATOM     16  C   UNL     1      -3.239 -10.318  11.091  0.00  0.00    +0.008 A 
ATOM     18  C   UNL     1      -5.478  -8.657  10.994  0.00  0.00    +0.046 A 
ATOM     19  C   UNL     1      -3.456  -9.505   9.979  0.00  0.00    +0.001 A 
ATOM     21  C   UNL     1      -4.576  -8.675   9.931  0.00  0.00    +0.004 A 
BRANCH  15   2
ATOM      2  O   UNL     1      -6.152  -9.442  13.136  0.00  0.00    -0.495 OA
ATOM     24  C   UNL     1      -7.522  -9.680  12.814  0.00  0.00    +0.277 C 
ENDBRANCH  15   2
ENDBRANCH  12  14
ENDBRANCH   4  12
TORSDOF 6
ENDMDL
MODEL 4
REMARK VINA RESULT:      -6.4     27.002     30.305
REMARK  Name = 45783696
REMARK  8 active torsions:
REMARK  status: ('A' for Active; 'I' for Inactive)
REMARK    1  A    between atoms: O_2  and  C_15
REMARK    2  A    between atoms: O_2  and  C_24
REMARK    3  A    between atoms: O_3  and  C_26
REMARK    4  A    between atoms: O_3  and  C_27
REMARK    5  A    between atoms: N_4  and  C_12
REMARK    6  A    between atoms: C_8  and  C_13
REMARK    7  A    between atoms: C_12  and  C_14
REMARK    8  A    between atoms: C_17  and  C_20
REMARK                            x       y       z     vdW  Elec       q    Type
REMARK                         _______ _______ _______ _____ _____    ______ ____
ROOT
ATOM      4  N   UNL     1     -16.530   5.304  20.736  0.00  0.00    -0.287 NA
ATOM      8  C   UNL     1     -17.743   4.703  21.322  0.00  0.00    +0.146 C 
ATOM      9  C   UNL     1     -18.487   4.078  20.127  0.00  0.00    +0.030 C 
ATOM     10  C   UNL     1     -17.648   4.433  18.908  0.00  0.00    +0.017 C 
ATOM     11  C   UNL     1     -16.865   5.651  19.354  0.00  0.00    +0.085 C 
ENDROOT
BRANCH   8  13
ATOM      1  O   UNL     1     -17.337   2.395  22.016  0.00  0.00    -0.336 OA
ATOM      5  N   UNL     1     -17.230   3.884  23.686  0.00  0.00    -0.190 NA
ATOM      6  N   UNL     1     -17.045   1.662  23.174  0.00  0.00    -0.056 NA
ATOM     13  C   UNL     1     -17.428   3.693  22.406  0.00  0.00    +0.245 A 
ATOM     17  C   UNL     1     -16.998   2.609  24.115  0.00  0.00    +0.204 A 
BRANCH  17  20
ATOM      7  N   UNL     1     -16.668   0.702  27.291  0.00  0.00    -0.221 NA
ATOM     20  C   UNL     1     -16.720   2.316  25.492  0.00  0.00    +0.041 A 
ATOM     22  C   UNL     1     -16.256   3.304  26.354  0.00  0.00    +0.018 A 
ATOM     23  C   UNL     1     -16.908   1.044  26.004  0.00  0.00    +0.126 A 
ATOM     25  C   UNL     1     -15.997   2.991  27.683  0.00  0.00    +0.068 A 
ATOM     26  C   UNL     1     -16.217   1.687  28.099  0.00  0.00    +0.214 A 
BRANCH  26   3
ATOM      3  O   UNL     1     -15.970   1.355  29.405  0.00  0.00    -0.480 OA
ATOM     27  C   UNL     1     -14.847   0.515  29.650  0.00  0.00    +0.279 C 
ENDBRANCH  26   3
ENDBRANCH  17  20
ENDBRANCH   8  13
BRANCH   4  12
ATOM     12  C   UNL     1     -16.038   6.453  21.485  0.00  0.00    +0.124 C 
BRANCH  12  14
ATOM     14  C   UNL     1     -14.582   6.720  21.212  0.00  0.00    +0.008 A 
ATOM     15  C   UNL     1     -13.601   5.825  21.637  0.00  0.00    +0.124 A 
ATOM     16  C   UNL     1     -14.218   7.878  20.526  0.00  0.00    +0.008 A 
ATOM     18  C   UNL     1     -12.256   6.087  21.377  0.00  0.00    +0.046 A 
ATOM     19  C   UNL     1     -12.874   8.141  20.264  0.00  0.00    +0.001 A 
ATOM     21  C   UNL     1     -11.893   7.245  20.690  0.00  0.00    +0.004 A 
BRANCH  15   2
ATOM      2  O   UNL     1     -13.939   4.689  22.310  0.00  0.00    -0.495 OA
ATOM     24  C   UNL     1     -13.820   4.718  23.732  0.00  0.00    +0.277 C 
ENDBRANCH  15   2
ENDBRANCH  12  14
ENDBRANCH   4  12
TORSDOF 6
ENDMDL
MODEL 5
REMARK VINA RESULT:      -6.3     25.850     29.058
REMARK  Name = 45783696
REMARK  8 active torsions:
REMARK  status: ('A' for Active; 'I' for Inactive)
REMARK    1  A    between atoms: O_2  and  C_15
REMARK    2  A    between atoms: O_2  and  C_24
REMARK    3  A    between atoms: O_3  and  C_26
REMARK    4  A    between atoms: O_3  and  C_27
REMARK    5  A    between atoms: N_4  and  C_12
REMARK    6  A    between atoms: C_8  and  C_13
REMARK    7  A    between atoms: C_12  and  C_14
REMARK    8  A    between atoms: C_17  and  C_20
REMARK                            x       y       z     vdW  Elec       q    Type
REMARK                         _______ _______ _______ _____ _____    ______ ____
ROOT
ATOM      4  N   UNL     1      -3.354 -10.707  14.560  0.00  0.00    -0.287 NA
ATOM      8  C   UNL     1      -3.795 -11.318  15.829  0.00  0.00    +0.146 C 
ATOM      9  C   UNL     1      -2.628 -11.076  16.805  0.00  0.00    +0.030 C 
ATOM     10  C   UNL     1      -1.556 -10.380  15.979  0.00  0.00    +0.017 C 
ATOM     11  C   UNL     1      -1.893 -10.772  14.554  0.00  0.00    +0.085 C 
ENDROOT
BRANCH   8  13
ATOM      1  O   UNL     1      -5.449  -9.520  15.851  0.00  0.00    -0.336 OA
ATOM      5  N   UNL     1      -5.966 -11.253  17.172  0.00  0.00    -0.190 NA
ATOM      6  N   UNL     1      -6.676  -9.202  16.449  0.00  0.00    -0.056 NA
ATOM     13  C   UNL     1      -5.104 -10.743  16.330  0.00  0.00    +0.245 A 
ATOM     17  C   UNL     1      -6.913 -10.272  17.213  0.00  0.00    +0.204 A 
BRANCH  17  20
ATOM      7  N   UNL     1      -9.135 -11.258  20.028  0.00  0.00    -0.221 NA
ATOM     20  C   UNL     1      -8.089 -10.393  18.028  0.00  0.00    +0.041 A 
ATOM     22  C   UNL     1      -9.289  -9.803  17.646  0.00  0.00    +0.018 A 
ATOM     23  C   UNL     1      -8.064 -11.104  19.216  0.00  0.00    +0.126 A 
ATOM     25  C   UNL     1     -10.411  -9.939  18.455  0.00  0.00    +0.068 A 
ATOM     26  C   UNL     1     -10.283 -10.670  19.625  0.00  0.00    +0.214 A 
BRANCH  26   3
ATOM      3  O   UNL     1     -11.376 -10.819  20.439  0.00  0.00    -0.480 OA
ATOM     27  C   UNL     1     -12.465  -9.931  20.215  0.00  0.00    +0.279 C 
ENDBRANCH  26   3
ENDBRANCH  17  20
ENDBRANCH   8  13
BRANCH   4  12
ATOM     12  C   UNL     1      -3.936 -11.342  13.384  0.00  0.00    +0.124 C 
BRANCH  12  14
ATOM     14  C   UNL     1      -4.431 -10.330  12.386  0.00  0.00    +0.008 A 
ATOM     15  C   UNL     1      -3.615  -9.903  11.340  0.00  0.00    +0.124 A 
ATOM     16  C   UNL     1      -5.722  -9.819  12.517  0.00  0.00    +0.008 A 
ATOM     18  C   UNL     1      -4.088  -8.964  10.423  0.00  0.00    +0.046 A 
ATOM     19  C   UNL     1      -6.196  -8.880  11.601  0.00  0.00    +0.001 A 
ATOM     21  C   UNL     1      -5.379  -8.452  10.554  0.00  0.00    +0.004 A 
BRANCH  15   2
ATOM      2  O   UNL     1      -2.351 -10.392  11.197  0.00  0.00    -0.495 OA
ATOM     24  C   UNL     1      -1.283  -9.446  11.225  0.00  0.00    +0.277 C 
ENDBRANCH  15   2
ENDBRANCH  12  14
ENDBRANCH   4  12
TORSDOF 6
ENDMDL
MODEL 6
REMARK VINA RESULT:      -6.2     25.837     28.538
REMARK  Name = 45783696
REMARK  8 active torsions:
REMARK  status: ('A' for Active; 'I' for Inactive)
REMARK    1  A    between atoms: O_2  and  C_15
REMARK    2  A    between atoms: O_2  and  C_24
REMARK    3  A    between atoms: O_3  and  C_26
REMARK    4  A    between atoms: O_3  and  C_27
REMARK    5  A    between atoms: N_4  and  C_12
REMARK    6  A    between atoms: C_8  and  C_13
REMARK    7  A    between atoms: C_12  and  C_14
REMARK    8  A    between atoms: C_17  and  C_20
REMARK                            x       y       z     vdW  Elec       q    Type
REMARK                         _______ _______ _______ _____ _____    ______ ____
ROOT
ATOM      4  N   UNL     1      -3.443 -10.617  14.476  0.00  0.00    -0.287 NA
ATOM      8  C   UNL     1      -3.891 -11.215  15.749  0.00  0.00    +0.146 C 
ATOM      9  C   UNL     1      -2.726 -10.972  16.727  0.00  0.00    +0.030 C 
ATOM     10  C   UNL     1      -1.648 -10.289  15.898  0.00  0.00    +0.017 C 
ATOM     11  C   UNL     1      -1.982 -10.691  14.475  0.00  0.00    +0.085 C 
ENDROOT
BRANCH   8  13
ATOM      1  O   UNL     1      -5.384 -10.610  17.587  0.00  0.00    -0.336 OA
ATOM      5  N   UNL     1      -6.195 -10.129  15.555  0.00  0.00    -0.190 NA
ATOM      6  N   UNL     1      -6.644 -10.033  17.797  0.00  0.00    -0.056 NA
ATOM     13  C   UNL     1      -5.198 -10.628  16.242  0.00  0.00    +0.245 A 
ATOM     17  C   UNL     1      -7.057  -9.777  16.553  0.00  0.00    +0.204 A 
BRANCH  17  20
ATOM      7  N   UNL     1     -10.087  -8.705  14.681  0.00  0.00    -0.221 NA
ATOM     20  C   UNL     1      -8.326  -9.168  16.271  0.00  0.00    +0.041 A 
ATOM     22  C   UNL     1      -9.018  -8.469  17.253  0.00  0.00    +0.018 A 
ATOM     23  C   UNL     1      -8.897  -9.257  15.013  0.00  0.00    +0.126 A 
ATOM     25  C   UNL     1     -10.244  -7.889  16.951  0.00  0.00    +0.068 A 
ATOM     26  C   UNL     1     -10.731  -8.034  15.661  0.00  0.00    +0.214 A 
BRANCH  26   3
ATOM      3  O   UNL     1     -11.938  -7.470  15.339  0.00  0.00    -0.480 OA
ATOM     27  C   UNL     1     -12.041  -6.058  15.477  0.00  0.00    +0.279 C 
ENDBRANCH  26   3
ENDBRANCH  17  20
ENDBRANCH   8  13
BRANCH   4  12
ATOM     12  C   UNL     1      -4.026 -11.258  13.304  0.00  0.00    +0.124 C 
BRANCH  12  14
ATOM     14  C   UNL     1      -4.449 -10.253  12.267  0.00  0.00    +0.008 A 
ATOM     15  C   UNL     1      -3.562  -9.839  11.273  0.00  0.00    +0.124 A 
ATOM     16  C   UNL     1      -5.743  -9.736  12.306  0.00  0.00    +0.008 A 
ATOM     18  C   UNL     1      -3.969  -8.906  10.319  0.00  0.00    +0.046 A 
ATOM     19  C   UNL     1      -6.151  -8.804  11.352  0.00  0.00    +0.001 A 
ATOM     21  C   UNL     1      -5.264  -8.389  10.359  0.00  0.00    +0.004 A 
BRANCH  15   2
ATOM      2  O   UNL     1      -2.294 -10.333  11.220  0.00  0.00    -0.495 OA
ATOM     24  C   UNL     1      -1.230  -9.384  11.153  0.00  0.00    +0.277 C 
ENDBRANCH  15   2
ENDBRANCH  12  14
ENDBRANCH   4  12
TORSDOF 6
ENDMDL
MODEL 7
REMARK VINA RESULT:      -6.2      4.226      4.917
REMARK  Name = 45783696
REMARK  8 active torsions:
REMARK  status: ('A' for Active; 'I' for Inactive)
REMARK    1  A    between atoms: O_2  and  C_15
REMARK    2  A    between atoms: O_2  and  C_24
REMARK    3  A    between atoms: O_3  and  C_26
REMARK    4  A    between atoms: O_3  and  C_27
REMARK    5  A    between atoms: N_4  and  C_12
REMARK    6  A    between atoms: C_8  and  C_13
REMARK    7  A    between atoms: C_12  and  C_14
REMARK    8  A    between atoms: C_17  and  C_20
REMARK                            x       y       z     vdW  Elec       q    Type
REMARK                         _______ _______ _______ _____ _____    ______ ____
ROOT
ATOM      4  N   UNL     1      12.183   9.226  21.663  0.00  0.00    -0.287 NA
ATOM      8  C   UNL     1      12.816   7.933  21.991  0.00  0.00    +0.146 C 
ATOM      9  C   UNL     1      11.785   6.872  21.561  0.00  0.00    +0.030 C 
ATOM     10  C   UNL     1      10.584   7.664  21.063  0.00  0.00    +0.017 C 
ATOM     11  C   UNL     1      10.737   9.010  21.742  0.00  0.00    +0.085 C 
ENDROOT
BRANCH   8  13
ATOM      1  O   UNL     1      14.158   7.790  19.954  0.00  0.00    -0.336 OA
ATOM      5  N   UNL     1      15.338   7.558  21.844  0.00  0.00    -0.190 NA
ATOM      6  N   UNL     1      15.490   7.601  19.561  0.00  0.00    -0.056 NA
ATOM     13  C   UNL     1      14.158   7.752  21.312  0.00  0.00    +0.245 A 
ATOM     17  C   UNL     1      16.123   7.471  20.731  0.00  0.00    +0.204 A 
BRANCH  17  20
ATOM      7  N   UNL     1      19.691   7.997  21.637  0.00  0.00    -0.221 NA
ATOM     20  C   UNL     1      17.538   7.257  20.823  0.00  0.00    +0.041 A 
ATOM     22  C   UNL     1      18.137   6.157  20.218  0.00  0.00    +0.018 A 
ATOM     23  C   UNL     1      18.352   8.139  21.513  0.00  0.00    +0.126 A 
ATOM     25  C   UNL     1      19.511   5.976  20.323  0.00  0.00    +0.068 A 
ATOM     26  C   UNL     1      20.237   6.916  21.037  0.00  0.00    +0.214 A 
BRANCH  26   3
ATOM      3  O   UNL     1      21.594   6.760  21.154  0.00  0.00    -0.480 OA
ATOM     27  C   UNL     1      22.351   7.932  21.431  0.00  0.00    +0.279 C 
ENDBRANCH  26   3
ENDBRANCH  17  20
ENDBRANCH   8  13
BRANCH   4  12
ATOM     12  C   UNL     1      12.622  10.316  22.525  0.00  0.00    +0.124 C 
BRANCH  12  14
ATOM     14  C   UNL     1      12.040  11.637  22.100  0.00  0.00    +0.008 A 
ATOM     15  C   UNL     1      11.068  12.269  22.875  0.00  0.00    +0.124 A 
ATOM     16  C   UNL     1      12.483  12.229  20.918  0.00  0.00    +0.008 A 
ATOM     18  C   UNL     1      10.538  13.494  22.467  0.00  0.00    +0.046 A 
ATOM     19  C   UNL     1      11.954  13.452  20.509  0.00  0.00    +0.001 A 
ATOM     21  C   UNL     1      10.981  14.085  21.284  0.00  0.00    +0.004 A 
BRANCH  15   2
ATOM      2  O   UNL     1      10.624  11.705  24.033  0.00  0.00    -0.495 OA
ATOM     24  C   UNL     1      10.914  12.400  25.245  0.00  0.00    +0.277 C 
ENDBRANCH  15   2
ENDBRANCH  12  14
ENDBRANCH   4  12
TORSDOF 6
ENDMDL
MODEL 8
REMARK VINA RESULT:      -6.2      2.212      7.138
REMARK  Name = 45783696
REMARK  8 active torsions:
REMARK  status: ('A' for Active; 'I' for Inactive)
REMARK    1  A    between atoms: O_2  and  C_15
REMARK    2  A    between atoms: O_2  and  C_24
REMARK    3  A    between atoms: O_3  and  C_26
REMARK    4  A    between atoms: O_3  and  C_27
REMARK    5  A    between atoms: N_4  and  C_12
REMARK    6  A    between atoms: C_8  and  C_13
REMARK    7  A    between atoms: C_12  and  C_14
REMARK    8  A    between atoms: C_17  and  C_20
REMARK                            x       y       z     vdW  Elec       q    Type
REMARK                         _______ _______ _______ _____ _____    ______ ____
ROOT
ATOM      4  N   UNL     1      13.319   9.164  17.255  0.00  0.00    -0.287 NA
ATOM      8  C   UNL     1      14.533   9.883  17.686  0.00  0.00    +0.146 C 
ATOM      9  C   UNL     1      14.803  10.903  16.563  0.00  0.00    +0.030 C 
ATOM     10  C   UNL     1      13.727  10.639  15.520  0.00  0.00    +0.017 C 
ATOM     11  C   UNL     1      13.308   9.209  15.792  0.00  0.00    +0.085 C 
ENDROOT
BRANCH   8  13
ATOM      1  O   UNL     1      15.443  10.469  19.877  0.00  0.00    -0.336 OA
ATOM      5  N   UNL     1      13.341  11.166  19.544  0.00  0.00    -0.190 NA
ATOM      6  N   UNL     1      15.062  11.131  21.052  0.00  0.00    -0.056 NA
ATOM     13  C   UNL     1      14.373  10.537  19.043  0.00  0.00    +0.245 A 
ATOM     17  C   UNL     1      13.811  11.512  20.778  0.00  0.00    +0.204 A 
BRANCH  17  20
ATOM      7  N   UNL     1      12.860  13.928  23.441  0.00  0.00    -0.221 NA
ATOM     20  C   UNL     1      13.005  12.243  21.713  0.00  0.00    +0.041 A 
ATOM     22  C   UNL     1      11.639  12.003  21.822  0.00  0.00    +0.018 A 
ATOM     23  C   UNL     1      13.562  13.206  22.538  0.00  0.00    +0.126 A 
ATOM     25  C   UNL     1      10.884  12.725  22.738  0.00  0.00    +0.068 A 
ATOM     26  C   UNL     1      11.536  13.668  23.517  0.00  0.00    +0.214 A 
BRANCH  26   3
ATOM      3  O   UNL     1      10.812  14.393  24.428  0.00  0.00    -0.480 OA
ATOM     27  C   UNL     1      10.550  13.767  25.679  0.00  0.00    +0.279 C 
ENDBRANCH  26   3
ENDBRANCH  17  20
ENDBRANCH   8  13
BRANCH   4  12
ATOM     12  C   UNL     1      13.249   7.799  17.762  0.00  0.00    +0.124 C 
BRANCH  12  14
ATOM     14  C   UNL     1      12.619   7.740  19.128  0.00  0.00    +0.008 A 
ATOM     15  C   UNL     1      13.258   7.085  20.180  0.00  0.00    +0.124 A 
ATOM     16  C   UNL     1      11.383   8.351  19.336  0.00  0.00    +0.008 A 
ATOM     18  C   UNL     1      12.661   7.040  21.440  0.00  0.00    +0.046 A 
ATOM     19  C   UNL     1      10.785   8.306  20.595  0.00  0.00    +0.001 A 
ATOM     21  C   UNL     1      11.424   7.650  21.647  0.00  0.00    +0.004 A 
BRANCH  15   2
ATOM      2  O   UNL     1      14.467   6.483  19.995  0.00  0.00    -0.495 OA
ATOM     24  C   UNL     1      15.581   7.038  20.693  0.00  0.00    +0.277 C 
ENDBRANCH  15   2
ENDBRANCH  12  14
ENDBRANCH   4  12
TORSDOF 6
ENDMDL
MODEL 9
REMARK VINA RESULT:      -5.9     26.031     28.890
REMARK  Name = 45783696
REMARK  8 active torsions:
REMARK  status: ('A' for Active; 'I' for Inactive)
REMARK    1  A    between atoms: O_2  and  C_15
REMARK    2  A    between atoms: O_2  and  C_24
REMARK    3  A    between atoms: O_3  and  C_26
REMARK    4  A    between atoms: O_3  and  C_27
REMARK    5  A    between atoms: N_4  and  C_12
REMARK    6  A    between atoms: C_8  and  C_13
REMARK    7  A    between atoms: C_12  and  C_14
REMARK    8  A    between atoms: C_17  and  C_20
REMARK                            x       y       z     vdW  Elec       q    Type
REMARK                         _______ _______ _______ _____ _____    ______ ____
ROOT
ATOM      4  N   UNL     1      -3.707 -10.235  11.424  0.00  0.00    -0.287 NA
ATOM      8  C   UNL     1      -2.601 -10.761  12.247  0.00  0.00    +0.146 C 
ATOM      9  C   UNL     1      -1.380  -9.909  11.851  0.00  0.00    +0.030 C 
ATOM     10  C   UNL     1      -1.883  -8.977  10.759  0.00  0.00    +0.017 C 
ATOM     11  C   UNL     1      -3.099  -9.695  10.208  0.00  0.00    +0.085 C 
ENDROOT
BRANCH   8  13
ATOM      1  O   UNL     1      -1.825 -10.598  14.559  0.00  0.00    -0.336 OA
ATOM      5  N   UNL     1      -4.051 -10.736  14.349  0.00  0.00    -0.190 NA
ATOM      6  N   UNL     1      -2.342 -10.562  15.861  0.00  0.00    -0.056 NA
ATOM     13  C   UNL     1      -2.897 -10.701  13.731  0.00  0.00    +0.245 A 
ATOM     17  C   UNL     1      -3.659 -10.648  15.653  0.00  0.00    +0.204 A 
BRANCH  17  20
ATOM      7  N   UNL     1      -6.769  -9.958  17.574  0.00  0.00    -0.221 NA
ATOM     20  C   UNL     1      -4.611 -10.646  16.727  0.00  0.00    +0.041 A 
ATOM     22  C   UNL     1      -4.338 -11.293  17.928  0.00  0.00    +0.018 A 
ATOM     23  C   UNL     1      -5.829  -9.999  16.601  0.00  0.00    +0.126 A 
ATOM     25  C   UNL     1      -5.279 -11.273  18.950  0.00  0.00    +0.068 A 
ATOM     26  C   UNL     1      -6.468 -10.597  18.726  0.00  0.00    +0.214 A 
BRANCH  26   3
ATOM      3  O   UNL     1      -7.411 -10.563  19.719  0.00  0.00    -0.480 OA
ATOM     27  C   UNL     1      -8.521 -11.442  19.579  0.00  0.00    +0.279 C 
ENDBRANCH  26   3
ENDBRANCH  17  20
ENDBRANCH   8  13
BRANCH   4  12
ATOM     12  C   UNL     1      -4.729 -11.232  11.131  0.00  0.00    +0.124 C 
BRANCH  12  14
ATOM     14  C   UNL     1      -6.082 -10.605  10.926  0.00  0.00    +0.008 A 
ATOM     15  C   UNL     1      -6.624 -10.484   9.647  0.00  0.00    +0.124 A 
ATOM     16  C   UNL     1      -6.795 -10.145  12.032  0.00  0.00    +0.008 A 
ATOM     18  C   UNL     1      -7.880  -9.901   9.474  0.00  0.00    +0.046 A 
ATOM     19  C   UNL     1      -8.050  -9.562  11.860  0.00  0.00    +0.001 A 
ATOM     21  C   UNL     1      -8.592  -9.440  10.581  0.00  0.00    +0.004 A 
BRANCH  15   2
ATOM      2  O   UNL     1      -5.942 -10.929   8.555  0.00  0.00    -0.495 OA
ATOM     24  C   UNL     1      -5.717  -9.990   7.505  0.00  0.00    +0.277 C 
ENDBRANCH  15   2
ENDBRANCH  12  14
ENDBRANCH   4  12
TORSDOF 6
ENDMDL
MODEL 10
REMARK VINA RESULT:      -5.9     25.997     29.035
REMARK  Name = 45783696
REMARK  8 active torsions:
REMARK  status: ('A' for Active; 'I' for Inactive)
REMARK    1  A    between atoms: O_2  and  C_15
REMARK    2  A    between atoms: O_2  and  C_24
REMARK    3  A    between atoms: O_3  and  C_26
REMARK    4  A    between atoms: O_3  and  C_27
REMARK    5  A    between atoms: N_4  and  C_12
REMARK    6  A    between atoms: C_8  and  C_13
REMARK    7  A    between atoms: C_12  and  C_14
REMARK    8  A    between atoms: C_17  and  C_20
REMARK                            x       y       z     vdW  Elec       q    Type
REMARK                         _______ _______ _______ _____ _____    ______ ____
ROOT
ATOM      4  N   UNL     1      -3.752  -9.965  11.505  0.00  0.00    -0.287 NA
ATOM      8  C   UNL     1      -2.755 -10.724  12.284  0.00  0.00    +0.146 C 
ATOM      9  C   UNL     1      -1.401 -10.093  11.908  0.00  0.00    +0.030 C 
ATOM     10  C   UNL     1      -1.732  -9.033  10.868  0.00  0.00    +0.017 C 
ATOM     11  C   UNL     1      -3.064  -9.488  10.305  0.00  0.00    +0.085 C 
ENDROOT
BRANCH   8  13
ATOM      1  O   UNL     1      -1.940 -10.562  14.582  0.00  0.00    -0.336 OA
ATOM      5  N   UNL     1      -4.165 -10.748  14.414  0.00  0.00    -0.190 NA
ATOM      6  N   UNL     1      -2.432 -10.547  15.894  0.00  0.00    -0.056 NA
ATOM     13  C   UNL     1      -3.025 -10.682  13.774  0.00  0.00    +0.245 A 
ATOM     17  C   UNL     1      -3.750 -10.661  15.711  0.00  0.00    +0.204 A 
BRANCH  17  20
ATOM      7  N   UNL     1      -6.849 -10.081  17.684  0.00  0.00    -0.221 NA
ATOM     20  C   UNL     1      -4.682 -10.688  16.803  0.00  0.00    +0.041 A 
ATOM     22  C   UNL     1      -4.359 -11.311  18.003  0.00  0.00    +0.018 A 
ATOM     23  C   UNL     1      -5.927 -10.093  16.695  0.00  0.00    +0.126 A 
ATOM     25  C   UNL     1      -5.281 -11.320  19.044  0.00  0.00    +0.068 A 
ATOM     26  C   UNL     1      -6.501 -10.697  18.836  0.00  0.00    +0.214 A 
BRANCH  26   3
ATOM      3  O   UNL     1      -7.426 -10.692  19.847  0.00  0.00    -0.480 OA
ATOM     27  C   UNL     1      -8.727 -11.172  19.526  0.00  0.00    +0.279 C 
ENDBRANCH  26   3
ENDBRANCH  17  20
ENDBRANCH   8  13
BRANCH   4  12
ATOM     12  C   UNL     1      -4.942 -10.742  11.182  0.00  0.00    +0.124 C 
BRANCH  12  14
ATOM     14  C   UNL     1      -4.911 -11.255   9.767  0.00  0.00    +0.008 A 
ATOM     15  C   UNL     1      -5.589 -10.583   8.751  0.00  0.00    +0.124 A 
ATOM     16  C   UNL     1      -4.194 -12.415   9.479  0.00  0.00    +0.008 A 
ATOM     18  C   UNL     1      -5.550 -11.072   7.445  0.00  0.00    +0.046 A 
ATOM     19  C   UNL     1      -4.154 -12.905   8.174  0.00  0.00    +0.001 A 
ATOM     21  C   UNL     1      -4.832 -12.233   7.157  0.00  0.00    +0.004 A 
BRANCH  15   2
ATOM      2  O   UNL     1      -6.295  -9.448   9.015  0.00  0.00    -0.495 OA
ATOM     24  C   UNL     1      -7.088  -8.917   7.955  0.00  0.00    +0.277 C 
ENDBRANCH  15   2
ENDBRANCH  12  14
ENDBRANCH   4  12
TORSDOF 6
ENDMDL
