MODEL 1
REMARK VINA RESULT:      -6.4      0.000      0.000
REMARK  Name = 75536604
REMARK  9 active torsions:
REMARK  status: ('A' for Active; 'I' for Inactive)
REMARK    1  A    between atoms: S_1  and  C_20
REMARK    2  A    between atoms: S_1  and  C_24
REMARK    3  A    between atoms: O_4  and  C_11
REMARK    4  A    between atoms: N_8  and  C_10
REMARK    5  A    between atoms: N_8  and  C_15
REMARK    6  A    between atoms: N_9  and  C_14
REMARK    7  A    between atoms: C_12  and  C_14
REMARK    8  A    between atoms: C_15  and  C_16
REMARK    9  A    between atoms: C_17  and  C_23
REMARK                            x       y       z     vdW  Elec       q    Type
REMARK                         _______ _______ _______ _____ _____    ______ ____
ROOT
ATOM      3  O   UNL     1      12.587  12.825  23.473  0.00  0.00    -0.371 OA
ATOM     10  C   UNL     1      11.004  11.097  23.806  0.00  0.00    +0.111 C 
ATOM     11  C   UNL     1      11.603  11.449  25.156  0.00  0.00    +0.164 C 
ATOM     12  C   UNL     1      12.757  12.399  24.837  0.00  0.00    +0.165 C 
ATOM     13  C   UNL     1      11.331  12.336  22.989  0.00  0.00    +0.181 C 
ENDROOT
BRANCH  11   4
ATOM      4  O   UNL     1      10.610  12.154  25.904  0.00  0.00    -0.388 OA
ATOM     29  H   UNL     1       9.898  12.394  25.287  0.00  0.00    +0.210 HD
ENDBRANCH  11   4
BRANCH  10   8
ATOM      8  N   UNL     1      11.636   9.914  23.226  0.00  0.00    -0.305 NA
ATOM     28  H   UNL     1      12.504  10.168  22.756  0.00  0.00    +0.123 HD
BRANCH   8  15
ATOM     15  C   UNL     1      10.752   9.264  22.266  0.00  0.00    +0.116 C 
BRANCH  15  16
ATOM     16  C   UNL     1      11.394   9.137  20.910  0.00  0.00    -0.033 A 
ATOM     18  C   UNL     1      11.257   7.956  20.182  0.00  0.00    +0.007 A 
ATOM     19  C   UNL     1      12.125  10.202  20.382  0.00  0.00    +0.007 A 
ATOM     20  C   UNL     1      12.583   8.901  18.398  0.00  0.00    +0.088 A 
ATOM     21  C   UNL     1      11.852   7.838  18.926  0.00  0.00    +0.027 A 
ATOM     22  C   UNL     1      12.720  10.084  19.127  0.00  0.00    +0.027 A 
BRANCH  20   1
ATOM      1  S   UNL     1      13.325   8.755  16.824  0.00  0.00    -0.006 S 
ATOM      6  O   UNL     1      14.081   7.511  16.773  0.00  0.00    -0.170 OA
ATOM      7  O   UNL     1      12.304   9.021  15.820  0.00  0.00    -0.170 OA
ATOM     24  C   UNL     1      14.508  10.082  16.767  0.00  0.00    +0.200 C 
ENDBRANCH  20   1
ENDBRANCH  15  16
ENDBRANCH   8  15
ENDBRANCH  10   8
BRANCH  12  14
ATOM     14  C   UNL     1      14.129  11.755  24.969  0.00  0.00    +0.138 C 
BRANCH  14   9
ATOM      5  O   UNL     1      16.045  11.730  22.831  0.00  0.00    -0.270 OA
ATOM      9  N   UNL     1      14.313  10.716  23.997  0.00  0.00    -0.308 N 
ATOM     17  C   UNL     1      15.272  10.789  22.990  0.00  0.00    +0.251 C 
ATOM     30  H   UNL     1      13.660   9.941  24.016  0.00  0.00    +0.149 HD
BRANCH  17  23
ATOM      2  S   UNL     1      16.184   9.809  20.576  0.00  0.00    -0.092 S 
ATOM     23  C   UNL     1      15.318   9.644  22.045  0.00  0.00    +0.074 A 
ATOM     25  C   UNL     1      14.744   8.397  22.169  0.00  0.00    +0.021 A 
ATOM     26  C   UNL     1      15.018   7.568  21.043  0.00  0.00    +0.008 A 
ATOM     27  C   UNL     1      15.790   8.212  20.102  0.00  0.00    +0.046 A 
ENDBRANCH  17  23
ENDBRANCH  14   9
ENDBRANCH  12  14
TORSDOF 8
ENDMDL
MODEL 2
REMARK VINA RESULT:      -5.9      3.448      5.473
REMARK  Name = 75536604
REMARK  9 active torsions:
REMARK  status: ('A' for Active; 'I' for Inactive)
REMARK    1  A    between atoms: S_1  and  C_20
REMARK    2  A    between atoms: S_1  and  C_24
REMARK    3  A    between atoms: O_4  and  C_11
REMARK    4  A    between atoms: N_8  and  C_10
REMARK    5  A    between atoms: N_8  and  C_15
REMARK    6  A    between atoms: N_9  and  C_14
REMARK    7  A    between atoms: C_12  and  C_14
REMARK    8  A    between atoms: C_15  and  C_16
REMARK    9  A    between atoms: C_17  and  C_23
REMARK                            x       y       z     vdW  Elec       q    Type
REMARK                         _______ _______ _______ _____ _____    ______ ____
ROOT
ATOM      3  O   UNL     1      11.299   9.259  20.350  0.00  0.00    -0.371 OA
ATOM     10  C   UNL     1      11.963   7.010  20.674  0.00  0.00    +0.111 C 
ATOM     11  C   UNL     1      11.132   7.430  21.874  0.00  0.00    +0.164 C 
ATOM     12  C   UNL     1      10.930   8.935  21.703  0.00  0.00    +0.165 C 
ATOM     13  C   UNL     1      11.555   8.044  19.637  0.00  0.00    +0.181 C 
ENDROOT
BRANCH  11   4
ATOM      4  O   UNL     1       9.866   6.775  21.778  0.00  0.00    -0.388 OA
ATOM     29  H   UNL     1       9.772   6.209  22.563  0.00  0.00    +0.210 HD
ENDBRANCH  11   4
BRANCH  10   8
ATOM      8  N   UNL     1      13.395   7.095  20.952  0.00  0.00    -0.305 NA
ATOM     28  H   UNL     1      13.620   7.984  21.397  0.00  0.00    +0.123 HD
BRANCH   8  15
ATOM     15  C   UNL     1      14.176   6.970  19.727  0.00  0.00    +0.116 C 
BRANCH  15  16
ATOM     16  C   UNL     1      15.644   6.799  20.013  0.00  0.00    -0.033 A 
ATOM     18  C   UNL     1      16.192   7.323  21.183  0.00  0.00    +0.007 A 
ATOM     19  C   UNL     1      16.456   6.115  19.107  0.00  0.00    +0.007 A 
ATOM     20  C   UNL     1      18.364   6.482  20.543  0.00  0.00    +0.088 A 
ATOM     21  C   UNL     1      17.552   7.165  21.448  0.00  0.00    +0.027 A 
ATOM     22  C   UNL     1      17.816   5.957  19.372  0.00  0.00    +0.027 A 
BRANCH  20   1
ATOM      1  S   UNL     1      20.066   6.281  20.877  0.00  0.00    -0.006 S 
ATOM      6  O   UNL     1      20.462   4.928  20.511  0.00  0.00    -0.170 OA
ATOM      7  O   UNL     1      20.773   7.420  20.307  0.00  0.00    -0.170 OA
ATOM     24  C   UNL     1      20.186   6.394  22.648  0.00  0.00    +0.200 C 
ENDBRANCH  20   1
ENDBRANCH  15  16
ENDBRANCH   8  15
ENDBRANCH  10   8
BRANCH  12  14
ATOM     14  C   UNL     1      11.782   9.773  22.645  0.00  0.00    +0.138 C 
BRANCH  14   9
ATOM      5  O   UNL     1      13.418  12.133  22.650  0.00  0.00    -0.270 OA
ATOM      9  N   UNL     1      13.132   9.880  22.171  0.00  0.00    -0.308 N 
ATOM     17  C   UNL     1      13.853  11.070  22.212  0.00  0.00    +0.251 C 
ATOM     30  H   UNL     1      13.533   9.062  21.724  0.00  0.00    +0.149 HD
BRANCH  17  23
ATOM      2  S   UNL     1      15.444  10.992  19.959  0.00  0.00    -0.092 S 
ATOM     23  C   UNL     1      15.230  11.022  21.658  0.00  0.00    +0.074 A 
ATOM     25  C   UNL     1      16.432  10.999  22.331  0.00  0.00    +0.021 A 
ATOM     26  C   UNL     1      17.543  10.955  21.439  0.00  0.00    +0.008 A 
ATOM     27  C   UNL     1      17.148  10.945  20.120  0.00  0.00    +0.046 A 
ENDBRANCH  17  23
ENDBRANCH  14   9
ENDBRANCH  12  14
TORSDOF 8
ENDMDL
MODEL 3
REMARK VINA RESULT:      -5.9     26.818     28.981
REMARK  Name = 75536604
REMARK  9 active torsions:
REMARK  status: ('A' for Active; 'I' for Inactive)
REMARK    1  A    between atoms: S_1  and  C_20
REMARK    2  A    between atoms: S_1  and  C_24
REMARK    3  A    between atoms: O_4  and  C_11
REMARK    4  A    between atoms: N_8  and  C_10
REMARK    5  A    between atoms: N_8  and  C_15
REMARK    6  A    between atoms: N_9  and  C_14
REMARK    7  A    between atoms: C_12  and  C_14
REMARK    8  A    between atoms: C_15  and  C_16
REMARK    9  A    between atoms: C_17  and  C_23
REMARK                            x       y       z     vdW  Elec       q    Type
REMARK                         _______ _______ _______ _____ _____    ______ ____
ROOT
ATOM      3  O   UNL     1      -3.901 -12.213  15.634  0.00  0.00    -0.371 OA
ATOM     10  C   UNL     1      -2.101 -11.166  14.508  0.00  0.00    +0.111 C 
ATOM     11  C   UNL     1      -2.201 -10.557  15.895  0.00  0.00    +0.164 C 
ATOM     12  C   UNL     1      -3.502 -11.114  16.474  0.00  0.00    +0.165 C 
ATOM     13  C   UNL     1      -2.860 -12.471  14.685  0.00  0.00    +0.181 C 
ENDROOT
BRANCH  11   4
ATOM      4  O   UNL     1      -1.101 -11.045  16.666  0.00  0.00    -0.388 OA
ATOM     29  H   UNL     1      -1.323 -11.948  16.949  0.00  0.00    +0.210 HD
ENDBRANCH  11   4
BRANCH  10   8
ATOM      8  N   UNL     1      -2.748 -10.325  13.502  0.00  0.00    -0.305 NA
ATOM     28  H   UNL     1      -3.688 -10.665  13.304  0.00  0.00    +0.123 HD
BRANCH   8  15
ATOM     15  C   UNL     1      -1.981 -10.309  12.262  0.00  0.00    +0.116 C 
BRANCH  15  16
ATOM     16  C   UNL     1      -2.873 -10.383  11.050  0.00  0.00    -0.033 A 
ATOM     18  C   UNL     1      -3.132  -9.235  10.304  0.00  0.00    +0.007 A 
ATOM     19  C   UNL     1      -3.439 -11.602  10.676  0.00  0.00    +0.007 A 
ATOM     20  C   UNL     1      -4.525 -10.521   8.807  0.00  0.00    +0.088 A 
ATOM     21  C   UNL     1      -3.958  -9.303   9.183  0.00  0.00    +0.027 A 
ATOM     22  C   UNL     1      -4.266 -11.671   9.555  0.00  0.00    +0.027 A 
BRANCH  20   1
ATOM      1  S   UNL     1      -5.557 -10.608   7.401  0.00  0.00    -0.006 S 
ATOM      6  O   UNL     1      -6.253  -9.338   7.248  0.00  0.00    -0.170 OA
ATOM      7  O   UNL     1      -4.767 -11.137   6.298  0.00  0.00    -0.170 OA
ATOM     24  C   UNL     1      -6.784 -11.822   7.827  0.00  0.00    +0.200 C 
ENDBRANCH  20   1
ENDBRANCH  15  16
ENDBRANCH   8  15
ENDBRANCH  10   8
BRANCH  12  14
ATOM     14  C   UNL     1      -4.636 -10.100  16.506  0.00  0.00    +0.138 C 
BRANCH  14   9
ATOM      5  O   UNL     1      -7.384 -10.417  15.738  0.00  0.00    -0.270 OA
ATOM      9  N   UNL     1      -5.188  -9.895  15.198  0.00  0.00    -0.308 N 
ATOM     17  C   UNL     1      -6.540 -10.073  14.915  0.00  0.00    +0.251 C 
ATOM     30  H   UNL     1      -4.539  -9.683  14.448  0.00  0.00    +0.149 HD
BRANCH  17  23
ATOM      2  S   UNL     1      -8.556 -10.209  13.036  0.00  0.00    -0.092 S 
ATOM     23  C   UNL     1      -6.949  -9.847  13.505  0.00  0.00    +0.074 A 
ATOM     25  C   UNL     1      -6.200  -9.364  12.454  0.00  0.00    +0.021 A 
ATOM     26  C   UNL     1      -6.956  -9.290  11.248  0.00  0.00    +0.008 A 
ATOM     27  C   UNL     1      -8.253  -9.721  11.423  0.00  0.00    +0.046 A 
ENDBRANCH  17  23
ENDBRANCH  14   9
ENDBRANCH  12  14
TORSDOF 8
ENDMDL
MODEL 4
REMARK VINA RESULT:      -5.6      6.625      8.600
REMARK  Name = 75536604
REMARK  9 active torsions:
REMARK  status: ('A' for Active; 'I' for Inactive)
REMARK    1  A    between atoms: S_1  and  C_20
REMARK    2  A    between atoms: S_1  and  C_24
REMARK    3  A    between atoms: O_4  and  C_11
REMARK    4  A    between atoms: N_8  and  C_10
REMARK    5  A    between atoms: N_8  and  C_15
REMARK    6  A    between atoms: N_9  and  C_14
REMARK    7  A    between atoms: C_12  and  C_14
REMARK    8  A    between atoms: C_15  and  C_16
REMARK    9  A    between atoms: C_17  and  C_23
REMARK                            x       y       z     vdW  Elec       q    Type
REMARK                         _______ _______ _______ _____ _____    ______ ____
ROOT
ATOM      3  O   UNL     1      21.528   8.258  21.664  0.00  0.00    -0.371 OA
ATOM     10  C   UNL     1      19.211   7.887  21.976  0.00  0.00    +0.111 C 
ATOM     11  C   UNL     1      19.948   6.634  22.415  0.00  0.00    +0.164 C 
ATOM     12  C   UNL     1      21.397   6.860  21.983  0.00  0.00    +0.165 C 
ATOM     13  C   UNL     1      20.315   8.930  22.024  0.00  0.00    +0.181 C 
ENDROOT
BRANCH  11   4
ATOM      4  O   UNL     1      19.891   6.571  23.841  0.00  0.00    -0.388 OA
ATOM     29  H   UNL     1      20.553   7.193  24.186  0.00  0.00    +0.210 HD
ENDBRANCH  11   4
BRANCH  10   8
ATOM      8  N   UNL     1      18.682   7.755  20.620  0.00  0.00    -0.305 NA
ATOM     28  H   UNL     1      18.077   8.544  20.395  0.00  0.00    +0.123 HD
BRANCH   8  15
ATOM     15  C   UNL     1      17.921   6.520  20.472  0.00  0.00    +0.116 C 
BRANCH  15  16
ATOM     16  C   UNL     1      16.438   6.778  20.421  0.00  0.00    -0.033 A 
ATOM     18  C   UNL     1      15.743   7.083  21.591  0.00  0.00    +0.007 A 
ATOM     19  C   UNL     1      15.761   6.713  19.203  0.00  0.00    +0.007 A 
ATOM     20  C   UNL     1      13.692   7.256  20.327  0.00  0.00    +0.088 A 
ATOM     21  C   UNL     1      14.370   7.321  21.544  0.00  0.00    +0.027 A 
ATOM     22  C   UNL     1      14.388   6.952  19.156  0.00  0.00    +0.027 A 
BRANCH  20   1
ATOM      1  S   UNL     1      11.973   7.559  20.268  0.00  0.00    -0.006 S 
ATOM      6  O   UNL     1      11.626   8.050  18.942  0.00  0.00    -0.170 OA
ATOM      7  O   UNL     1      11.293   6.390  20.807  0.00  0.00    -0.170 OA
ATOM     24  C   UNL     1      11.723   8.907  21.401  0.00  0.00    +0.200 C 
ENDBRANCH  20   1
ENDBRANCH  15  16
ENDBRANCH   8  15
ENDBRANCH  10   8
BRANCH  12  14
ATOM     14  C   UNL     1      21.799   6.051  20.759  0.00  0.00    +0.138 C 
BRANCH  14   9
ATOM      5  O   UNL     1      21.025   3.297  21.010  0.00  0.00    -0.270 OA
ATOM      9  N   UNL     1      22.649   4.952  21.117  0.00  0.00    -0.308 N 
ATOM     17  C   UNL     1      22.186   3.643  21.215  0.00  0.00    +0.251 C 
ATOM     30  H   UNL     1      23.605   5.169  21.376  0.00  0.00    +0.149 HD
BRANCH  17  23
ATOM      2  S   UNL     1      23.353   2.237  23.284  0.00  0.00    -0.092 S 
ATOM     23  C   UNL     1      23.185   2.622  21.623  0.00  0.00    +0.074 A 
ATOM     25  C   UNL     1      24.047   1.893  20.834  0.00  0.00    +0.021 A 
ATOM     26  C   UNL     1      24.856   1.007  21.602  0.00  0.00    +0.008 A 
ATOM     27  C   UNL     1      24.582   1.094  22.949  0.00  0.00    +0.046 A 
ENDBRANCH  17  23
ENDBRANCH  14   9
ENDBRANCH  12  14
TORSDOF 8
ENDMDL
MODEL 5
REMARK VINA RESULT:      -5.4     15.084     19.348
REMARK  Name = 75536604
REMARK  9 active torsions:
REMARK  status: ('A' for Active; 'I' for Inactive)
REMARK    1  A    between atoms: S_1  and  C_20
REMARK    2  A    between atoms: S_1  and  C_24
REMARK    3  A    between atoms: O_4  and  C_11
REMARK    4  A    between atoms: N_8  and  C_10
REMARK    5  A    between atoms: N_8  and  C_15
REMARK    6  A    between atoms: N_9  and  C_14
REMARK    7  A    between atoms: C_12  and  C_14
REMARK    8  A    between atoms: C_15  and  C_16
REMARK    9  A    between atoms: C_17  and  C_23
REMARK                            x       y       z     vdW  Elec       q    Type
REMARK                         _______ _______ _______ _____ _____    ______ ____
ROOT
ATOM      3  O   UNL     1      14.032   3.165   1.802  0.00  0.00    -0.371 OA
ATOM     10  C   UNL     1      12.082   3.972   0.727  0.00  0.00    +0.111 C 
ATOM     11  C   UNL     1      13.233   4.069  -0.258  0.00  0.00    +0.164 C 
ATOM     12  C   UNL     1      14.481   3.745   0.563  0.00  0.00    +0.165 C 
ATOM     13  C   UNL     1      12.616   2.961   1.730  0.00  0.00    +0.181 C 
ENDROOT
BRANCH  11   4
ATOM      4  O   UNL     1      13.048   3.053  -1.246  0.00  0.00    -0.388 OA
ATOM     29  H   UNL     1      13.685   3.222  -1.960  0.00  0.00    +0.210 HD
ENDBRANCH  11   4
BRANCH  10   8
ATOM      8  N   UNL     1      11.819   5.254   1.377  0.00  0.00    -0.305 NA
ATOM     28  H   UNL     1      12.356   5.334   2.240  0.00  0.00    +0.123 HD
BRANCH   8  15
ATOM     15  C   UNL     1      10.402   5.402   1.689  0.00  0.00    +0.116 C 
BRANCH  15  16
ATOM     16  C   UNL     1      10.185   5.852   3.110  0.00  0.00    -0.033 A 
ATOM     18  C   UNL     1       9.719   7.141   3.369  0.00  0.00    +0.007 A 
ATOM     19  C   UNL     1      10.450   4.980   4.166  0.00  0.00    +0.007 A 
ATOM     20  C   UNL     1       9.783   6.687   5.741  0.00  0.00    +0.088 A 
ATOM     21  C   UNL     1       9.519   7.558   4.685  0.00  0.00    +0.027 A 
ATOM     22  C   UNL     1      10.249   5.397   5.481  0.00  0.00    +0.027 A 
BRANCH  20   1
ATOM      1  S   UNL     1       9.529   7.208   7.388  0.00  0.00    -0.006 S 
ATOM      6  O   UNL     1      10.566   8.166   7.745  0.00  0.00    -0.170 OA
ATOM      7  O   UNL     1       8.127   7.575   7.530  0.00  0.00    -0.170 OA
ATOM     24  C   UNL     1       9.814   5.749   8.363  0.00  0.00    +0.200 C 
ENDBRANCH  20   1
ENDBRANCH  15  16
ENDBRANCH   8  15
ENDBRANCH  10   8
BRANCH  12  14
ATOM     14  C   UNL     1      15.328   4.966   0.887  0.00  0.00    +0.138 C 
BRANCH  14   9
ATOM      5  O   UNL     1      15.125   7.748   1.571  0.00  0.00    -0.270 OA
ATOM      9  N   UNL     1      14.990   5.510   2.171  0.00  0.00    -0.308 N 
ATOM     17  C   UNL     1      14.915   6.879   2.413  0.00  0.00    +0.251 C 
ATOM     30  H   UNL     1      14.878   4.855   2.938  0.00  0.00    +0.149 HD
BRANCH  17  23
ATOM      2  S   UNL     1      15.834   7.800   4.847  0.00  0.00    -0.092 S 
ATOM     23  C   UNL     1      14.579   7.281   3.803  0.00  0.00    +0.074 A 
ATOM     25  C   UNL     1      13.348   7.307   4.422  0.00  0.00    +0.021 A 
ATOM     26  C   UNL     1      13.437   7.758   5.771  0.00  0.00    +0.008 A 
ATOM     27  C   UNL     1      14.732   8.059   6.131  0.00  0.00    +0.046 A 
ENDBRANCH  17  23
ENDBRANCH  14   9
ENDBRANCH  12  14
TORSDOF 8
ENDMDL
MODEL 6
REMARK VINA RESULT:      -5.4     26.729     28.844
REMARK  Name = 75536604
REMARK  9 active torsions:
REMARK  status: ('A' for Active; 'I' for Inactive)
REMARK    1  A    between atoms: S_1  and  C_20
REMARK    2  A    between atoms: S_1  and  C_24
REMARK    3  A    between atoms: O_4  and  C_11
REMARK    4  A    between atoms: N_8  and  C_10
REMARK    5  A    between atoms: N_8  and  C_15
REMARK    6  A    between atoms: N_9  and  C_14
REMARK    7  A    between atoms: C_12  and  C_14
REMARK    8  A    between atoms: C_15  and  C_16
REMARK    9  A    between atoms: C_17  and  C_23
REMARK                            x       y       z     vdW  Elec       q    Type
REMARK                         _______ _______ _______ _____ _____    ______ ____
ROOT
ATOM      3  O   UNL     1     -18.144   4.830  23.839  0.00  0.00    -0.371 OA
ATOM     10  C   UNL     1     -16.330   4.682  22.325  0.00  0.00    +0.111 C 
ATOM     11  C   UNL     1     -16.112   3.649  23.417  0.00  0.00    +0.164 C 
ATOM     12  C   UNL     1     -17.188   3.950  24.460  0.00  0.00    +0.165 C 
ATOM     13  C   UNL     1     -17.819   4.958  22.450  0.00  0.00    +0.181 C 
ENDROOT
BRANCH  11   4
ATOM      4  O   UNL     1     -16.357   2.360  22.852  0.00  0.00    -0.388 OA
ATOM     29  H   UNL     1     -15.531   1.852  22.919  0.00  0.00    +0.210 HD
ENDBRANCH  11   4
BRANCH  10   8
ATOM      8  N   UNL     1     -15.557   5.898  22.571  0.00  0.00    -0.305 NA
ATOM     28  H   UNL     1     -15.792   6.615  21.885  0.00  0.00    +0.123 HD
BRANCH   8  15
ATOM     15  C   UNL     1     -14.125   5.631  22.503  0.00  0.00    +0.116 C 
BRANCH  15  16
ATOM     16  C   UNL     1     -13.463   6.408  21.395  0.00  0.00    -0.033 A 
ATOM     18  C   UNL     1     -14.236   7.162  20.514  0.00  0.00    +0.007 A 
ATOM     19  C   UNL     1     -12.075   6.372  21.252  0.00  0.00    +0.007 A 
ATOM     20  C   UNL     1     -12.237   7.846  19.343  0.00  0.00    +0.088 A 
ATOM     21  C   UNL     1     -13.623   7.881  19.488  0.00  0.00    +0.027 A 
ATOM     22  C   UNL     1     -11.462   7.091  20.226  0.00  0.00    +0.027 A 
BRANCH  20   1
ATOM      1  S   UNL     1     -11.469   8.749  18.061  0.00  0.00    -0.006 S 
ATOM      6  O   UNL     1     -10.587   7.858  17.320  0.00  0.00    -0.170 OA
ATOM      7  O   UNL     1     -12.503   9.493  17.356  0.00  0.00    -0.170 OA
ATOM     24  C   UNL     1     -10.431   9.920  18.905  0.00  0.00    +0.200 C 
ENDBRANCH  20   1
ENDBRANCH  15  16
ENDBRANCH   8  15
ENDBRANCH  10   8
BRANCH  12  14
ATOM     14  C   UNL     1     -16.650   4.633  25.708  0.00  0.00    +0.138 C 
BRANCH  14   9
ATOM      5  O   UNL     1     -17.497   4.019  28.382  0.00  0.00    -0.270 OA
ATOM      9  N   UNL     1     -16.047   3.687  26.602  0.00  0.00    -0.308 N 
ATOM     17  C   UNL     1     -16.526   3.453  27.887  0.00  0.00    +0.251 C 
ATOM     30  H   UNL     1     -15.193   3.235  26.292  0.00  0.00    +0.149 HD
BRANCH  17  23
ATOM      2  S   UNL     1     -14.604   3.018  29.819  0.00  0.00    -0.092 S 
ATOM     23  C   UNL     1     -15.773   2.462  28.698  0.00  0.00    +0.074 A 
ATOM     25  C   UNL     1     -15.872   1.087  28.693  0.00  0.00    +0.021 A 
ATOM     26  C   UNL     1     -14.976   0.483  29.622  0.00  0.00    +0.008 A 
ATOM     27  C   UNL     1     -14.226   1.419  30.299  0.00  0.00    +0.046 A 
ENDBRANCH  17  23
ENDBRANCH  14   9
ENDBRANCH  12  14
TORSDOF 8
ENDMDL
MODEL 7
REMARK VINA RESULT:      -5.4     26.930     29.076
REMARK  Name = 75536604
REMARK  9 active torsions:
REMARK  status: ('A' for Active; 'I' for Inactive)
REMARK    1  A    between atoms: S_1  and  C_20
REMARK    2  A    between atoms: S_1  and  C_24
REMARK    3  A    between atoms: O_4  and  C_11
REMARK    4  A    between atoms: N_8  and  C_10
REMARK    5  A    between atoms: N_8  and  C_15
REMARK    6  A    between atoms: N_9  and  C_14
REMARK    7  A    between atoms: C_12  and  C_14
REMARK    8  A    between atoms: C_15  and  C_16
REMARK    9  A    between atoms: C_17  and  C_23
REMARK                            x       y       z     vdW  Elec       q    Type
REMARK                         _______ _______ _______ _____ _____    ______ ____
ROOT
ATOM      3  O   UNL     1      -7.992 -11.712  18.063  0.00  0.00    -0.371 OA
ATOM     10  C   UNL     1      -5.799 -11.922  18.927  0.00  0.00    +0.111 C 
ATOM     11  C   UNL     1      -6.162 -10.448  18.930  0.00  0.00    +0.164 C 
ATOM     12  C   UNL     1      -7.483 -10.369  18.164  0.00  0.00    +0.165 C 
ATOM     13  C   UNL     1      -7.167 -12.580  18.847  0.00  0.00    +0.181 C 
ENDROOT
BRANCH  11   4
ATOM      4  O   UNL     1      -6.385 -10.056  20.286  0.00  0.00    -0.388 OA
ATOM     29  H   UNL     1      -6.977  -9.285  20.272  0.00  0.00    +0.210 HD
ENDBRANCH  11   4
BRANCH  10   8
ATOM      8  N   UNL     1      -4.987 -12.276  17.765  0.00  0.00    -0.305 NA
ATOM     28  H   UNL     1      -4.557 -13.191  17.894  0.00  0.00    +0.123 HD
BRANCH   8  15
ATOM     15  C   UNL     1      -3.936 -11.290  17.540  0.00  0.00    +0.116 C 
BRANCH  15  16
ATOM     16  C   UNL     1      -3.648 -11.101  16.074  0.00  0.00    -0.033 A 
ATOM     18  C   UNL     1      -2.379 -10.701  15.658  0.00  0.00    +0.007 A 
ATOM     19  C   UNL     1      -4.652 -11.328  15.132  0.00  0.00    +0.007 A 
ATOM     20  C   UNL     1      -3.115 -10.752  13.358  0.00  0.00    +0.088 A 
ATOM     21  C   UNL     1      -2.113 -10.526  14.301  0.00  0.00    +0.027 A 
ATOM     22  C   UNL     1      -4.386 -11.153  13.774  0.00  0.00    +0.027 A 
BRANCH  20   1
ATOM      1  S   UNL     1      -2.781 -10.537  11.658  0.00  0.00    -0.006 S 
ATOM      6  O   UNL     1      -1.570  -9.740  11.513  0.00  0.00    -0.170 OA
ATOM      7  O   UNL     1      -2.869 -11.840  11.015  0.00  0.00    -0.170 OA
ATOM     24  C   UNL     1      -4.130  -9.542  11.065  0.00  0.00    +0.200 C 
ENDBRANCH  20   1
ENDBRANCH  15  16
ENDBRANCH   8  15
ENDBRANCH  10   8
BRANCH  12  14
ATOM     14  C   UNL     1      -7.337  -9.806  16.758  0.00  0.00    +0.138 C 
BRANCH  14   9
ATOM      5  O   UNL     1      -9.779 -10.237  15.310  0.00  0.00    -0.270 OA
ATOM      9  N   UNL     1      -8.351  -8.830  16.480  0.00  0.00    -0.308 N 
ATOM     17  C   UNL     1      -9.508  -9.129  15.766  0.00  0.00    +0.251 C 
ATOM     30  H   UNL     1      -8.163  -7.873  16.759  0.00  0.00    +0.149 HD
BRANCH  17  23
ATOM      2  S   UNL     1     -11.577  -8.103  14.254  0.00  0.00    -0.092 S 
ATOM     23  C   UNL     1     -10.448  -8.001  15.538  0.00  0.00    +0.074 A 
ATOM     25  C   UNL     1     -10.564  -6.819  16.236  0.00  0.00    +0.021 A 
ATOM     26  C   UNL     1     -11.593  -5.985  15.709  0.00  0.00    +0.008 A 
ATOM     27  C   UNL     1     -12.223  -6.563  14.628  0.00  0.00    +0.046 A 
ENDBRANCH  17  23
ENDBRANCH  14   9
ENDBRANCH  12  14
TORSDOF 8
ENDMDL
MODEL 8
REMARK VINA RESULT:      -5.3     26.906     29.129
REMARK  Name = 75536604
REMARK  9 active torsions:
REMARK  status: ('A' for Active; 'I' for Inactive)
REMARK    1  A    between atoms: S_1  and  C_20
REMARK    2  A    between atoms: S_1  and  C_24
REMARK    3  A    between atoms: O_4  and  C_11
REMARK    4  A    between atoms: N_8  and  C_10
REMARK    5  A    between atoms: N_8  and  C_15
REMARK    6  A    between atoms: N_9  and  C_14
REMARK    7  A    between atoms: C_12  and  C_14
REMARK    8  A    between atoms: C_15  and  C_16
REMARK    9  A    between atoms: C_17  and  C_23
REMARK                            x       y       z     vdW  Elec       q    Type
REMARK                         _______ _______ _______ _____ _____    ______ ____
ROOT
ATOM      3  O   UNL     1      -4.122 -12.138  15.314  0.00  0.00    -0.371 OA
ATOM     10  C   UNL     1      -2.080 -11.089  14.737  0.00  0.00    +0.111 C 
ATOM     11  C   UNL     1      -2.516 -10.551  16.089  0.00  0.00    +0.164 C 
ATOM     12  C   UNL     1      -3.929 -11.097  16.290  0.00  0.00    +0.165 C 
ATOM     13  C   UNL     1      -2.880 -12.377  14.642  0.00  0.00    +0.181 C 
ENDROOT
BRANCH  11   4
ATOM      4  O   UNL     1      -1.653 -11.113  17.080  0.00  0.00    -0.388 OA
ATOM     29  H   UNL     1      -1.704 -10.544  17.866  0.00  0.00    +0.210 HD
ENDBRANCH  11   4
BRANCH  10   8
ATOM      8  N   UNL     1      -2.438 -10.177  13.653  0.00  0.00    -0.305 NA
ATOM     28  H   UNL     1      -3.447 -10.181  13.502  0.00  0.00    +0.123 HD
BRANCH   8  15
ATOM     15  C   UNL     1      -1.774 -10.553  12.410  0.00  0.00    +0.116 C 
BRANCH  15  16
ATOM     16  C   UNL     1      -2.725 -10.545  11.242  0.00  0.00    -0.033 A 
ATOM     18  C   UNL     1      -2.887  -9.385  10.484  0.00  0.00    +0.007 A 
ATOM     19  C   UNL     1      -3.442 -11.697  10.918  0.00  0.00    +0.007 A 
ATOM     20  C   UNL     1      -4.485 -10.528   9.078  0.00  0.00    +0.088 A 
ATOM     21  C   UNL     1      -3.767  -9.377   9.403  0.00  0.00    +0.027 A 
ATOM     22  C   UNL     1      -4.322 -11.688   9.837  0.00  0.00    +0.027 A 
BRANCH  20   1
ATOM      1  S   UNL     1      -5.584 -10.518   7.722  0.00  0.00    -0.006 S 
ATOM      6  O   UNL     1      -6.335  -9.270   7.732  0.00  0.00    -0.170 OA
ATOM      7  O   UNL     1      -4.834 -10.900   6.534  0.00  0.00    -0.170 OA
ATOM     24  C   UNL     1      -6.741 -11.820   8.081  0.00  0.00    +0.200 C 
ENDBRANCH  20   1
ENDBRANCH  15  16
ENDBRANCH   8  15
ENDBRANCH  10   8
BRANCH  12  14
ATOM     14  C   UNL     1      -5.017 -10.052  16.097  0.00  0.00    +0.138 C 
BRANCH  14   9
ATOM      5  O   UNL     1      -7.822  -9.765  15.551  0.00  0.00    -0.270 OA
ATOM      9  N   UNL     1      -6.094 -10.242  17.025  0.00  0.00    -0.308 N 
ATOM     17  C   UNL     1      -7.431 -10.081  16.672  0.00  0.00    +0.251 C 
ATOM     30  H   UNL     1      -5.847 -10.429  17.991  0.00  0.00    +0.149 HD
BRANCH  17  23
ATOM      2  S   UNL     1      -8.018 -11.292  19.081  0.00  0.00    -0.092 S 
ATOM     23  C   UNL     1      -8.426 -10.287  17.755  0.00  0.00    +0.074 A 
ATOM     25  C   UNL     1      -9.697  -9.768  17.871  0.00  0.00    +0.021 A 
ATOM     26  C   UNL     1     -10.344 -10.202  19.065  0.00  0.00    +0.008 A 
ATOM     27  C   UNL     1      -9.543 -11.036  19.814  0.00  0.00    +0.046 A 
ENDBRANCH  17  23
ENDBRANCH  14   9
ENDBRANCH  12  14
TORSDOF 8
ENDMDL
MODEL 9
REMARK VINA RESULT:      -5.3     27.641     29.059
REMARK  Name = 75536604
REMARK  9 active torsions:
REMARK  status: ('A' for Active; 'I' for Inactive)
REMARK    1  A    between atoms: S_1  and  C_20
REMARK    2  A    between atoms: S_1  and  C_24
REMARK    3  A    between atoms: O_4  and  C_11
REMARK    4  A    between atoms: N_8  and  C_10
REMARK    5  A    between atoms: N_8  and  C_15
REMARK    6  A    between atoms: N_9  and  C_14
REMARK    7  A    between atoms: C_12  and  C_14
REMARK    8  A    between atoms: C_15  and  C_16
REMARK    9  A    between atoms: C_17  and  C_23
REMARK                            x       y       z     vdW  Elec       q    Type
REMARK                         _______ _______ _______ _____ _____    ______ ____
ROOT
ATOM      3  O   UNL     1      -6.583 -12.295  18.049  0.00  0.00    -0.371 OA
ATOM     10  C   UNL     1      -4.449 -12.220  17.026  0.00  0.00    +0.111 C 
ATOM     11  C   UNL     1      -4.267 -11.941  18.507  0.00  0.00    +0.164 C 
ATOM     12  C   UNL     1      -5.686 -11.787  19.054  0.00  0.00    +0.165 C 
ATOM     13  C   UNL     1      -5.812 -12.894  17.001  0.00  0.00    +0.181 C 
ENDROOT
BRANCH  11   4
ATOM      4  O   UNL     1      -3.662 -13.094  19.097  0.00  0.00    -0.388 OA
ATOM     29  H   UNL     1      -2.794 -12.823  19.441  0.00  0.00    +0.210 HD
ENDBRANCH  11   4
BRANCH  10   8
ATOM      8  N   UNL     1      -4.470 -10.986  16.243  0.00  0.00    -0.305 NA
ATOM     28  H   UNL     1      -5.307 -10.945  15.663  0.00  0.00    +0.123 HD
BRANCH   8  15
ATOM     15  C   UNL     1      -3.296 -10.893  15.382  0.00  0.00    +0.116 C 
BRANCH  15  16
ATOM     16  C   UNL     1      -3.671 -10.605  13.952  0.00  0.00    -0.033 A 
ATOM     18  C   UNL     1      -5.004 -10.373  13.615  0.00  0.00    +0.007 A 
ATOM     19  C   UNL     1      -2.685 -10.570  12.966  0.00  0.00    +0.007 A 
ATOM     20  C   UNL     1      -4.367 -10.072  11.304  0.00  0.00    +0.088 A 
ATOM     21  C   UNL     1      -5.352 -10.107  12.291  0.00  0.00    +0.027 A 
ATOM     22  C   UNL     1      -3.032 -10.304  11.642  0.00  0.00    +0.027 A 
BRANCH  20   1
ATOM      1  S   UNL     1      -4.802  -9.735   9.647  0.00  0.00    -0.006 S 
ATOM      6  O   UNL     1      -6.240  -9.520   9.572  0.00  0.00    -0.170 OA
ATOM      7  O   UNL     1      -3.891  -8.717   9.142  0.00  0.00    -0.170 OA
ATOM     24  C   UNL     1      -4.459 -11.252   8.783  0.00  0.00    +0.200 C 
ENDBRANCH  20   1
ENDBRANCH  15  16
ENDBRANCH   8  15
ENDBRANCH  10   8
BRANCH  12  14
ATOM     14  C   UNL     1      -6.069 -10.345  19.352  0.00  0.00    +0.138 C 
BRANCH  14   9
ATOM      5  O   UNL     1      -6.793  -9.210  16.816  0.00  0.00    -0.270 OA
ATOM      9  N   UNL     1      -7.396 -10.053  18.893  0.00  0.00    -0.308 N 
ATOM     17  C   UNL     1      -7.655  -9.499  17.642  0.00  0.00    +0.251 C 
ATOM     30  H   UNL     1      -8.156 -10.193  19.550  0.00  0.00    +0.149 HD
BRANCH  17  23
ATOM      2  S   UNL     1     -10.121 -10.546  16.976  0.00  0.00    -0.092 S 
ATOM     23  C   UNL     1      -9.082  -9.230  17.327  0.00  0.00    +0.074 A 
ATOM     25  C   UNL     1      -9.741  -8.022  17.270  0.00  0.00    +0.021 A 
ATOM     26  C   UNL     1     -11.117  -8.178  16.933  0.00  0.00    +0.008 A 
ATOM     27  C   UNL     1     -11.456  -9.500  16.745  0.00  0.00    +0.046 A 
ENDBRANCH  17  23
ENDBRANCH  14   9
ENDBRANCH  12  14
TORSDOF 8
ENDMDL
MODEL 10
REMARK VINA RESULT:      -5.3     25.481     28.040
REMARK  Name = 75536604
REMARK  9 active torsions:
REMARK  status: ('A' for Active; 'I' for Inactive)
REMARK    1  A    between atoms: S_1  and  C_20
REMARK    2  A    between atoms: S_1  and  C_24
REMARK    3  A    between atoms: O_4  and  C_11
REMARK    4  A    between atoms: N_8  and  C_10
REMARK    5  A    between atoms: N_8  and  C_15
REMARK    6  A    between atoms: N_9  and  C_14
REMARK    7  A    between atoms: C_12  and  C_14
REMARK    8  A    between atoms: C_15  and  C_16
REMARK    9  A    between atoms: C_17  and  C_23
REMARK                            x       y       z     vdW  Elec       q    Type
REMARK                         _______ _______ _______ _____ _____    ______ ____
ROOT
ATOM      3  O   UNL     1     -12.314   9.451  14.034  0.00  0.00    -0.371 OA
ATOM     10  C   UNL     1     -10.514   8.425  15.179  0.00  0.00    +0.111 C 
ATOM     11  C   UNL     1     -10.733   7.669  13.881  0.00  0.00    +0.164 C 
ATOM     12  C   UNL     1     -12.031   8.239  13.311  0.00  0.00    +0.165 C 
ATOM     13  C   UNL     1     -11.204   9.748  14.889  0.00  0.00    +0.181 C 
ENDROOT
BRANCH  11   4
ATOM      4  O   UNL     1      -9.655   7.991  13.001  0.00  0.00    -0.388 OA
ATOM     29  H   UNL     1      -9.029   7.248  13.024  0.00  0.00    +0.210 HD
ENDBRANCH  11   4
BRANCH  10   8
ATOM      8  N   UNL     1     -11.146   7.750  16.311  0.00  0.00    -0.305 NA
ATOM     28  H   UNL     1     -12.146   7.638  16.147  0.00  0.00    +0.123 HD
BRANCH   8  15
ATOM     15  C   UNL     1     -10.953   8.503  17.545  0.00  0.00    +0.116 C 
BRANCH  15  16
ATOM     16  C   UNL     1     -11.864   8.022  18.644  0.00  0.00    -0.033 A 
ATOM     18  C   UNL     1     -11.324   7.522  19.828  0.00  0.00    +0.007 A 
ATOM     19  C   UNL     1     -13.248   8.078  18.476  0.00  0.00    +0.007 A 
ATOM     20  C   UNL     1     -13.552   7.131  20.678  0.00  0.00    +0.088 A 
ATOM     21  C   UNL     1     -12.168   7.076  20.845  0.00  0.00    +0.027 A 
ATOM     22  C   UNL     1     -14.092   7.632  19.493  0.00  0.00    +0.027 A 
BRANCH  20   1
ATOM      1  S   UNL     1     -14.608   6.576  21.953  0.00  0.00    -0.006 S 
ATOM      6  O   UNL     1     -14.596   7.553  23.033  0.00  0.00    -0.170 OA
ATOM      7  O   UNL     1     -15.872   6.182  21.348  0.00  0.00    -0.170 OA
ATOM     24  C   UNL     1     -13.818   5.109  22.574  0.00  0.00    +0.200 C 
ENDBRANCH  20   1
ENDBRANCH  15  16
ENDBRANCH   8  15
ENDBRANCH  10   8
BRANCH  12  14
ATOM     14  C   UNL     1     -13.223   7.304  13.460  0.00  0.00    +0.138 C 
BRANCH  14   9
ATOM      5  O   UNL     1     -15.687   6.067  14.260  0.00  0.00    -0.270 OA
ATOM      9  N   UNL     1     -14.095   7.736  14.514  0.00  0.00    -0.308 N 
ATOM     17  C   UNL     1     -15.276   7.072  14.834  0.00  0.00    +0.251 C 
ATOM     30  H   UNL     1     -13.861   8.604  14.984  0.00  0.00    +0.149 HD
BRANCH  17  23
ATOM      2  S   UNL     1     -17.133   6.649  16.832  0.00  0.00    -0.092 S 
ATOM     23  C   UNL     1     -16.082   7.661  15.934  0.00  0.00    +0.074 A 
ATOM     25  C   UNL     1     -16.121   8.966  16.374  0.00  0.00    +0.021 A 
ATOM     26  C   UNL     1     -17.025   9.137  17.462  0.00  0.00    +0.008 A 
ATOM     27  C   UNL     1     -17.644   7.957  17.811  0.00  0.00    +0.046 A 
ENDBRANCH  17  23
ENDBRANCH  14   9
ENDBRANCH  12  14
TORSDOF 8
ENDMDL
