MODEL 1
REMARK VINA RESULT:      -6.8      0.000      0.000
REMARK  Name = 75368677
REMARK  5 active torsions:
REMARK  status: ('A' for Active; 'I' for Inactive)
REMARK    1  A    between atoms: O_6  and  C_25
REMARK    2  A    between atoms: O_6  and  C_28
REMARK    3  A    between atoms: N_8  and  C_12
REMARK    4  A    between atoms: N_9  and  C_19
REMARK    5  A    between atoms: C_19  and  C_22
REMARK                            x       y       z     vdW  Elec       q    Type
REMARK                         _______ _______ _______ _____ _____    ______ ____
ROOT
ATOM      5  O   UNL     1      -1.809 -10.827  15.630  0.00  0.00    -0.252 OA
ATOM      7  N   UNL     1      -2.928 -10.774  13.566  0.00  0.00    -0.278 N 
ATOM      8  N   UNL     1      -4.152 -10.633  15.443  0.00  0.00    -0.280 N 
ATOM      9  N   UNL     1      -3.484 -10.076  10.899  0.00  0.00    -0.295 NA
ATOM     10  C   UNL     1      -4.301 -10.794  13.106  0.00  0.00    +0.109 C 
ATOM     11  C   UNL     1      -5.108 -10.468  14.361  0.00  0.00    +0.133 C 
ATOM     13  C   UNL     1      -4.489  -9.814  11.949  0.00  0.00    +0.109 C 
ATOM     14  C   UNL     1      -1.855 -10.875  12.598  0.00  0.00    +0.125 C 
ATOM     15  C   UNL     1      -2.833 -10.758  14.963  0.00  0.00    +0.305 C 
ATOM     16  C   UNL     1      -2.115  -9.921  11.430  0.00  0.00    +0.104 C 
ENDROOT
BRANCH   8  12
ATOM      4  O   UNL     1      -6.127 -11.472  19.032  0.00  0.00    -0.380 OA
ATOM     12  C   UNL     1      -4.538 -10.522  16.827  0.00  0.00    +0.082 C 
ATOM     17  C   UNL     1      -4.196 -11.800  17.594  0.00  0.00    +0.050 C 
ATOM     18  C   UNL     1      -6.029 -10.206  16.961  0.00  0.00    +0.050 C 
ATOM     20  C   UNL     1      -4.722 -11.728  19.022  0.00  0.00    +0.161 C 
ATOM     21  C   UNL     1      -6.452 -10.222  18.425  0.00  0.00    +0.161 C 
ENDBRANCH   8  12
BRANCH   9  19
ATOM     19  C   UNL     1      -3.693  -9.183   9.759  0.00  0.00    +0.119 C 
BRANCH  19  22
ATOM     22  C   UNL     1      -5.060  -9.357   9.153  0.00  0.00    -0.030 A 
ATOM     23  C   UNL     1      -6.008  -8.339   9.267  0.00  0.00    +0.051 A 
ATOM     24  C   UNL     1      -5.380 -10.535   8.480  0.00  0.00    +0.005 A 
ATOM     25  C   UNL     1      -7.275  -8.500   8.706  0.00  0.00    +0.130 A 
ATOM     26  C   UNL     1      -6.647 -10.696   7.920  0.00  0.00    +0.004 A 
ATOM     27  C   UNL     1      -7.595  -9.678   8.033  0.00  0.00    +0.046 A 
BRANCH  25   6
ATOM      6  O   UNL     1      -8.199  -7.507   8.818  0.00  0.00    -0.406 OA
BRANCH   6  28
ATOM      1  F   UNL     1      -9.409  -5.922   7.760  0.00  0.00    -0.133 F 
ATOM      2  F   UNL     1      -7.797  -6.896   6.650  0.00  0.00    -0.133 F 
ATOM      3  F   UNL     1      -7.333  -5.462   8.267  0.00  0.00    -0.133 F 
ATOM     28  C   UNL     1      -8.167  -6.447   7.868  0.00  0.00    +0.575 C 
ENDBRANCH   6  28
ENDBRANCH  25   6
ENDBRANCH  19  22
ENDBRANCH   9  19
TORSDOF 5
ENDMDL
MODEL 2
REMARK VINA RESULT:      -6.7     21.223     23.479
REMARK  Name = 75368677
REMARK  5 active torsions:
REMARK  status: ('A' for Active; 'I' for Inactive)
REMARK    1  A    between atoms: O_6  and  C_25
REMARK    2  A    between atoms: O_6  and  C_28
REMARK    3  A    between atoms: N_8  and  C_12
REMARK    4  A    between atoms: N_9  and  C_19
REMARK    5  A    between atoms: C_19  and  C_22
REMARK                            x       y       z     vdW  Elec       q    Type
REMARK                         _______ _______ _______ _____ _____    ______ ____
ROOT
ATOM      5  O   UNL     1     -16.850   4.685  21.209  0.00  0.00    -0.252 OA
ATOM      7  N   UNL     1     -16.407   3.735  23.312  0.00  0.00    -0.278 N 
ATOM      8  N   UNL     1     -14.865   5.099  22.414  0.00  0.00    -0.280 N 
ATOM      9  N   UNL     1     -16.857   2.883  25.954  0.00  0.00    -0.295 NA
ATOM     10  C   UNL     1     -15.289   3.673  24.230  0.00  0.00    +0.109 C 
ATOM     11  C   UNL     1     -14.351   4.771  23.733  0.00  0.00    +0.133 C 
ATOM     13  C   UNL     1     -15.773   3.843  25.669  0.00  0.00    +0.109 C 
ATOM     14  C   UNL     1     -17.589   2.941  23.579  0.00  0.00    +0.125 C 
ATOM     15  C   UNL     1     -16.131   4.522  22.187  0.00  0.00    +0.305 C 
ATOM     16  C   UNL     1     -18.001   3.095  25.044  0.00  0.00    +0.104 C 
ENDROOT
BRANCH   8  12
ATOM      4  O   UNL     1     -12.335   8.204  21.213  0.00  0.00    -0.380 OA
ATOM     12  C   UNL     1     -14.194   6.031  21.543  0.00  0.00    +0.082 C 
ATOM     17  C   UNL     1     -12.679   5.828  21.590  0.00  0.00    +0.050 C 
ATOM     18  C   UNL     1     -14.547   7.475  21.901  0.00  0.00    +0.050 C 
ATOM     20  C   UNL     1     -11.968   6.897  20.769  0.00  0.00    +0.161 C 
ATOM     21  C   UNL     1     -13.732   8.451  21.062  0.00  0.00    +0.161 C 
ENDBRANCH   8  12
BRANCH   9  19
ATOM     19  C   UNL     1     -17.286   2.995  27.348  0.00  0.00    +0.119 C 
BRANCH  19  22
ATOM     22  C   UNL     1     -16.311   2.340  28.290  0.00  0.00    -0.030 A 
ATOM     23  C   UNL     1     -15.416   3.122  29.021  0.00  0.00    +0.051 A 
ATOM     24  C   UNL     1     -16.301   0.953  28.430  0.00  0.00    +0.005 A 
ATOM     25  C   UNL     1     -14.512   2.517  29.893  0.00  0.00    +0.130 A 
ATOM     26  C   UNL     1     -15.397   0.348  29.302  0.00  0.00    +0.004 A 
ATOM     27  C   UNL     1     -14.502   1.129  30.034  0.00  0.00    +0.046 A 
BRANCH  25   6
ATOM      6  O   UNL     1     -13.638   3.279  30.605  0.00  0.00    -0.406 OA
BRANCH   6  28
ATOM      1  F   UNL     1     -13.153   2.505  32.669  0.00  0.00    -0.133 F 
ATOM      2  F   UNL     1     -15.170   3.263  32.304  0.00  0.00    -0.133 F 
ATOM      3  F   UNL     1     -13.458   4.655  32.424  0.00  0.00    -0.133 F 
ATOM     28  C   UNL     1     -13.867   3.440  32.001  0.00  0.00    +0.575 C 
ENDBRANCH   6  28
ENDBRANCH  25   6
ENDBRANCH  19  22
ENDBRANCH   9  19
TORSDOF 5
ENDMDL
MODEL 3
REMARK VINA RESULT:      -6.6     27.348     28.671
REMARK  Name = 75368677
REMARK  5 active torsions:
REMARK  status: ('A' for Active; 'I' for Inactive)
REMARK    1  A    between atoms: O_6  and  C_25
REMARK    2  A    between atoms: O_6  and  C_28
REMARK    3  A    between atoms: N_8  and  C_12
REMARK    4  A    between atoms: N_9  and  C_19
REMARK    5  A    between atoms: C_19  and  C_22
REMARK                            x       y       z     vdW  Elec       q    Type
REMARK                         _______ _______ _______ _____ _____    ______ ____
ROOT
ATOM      5  O   UNL     1      11.049  10.810  25.241  0.00  0.00    -0.252 OA
ATOM      7  N   UNL     1      11.182  10.328  22.946  0.00  0.00    -0.278 N 
ATOM      8  N   UNL     1      11.654  12.417  23.624  0.00  0.00    -0.280 N 
ATOM      9  N   UNL     1      11.811   8.926  20.591  0.00  0.00    -0.295 NA
ATOM     10  C   UNL     1      11.385  11.070  21.720  0.00  0.00    +0.109 C 
ATOM     11  C   UNL     1      11.926  12.417  22.196  0.00  0.00    +0.133 C 
ATOM     13  C   UNL     1      12.313  10.301  20.780  0.00  0.00    +0.109 C 
ATOM     14  C   UNL     1      10.830   8.925  22.875  0.00  0.00    +0.125 C 
ATOM     15  C   UNL     1      11.263  11.143  24.083  0.00  0.00    +0.305 C 
ATOM     16  C   UNL     1      11.745   8.207  21.880  0.00  0.00    +0.104 C 
ENDROOT
BRANCH   8  12
ATOM      4  O   UNL     1      12.001  14.757  27.072  0.00  0.00    -0.380 OA
ATOM     12  C   UNL     1      11.915  13.567  24.451  0.00  0.00    +0.082 C 
ATOM     17  C   UNL     1      13.041  13.280  25.446  0.00  0.00    +0.050 C 
ATOM     18  C   UNL     1      10.654  14.013  25.193  0.00  0.00    +0.050 C 
ATOM     20  C   UNL     1      13.226  14.452  26.402  0.00  0.00    +0.161 C 
ATOM     21  C   UNL     1      10.972  15.144  26.163  0.00  0.00    +0.161 C 
ENDBRANCH   8  12
BRANCH   9  19
ATOM     19  C   UNL     1      12.658   8.199  19.645  0.00  0.00    +0.119 C 
BRANCH  19  22
ATOM     22  C   UNL     1      12.354   8.573  18.219  0.00  0.00    -0.030 A 
ATOM     23  C   UNL     1      13.382   8.993  17.374  0.00  0.00    +0.051 A 
ATOM     24  C   UNL     1      11.046   8.500  17.742  0.00  0.00    +0.005 A 
ATOM     25  C   UNL     1      13.101   9.340  16.053  0.00  0.00    +0.130 A 
ATOM     26  C   UNL     1      10.765   8.846  16.421  0.00  0.00    +0.004 A 
ATOM     27  C   UNL     1      11.793   9.266  15.575  0.00  0.00    +0.046 A 
BRANCH  25   6
ATOM      6  O   UNL     1      14.104   9.750  15.229  0.00  0.00    -0.406 OA
BRANCH   6  28
ATOM      1  F   UNL     1      15.723  11.299  14.950  0.00  0.00    -0.133 F 
ATOM      2  F   UNL     1      14.090  11.758  16.328  0.00  0.00    -0.133 F 
ATOM      3  F   UNL     1      13.737  11.732  14.146  0.00  0.00    -0.133 F 
ATOM     28  C   UNL     1      14.396  11.142  15.166  0.00  0.00    +0.575 C 
ENDBRANCH   6  28
ENDBRANCH  25   6
ENDBRANCH  19  22
ENDBRANCH   9  19
TORSDOF 5
ENDMDL
MODEL 4
REMARK VINA RESULT:      -6.6     24.766     28.667
REMARK  Name = 75368677
REMARK  5 active torsions:
REMARK  status: ('A' for Active; 'I' for Inactive)
REMARK    1  A    between atoms: O_6  and  C_25
REMARK    2  A    between atoms: O_6  and  C_28
REMARK    3  A    between atoms: N_8  and  C_12
REMARK    4  A    between atoms: N_9  and  C_19
REMARK    5  A    between atoms: C_19  and  C_22
REMARK                            x       y       z     vdW  Elec       q    Type
REMARK                         _______ _______ _______ _____ _____    ______ ____
ROOT
ATOM      5  O   UNL     1     -17.089   4.058  32.453  0.00  0.00    -0.252 OA
ATOM      7  N   UNL     1     -15.322   5.462  33.106  0.00  0.00    -0.278 N 
ATOM      8  N   UNL     1     -14.822   3.541  32.056  0.00  0.00    -0.280 N 
ATOM      9  N   UNL     1     -13.860   7.833  33.492  0.00  0.00    -0.295 NA
ATOM     10  C   UNL     1     -13.876   5.398  33.136  0.00  0.00    +0.109 C 
ATOM     11  C   UNL     1     -13.547   4.216  32.226  0.00  0.00    +0.133 C 
ATOM     13  C   UNL     1     -13.275   6.733  32.698  0.00  0.00    +0.109 C 
ATOM     14  C   UNL     1     -15.995   6.583  33.729  0.00  0.00    +0.125 C 
ATOM     15  C   UNL     1     -15.896   4.320  32.533  0.00  0.00    +0.305 C 
ATOM     16  C   UNL     1     -15.324   7.893  33.310  0.00  0.00    +0.104 C 
ENDROOT
BRANCH   8  12
ATOM      4  O   UNL     1     -13.807  -0.255  30.623  0.00  0.00    -0.380 OA
ATOM     12  C   UNL     1     -14.937   2.295  31.341  0.00  0.00    +0.082 C 
ATOM     17  C   UNL     1     -14.912   1.108  32.305  0.00  0.00    +0.050 C 
ATOM     18  C   UNL     1     -13.829   2.153  30.296  0.00  0.00    +0.050 C 
ATOM     20  C   UNL     1     -14.903  -0.209  31.538  0.00  0.00    +0.161 C 
ATOM     21  C   UNL     1     -13.882   0.778  29.641  0.00  0.00    +0.161 C 
ENDBRANCH   8  12
BRANCH   9  19
ATOM     19  C   UNL     1     -13.247   9.109  33.123  0.00  0.00    +0.119 C 
BRANCH  19  22
ATOM     22  C   UNL     1     -11.928   9.319  33.818  0.00  0.00    -0.030 A 
ATOM     23  C   UNL     1     -11.819   9.092  35.191  0.00  0.00    +0.051 A 
ATOM     24  C   UNL     1     -10.816   9.743  33.092  0.00  0.00    +0.005 A 
ATOM     25  C   UNL     1     -10.598   9.287  35.836  0.00  0.00    +0.130 A 
ATOM     26  C   UNL     1      -9.595   9.938  33.737  0.00  0.00    +0.004 A 
ATOM     27  C   UNL     1      -9.486   9.710  35.109  0.00  0.00    +0.046 A 
BRANCH  25   6
ATOM      6  O   UNL     1     -10.493   9.066  37.174  0.00  0.00    -0.406 OA
BRANCH   6  28
ATOM      1  F   UNL     1      -9.958   7.775  38.947  0.00  0.00    -0.133 F 
ATOM      2  F   UNL     1      -9.119   7.245  37.000  0.00  0.00    -0.133 F 
ATOM      3  F   UNL     1     -11.267   6.927  37.416  0.00  0.00    -0.133 F 
ATOM     28  C   UNL     1     -10.211   7.744  37.618  0.00  0.00    +0.575 C 
ENDBRANCH   6  28
ENDBRANCH  25   6
ENDBRANCH  19  22
ENDBRANCH   9  19
TORSDOF 5
ENDMDL
MODEL 5
REMARK VINA RESULT:      -6.4      3.972      6.596
REMARK  Name = 75368677
REMARK  5 active torsions:
REMARK  status: ('A' for Active; 'I' for Inactive)
REMARK    1  A    between atoms: O_6  and  C_25
REMARK    2  A    between atoms: O_6  and  C_28
REMARK    3  A    between atoms: N_8  and  C_12
REMARK    4  A    between atoms: N_9  and  C_19
REMARK    5  A    between atoms: C_19  and  C_22
REMARK                            x       y       z     vdW  Elec       q    Type
REMARK                         _______ _______ _______ _____ _____    ______ ____
ROOT
ATOM      5  O   UNL     1      -8.392 -11.033  20.058  0.00  0.00    -0.252 OA
ATOM      7  N   UNL     1      -6.934 -11.336  18.241  0.00  0.00    -0.278 N 
ATOM      8  N   UNL     1      -8.832 -10.186  17.901  0.00  0.00    -0.280 N 
ATOM      9  N   UNL     1      -4.518 -11.449  16.805  0.00  0.00    -0.295 NA
ATOM     10  C   UNL     1      -6.950 -11.077  16.817  0.00  0.00    +0.109 C 
ATOM     11  C   UNL     1      -8.116 -10.106  16.639  0.00  0.00    +0.133 C 
ATOM     13  C   UNL     1      -5.594 -10.543  16.357  0.00  0.00    +0.109 C 
ATOM     14  C   UNL     1      -5.838 -12.093  18.811  0.00  0.00    +0.125 C 
ATOM     15  C   UNL     1      -8.091 -10.876  18.881  0.00  0.00    +0.305 C 
ATOM     16  C   UNL     1      -4.505 -11.563  18.278  0.00  0.00    +0.104 C 
ENDROOT
BRANCH   8  12
ATOM      4  O   UNL     1     -12.885  -9.223  17.539  0.00  0.00    -0.380 OA
ATOM     12  C   UNL     1     -10.078  -9.495  18.117  0.00  0.00    +0.082 C 
ATOM     17  C   UNL     1     -11.131 -10.436  18.703  0.00  0.00    +0.050 C 
ATOM     18  C   UNL     1     -10.592  -8.864  16.822  0.00  0.00    +0.050 C 
ATOM     20  C   UNL     1     -12.480  -9.736  18.808  0.00  0.00    +0.161 C 
ATOM     21  C   UNL     1     -11.971  -8.251  17.034  0.00  0.00    +0.161 C 
ENDBRANCH   8  12
BRANCH   9  19
ATOM     19  C   UNL     1      -3.220 -10.980  16.318  0.00  0.00    +0.119 C 
BRANCH  19  22
ATOM     22  C   UNL     1      -2.911 -11.513  14.945  0.00  0.00    -0.030 A 
ATOM     23  C   UNL     1      -2.566 -10.634  13.918  0.00  0.00    +0.051 A 
ATOM     24  C   UNL     1      -2.970 -12.884  14.698  0.00  0.00    +0.005 A 
ATOM     25  C   UNL     1      -2.279 -11.127  12.645  0.00  0.00    +0.130 A 
ATOM     26  C   UNL     1      -2.684 -13.377  13.426  0.00  0.00    +0.004 A 
ATOM     27  C   UNL     1      -2.338 -12.498  12.398  0.00  0.00    +0.046 A 
BRANCH  25   6
ATOM      6  O   UNL     1      -1.943 -10.269  11.643  0.00  0.00    -0.406 OA
BRANCH   6  28
ATOM      1  F   UNL     1      -3.358 -10.849   9.982  0.00  0.00    -0.133 F 
ATOM      2  F   UNL     1      -2.529  -8.827   9.966  0.00  0.00    -0.133 F 
ATOM      3  F   UNL     1      -4.052  -9.399  11.463  0.00  0.00    -0.133 F 
ATOM     28  C   UNL     1      -2.972  -9.818  10.768  0.00  0.00    +0.575 C 
ENDBRANCH   6  28
ENDBRANCH  25   6
ENDBRANCH  19  22
ENDBRANCH   9  19
TORSDOF 5
ENDMDL
MODEL 6
REMARK VINA RESULT:      -6.4      5.066      8.192
REMARK  Name = 75368677
REMARK  5 active torsions:
REMARK  status: ('A' for Active; 'I' for Inactive)
REMARK    1  A    between atoms: O_6  and  C_25
REMARK    2  A    between atoms: O_6  and  C_28
REMARK    3  A    between atoms: N_8  and  C_12
REMARK    4  A    between atoms: N_9  and  C_19
REMARK    5  A    between atoms: C_19  and  C_22
REMARK                            x       y       z     vdW  Elec       q    Type
REMARK                         _______ _______ _______ _____ _____    ______ ____
ROOT
ATOM      5  O   UNL     1     -11.022  -9.221  19.020  0.00  0.00    -0.252 OA
ATOM      7  N   UNL     1      -9.097  -9.999  17.922  0.00  0.00    -0.278 N 
ATOM      8  N   UNL     1     -10.388  -8.494  16.868  0.00  0.00    -0.280 N 
ATOM      9  N   UNL     1      -6.418 -10.768  17.551  0.00  0.00    -0.295 NA
ATOM     10  C   UNL     1      -8.505  -9.870  16.607  0.00  0.00    +0.109 C 
ATOM     11  C   UNL     1      -9.247  -8.687  15.990  0.00  0.00    +0.133 C 
ATOM     13  C   UNL     1      -6.991  -9.691  16.720  0.00  0.00    +0.109 C 
ATOM     14  C   UNL     1      -8.517 -10.925  18.873  0.00  0.00    +0.125 C 
ATOM     15  C   UNL     1     -10.267  -9.240  18.057  0.00  0.00    +0.305 C 
ATOM     16  C   UNL     1      -6.997 -10.751  18.909  0.00  0.00    +0.104 C 
ENDROOT
BRANCH   8  12
ATOM      4  O   UNL     1     -13.334  -6.438  14.728  0.00  0.00    -0.380 OA
ATOM     12  C   UNL     1     -11.419  -7.529  16.580  0.00  0.00    +0.082 C 
ATOM     17  C   UNL     1     -12.745  -8.223  16.268  0.00  0.00    +0.050 C 
ATOM     18  C   UNL     1     -11.013  -6.615  15.423  0.00  0.00    +0.050 C 
ATOM     20  C   UNL     1     -13.797  -7.207  15.839  0.00  0.00    +0.161 C 
ATOM     21  C   UNL     1     -12.162  -5.688  15.042  0.00  0.00    +0.161 C 
ENDBRANCH   8  12
BRANCH   9  19
ATOM     19  C   UNL     1      -4.961 -10.642  17.616  0.00  0.00    +0.119 C 
BRANCH  19  22
ATOM     22  C   UNL     1      -4.282 -11.405  16.509  0.00  0.00    -0.030 A 
ATOM     23  C   UNL     1      -3.287 -10.790  15.748  0.00  0.00    +0.051 A 
ATOM     24  C   UNL     1      -4.648 -12.723  16.244  0.00  0.00    +0.005 A 
ATOM     25  C   UNL     1      -2.658 -11.496  14.723  0.00  0.00    +0.130 A 
ATOM     26  C   UNL     1      -4.019 -13.429  15.219  0.00  0.00    +0.004 A 
ATOM     27  C   UNL     1      -3.023 -12.815  14.458  0.00  0.00    +0.046 A 
BRANCH  25   6
ATOM      6  O   UNL     1      -1.688 -10.896  13.981  0.00  0.00    -0.406 OA
BRANCH   6  28
ATOM      1  F   UNL     1      -1.900 -11.542  11.828  0.00  0.00    -0.133 F 
ATOM      2  F   UNL     1      -1.161  -9.524  12.227  0.00  0.00    -0.133 F 
ATOM      3  F   UNL     1      -3.283 -10.030  12.588  0.00  0.00    -0.133 F 
ATOM     28  C   UNL     1      -2.011 -10.480  12.659  0.00  0.00    +0.575 C 
ENDBRANCH   6  28
ENDBRANCH  25   6
ENDBRANCH  19  22
ENDBRANCH   9  19
TORSDOF 5
ENDMDL
MODEL 7
REMARK VINA RESULT:      -6.3      7.358     11.133
REMARK  Name = 75368677
REMARK  5 active torsions:
REMARK  status: ('A' for Active; 'I' for Inactive)
REMARK    1  A    between atoms: O_6  and  C_25
REMARK    2  A    between atoms: O_6  and  C_28
REMARK    3  A    between atoms: N_8  and  C_12
REMARK    4  A    between atoms: N_9  and  C_19
REMARK    5  A    between atoms: C_19  and  C_22
REMARK                            x       y       z     vdW  Elec       q    Type
REMARK                         _______ _______ _______ _____ _____    ______ ____
ROOT
ATOM      5  O   UNL     1     -12.432  -8.665  12.767  0.00  0.00    -0.252 OA
ATOM      7  N   UNL     1     -11.237  -8.538  14.785  0.00  0.00    -0.278 N 
ATOM      8  N   UNL     1     -12.117  -6.649  13.949  0.00  0.00    -0.280 N 
ATOM      9  N   UNL     1     -10.370  -9.228  17.370  0.00  0.00    -0.295 NA
ATOM     10  C   UNL     1     -10.761  -7.494  15.668  0.00  0.00    +0.109 C 
ATOM     11  C   UNL     1     -11.547  -6.261  15.228  0.00  0.00    +0.133 C 
ATOM     13  C   UNL     1     -10.965  -7.898  17.128  0.00  0.00    +0.109 C 
ATOM     14  C   UNL     1     -10.831  -9.908  15.024  0.00  0.00    +0.125 C 
ATOM     15  C   UNL     1     -11.981  -8.031  13.712  0.00  0.00    +0.305 C 
ATOM     16  C   UNL     1     -10.996 -10.250  16.507  0.00  0.00    +0.104 C 
ENDROOT
BRANCH   8  12
ATOM      4  O   UNL     1     -14.171  -3.175  12.852  0.00  0.00    -0.380 OA
ATOM     12  C   UNL     1     -12.856  -5.722  13.130  0.00  0.00    +0.082 C 
ATOM     17  C   UNL     1     -12.083  -4.415  12.950  0.00  0.00    +0.050 C 
ATOM     18  C   UNL     1     -14.239  -5.443  13.721  0.00  0.00    +0.050 C 
ATOM     20  C   UNL     1     -12.922  -3.392  12.193  0.00  0.00    +0.161 C 
ATOM     21  C   UNL     1     -14.958  -4.363  12.921  0.00  0.00    +0.161 C 
ENDBRANCH   8  12
BRANCH   9  19
ATOM     19  C   UNL     1     -10.505  -9.599  18.779  0.00  0.00    +0.119 C 
BRANCH  19  22
ATOM     22  C   UNL     1      -9.707 -10.831  19.114  0.00  0.00    -0.030 A 
ATOM     23  C   UNL     1      -8.373 -10.927  18.716  0.00  0.00    +0.051 A 
ATOM     24  C   UNL     1     -10.301 -11.875  19.821  0.00  0.00    +0.005 A 
ATOM     25  C   UNL     1      -7.634 -12.068  19.026  0.00  0.00    +0.130 A 
ATOM     26  C   UNL     1      -9.561 -13.016  20.131  0.00  0.00    +0.004 A 
ATOM     27  C   UNL     1      -8.227 -13.113  19.734  0.00  0.00    +0.046 A 
BRANCH  25   6
ATOM      6  O   UNL     1      -6.333 -12.161  18.637  0.00  0.00    -0.406 OA
BRANCH   6  28
ATOM      1  F   UNL     1      -4.255 -12.206  19.517  0.00  0.00    -0.133 F 
ATOM      2  F   UNL     1      -5.807 -11.119  20.604  0.00  0.00    -0.133 F 
ATOM      3  F   UNL     1      -4.991 -10.310  18.716  0.00  0.00    -0.133 F 
ATOM     28  C   UNL     1      -5.356 -11.433  19.372  0.00  0.00    +0.575 C 
ENDBRANCH   6  28
ENDBRANCH  25   6
ENDBRANCH  19  22
ENDBRANCH   9  19
TORSDOF 5
ENDMDL
MODEL 8
REMARK VINA RESULT:      -6.3     25.103     27.406
REMARK  Name = 75368677
REMARK  5 active torsions:
REMARK  status: ('A' for Active; 'I' for Inactive)
REMARK    1  A    between atoms: O_6  and  C_25
REMARK    2  A    between atoms: O_6  and  C_28
REMARK    3  A    between atoms: N_8  and  C_12
REMARK    4  A    between atoms: N_9  and  C_19
REMARK    5  A    between atoms: C_19  and  C_22
REMARK                            x       y       z     vdW  Elec       q    Type
REMARK                         _______ _______ _______ _____ _____    ______ ____
ROOT
ATOM      5  O   UNL     1      17.363   9.541   2.608  0.00  0.00    -0.252 OA
ATOM      7  N   UNL     1      15.528   8.457   3.595  0.00  0.00    -0.278 N 
ATOM      8  N   UNL     1      17.490   8.433   4.687  0.00  0.00    -0.280 N 
ATOM      9  N   UNL     1      12.886   8.031   4.462  0.00  0.00    -0.295 NA
ATOM     10  C   UNL     1      15.293   7.607   4.744  0.00  0.00    +0.109 C 
ATOM     11  C   UNL     1      16.553   7.785   5.589  0.00  0.00    +0.133 C 
ATOM     13  C   UNL     1      13.992   8.000   5.441  0.00  0.00    +0.109 C 
ATOM     14  C   UNL     1      14.456   8.675   2.646  0.00  0.00    +0.125 C 
ATOM     15  C   UNL     1      16.857   8.889   3.513  0.00  0.00    +0.305 C 
ATOM     16  C   UNL     1      13.160   9.008   3.389  0.00  0.00    +0.104 C 
ENDROOT
BRANCH   8  12
ATOM      4  O   UNL     1      21.303   7.765   6.267  0.00  0.00    -0.380 OA
ATOM     12  C   UNL     1      18.858   8.689   5.061  0.00  0.00    +0.082 C 
ATOM     17  C   UNL     1      19.808   7.723   4.352  0.00  0.00    +0.050 C 
ATOM     18  C   UNL     1      19.043   8.598   6.576  0.00  0.00    +0.050 C 
ATOM     20  C   UNL     1      21.237   7.912   4.848  0.00  0.00    +0.161 C 
ATOM     21  C   UNL     1      20.514   8.739   6.947  0.00  0.00    +0.161 C 
ENDBRANCH   8  12
BRANCH   9  19
ATOM     19  C   UNL     1      11.623   8.346   5.129  0.00  0.00    +0.119 C 
BRANCH  19  22
ATOM     22  C   UNL     1      10.939   7.110   5.650  0.00  0.00    -0.030 A 
ATOM     23  C   UNL     1      11.130   6.714   6.974  0.00  0.00    +0.051 A 
ATOM     24  C   UNL     1      10.117   6.361   4.809  0.00  0.00    +0.005 A 
ATOM     25  C   UNL     1      10.497   5.569   7.457  0.00  0.00    +0.130 A 
ATOM     26  C   UNL     1       9.485   5.216   5.292  0.00  0.00    +0.004 A 
ATOM     27  C   UNL     1       9.674   4.819   6.617  0.00  0.00    +0.046 A 
BRANCH  25   6
ATOM      6  O   UNL     1      10.683   5.182   8.749  0.00  0.00    -0.406 OA
BRANCH   6  28
ATOM      1  F   UNL     1       8.632   5.887   9.374  0.00  0.00    -0.133 F 
ATOM      2  F   UNL     1       9.849   4.828  10.850  0.00  0.00    -0.133 F 
ATOM      3  F   UNL     1       8.955   3.737   9.147  0.00  0.00    -0.133 F 
ATOM     28  C   UNL     1       9.535   4.893   9.538  0.00  0.00    +0.575 C 
ENDBRANCH   6  28
ENDBRANCH  25   6
ENDBRANCH  19  22
ENDBRANCH   9  19
TORSDOF 5
ENDMDL
MODEL 9
REMARK VINA RESULT:      -6.2      5.414      7.868
REMARK  Name = 75368677
REMARK  5 active torsions:
REMARK  status: ('A' for Active; 'I' for Inactive)
REMARK    1  A    between atoms: O_6  and  C_25
REMARK    2  A    between atoms: O_6  and  C_28
REMARK    3  A    between atoms: N_8  and  C_12
REMARK    4  A    between atoms: N_9  and  C_19
REMARK    5  A    between atoms: C_19  and  C_22
REMARK                            x       y       z     vdW  Elec       q    Type
REMARK                         _______ _______ _______ _____ _____    ______ ____
ROOT
ATOM      5  O   UNL     1      -4.763 -11.785  18.318  0.00  0.00    -0.252 OA
ATOM      7  N   UNL     1      -6.628 -10.435  17.852  0.00  0.00    -0.278 N 
ATOM      8  N   UNL     1      -5.028 -10.617  16.286  0.00  0.00    -0.280 N 
ATOM      9  N   UNL     1      -9.321  -9.638  17.708  0.00  0.00    -0.295 NA
ATOM     10  C   UNL     1      -7.034  -9.515  16.810  0.00  0.00    +0.109 C 
ATOM     11  C   UNL     1      -6.070  -9.818  15.664  0.00  0.00    +0.133 C 
ATOM     13  C   UNL     1      -8.512  -9.709  16.475  0.00  0.00    +0.109 C 
ATOM     14  C   UNL     1      -7.438 -10.553  19.047  0.00  0.00    +0.125 C 
ATOM     15  C   UNL     1      -5.392 -11.037  17.582  0.00  0.00    +0.305 C 
ATOM     16  C   UNL     1      -8.914 -10.686  18.666  0.00  0.00    +0.104 C 
ENDROOT
BRANCH   8  12
ATOM      4  O   UNL     1      -1.541 -10.329  13.997  0.00  0.00    -0.380 OA
ATOM     12  C   UNL     1      -3.851 -11.031  15.566  0.00  0.00    +0.082 C 
ATOM     17  C   UNL     1      -2.591 -10.425  16.186  0.00  0.00    +0.050 C 
ATOM     18  C   UNL     1      -3.947 -10.656  14.087  0.00  0.00    +0.050 C 
ATOM     20  C   UNL     1      -1.363 -10.759  15.347  0.00  0.00    +0.161 C 
ATOM     21  C   UNL     1      -2.644 -10.978  13.365  0.00  0.00    +0.161 C 
ENDBRANCH   8  12
BRANCH   9  19
ATOM     19  C   UNL     1     -10.744  -9.762  17.391  0.00  0.00    +0.119 C 
BRANCH  19  22
ATOM     22  C   UNL     1     -11.288  -8.510  16.756  0.00  0.00    -0.030 A 
ATOM     23  C   UNL     1     -12.434  -8.573  15.962  0.00  0.00    +0.051 A 
ATOM     24  C   UNL     1     -10.648  -7.289  16.961  0.00  0.00    +0.005 A 
ATOM     25  C   UNL     1     -12.938  -7.414  15.372  0.00  0.00    +0.130 A 
ATOM     26  C   UNL     1     -11.152  -6.130  16.371  0.00  0.00    +0.004 A 
ATOM     27  C   UNL     1     -12.298  -6.192  15.577  0.00  0.00    +0.046 A 
BRANCH  25   6
ATOM      6  O   UNL     1     -14.055  -7.475  14.597  0.00  0.00    -0.406 OA
BRANCH   6  28
ATOM      1  F   UNL     1     -15.450  -5.703  14.675  0.00  0.00    -0.133 F 
ATOM      2  F   UNL     1     -15.236  -6.921  16.477  0.00  0.00    -0.133 F 
ATOM      3  F   UNL     1     -16.328  -7.704  14.722  0.00  0.00    -0.133 F 
ATOM     28  C   UNL     1     -15.273  -6.965  15.128  0.00  0.00    +0.575 C 
ENDBRANCH   6  28
ENDBRANCH  25   6
ENDBRANCH  19  22
ENDBRANCH   9  19
TORSDOF 5
ENDMDL
MODEL 10
REMARK VINA RESULT:      -6.2      6.017      9.666
REMARK  Name = 75368677
REMARK  5 active torsions:
REMARK  status: ('A' for Active; 'I' for Inactive)
REMARK    1  A    between atoms: O_6  and  C_25
REMARK    2  A    between atoms: O_6  and  C_28
REMARK    3  A    between atoms: N_8  and  C_12
REMARK    4  A    between atoms: N_9  and  C_19
REMARK    5  A    between atoms: C_19  and  C_22
REMARK                            x       y       z     vdW  Elec       q    Type
REMARK                         _______ _______ _______ _____ _____    ______ ____
ROOT
ATOM      5  O   UNL     1     -11.901  -8.397  13.395  0.00  0.00    -0.252 OA
ATOM      7  N   UNL     1     -10.264  -8.516  15.074  0.00  0.00    -0.278 N 
ATOM      8  N   UNL     1     -11.725  -6.812  15.133  0.00  0.00    -0.280 N 
ATOM      9  N   UNL     1      -8.603  -9.641  17.046  0.00  0.00    -0.295 NA
ATOM     10  C   UNL     1      -9.805  -7.682  16.166  0.00  0.00    +0.109 C 
ATOM     11  C   UNL     1     -10.929  -6.663  16.340  0.00  0.00    +0.133 C 
ATOM     13  C   UNL     1      -9.515  -8.535  17.401  0.00  0.00    +0.109 C 
ATOM     14  C   UNL     1      -9.521  -9.713  14.737  0.00  0.00    +0.125 C 
ATOM     15  C   UNL     1     -11.361  -7.962  14.404  0.00  0.00    +0.305 C 
ATOM     16  C   UNL     1      -9.201 -10.504  16.008  0.00  0.00    +0.104 C 
ENDROOT
BRANCH   8  12
ATOM      4  O   UNL     1     -14.909  -5.111  13.022  0.00  0.00    -0.380 OA
ATOM     12  C   UNL     1     -12.841  -5.948  14.843  0.00  0.00    +0.082 C 
ATOM     17  C   UNL     1     -14.118  -6.760  14.622  0.00  0.00    +0.050 C 
ATOM     18  C   UNL     1     -12.556  -5.067  13.625  0.00  0.00    +0.050 C 
ATOM     20  C   UNL     1     -15.264  -5.854  14.188  0.00  0.00    +0.161 C 
ATOM     21  C   UNL     1     -13.789  -4.255  13.249  0.00  0.00    +0.161 C 
ENDBRANCH   8  12
BRANCH   9  19
ATOM     19  C   UNL     1      -8.269 -10.428  18.233  0.00  0.00    +0.119 C 
BRANCH  19  22
ATOM     22  C   UNL     1      -6.809 -10.791  18.273  0.00  0.00    -0.030 A 
ATOM     23  C   UNL     1      -5.940 -10.294  17.301  0.00  0.00    +0.051 A 
ATOM     24  C   UNL     1      -6.324 -11.624  19.281  0.00  0.00    +0.005 A 
ATOM     25  C   UNL     1      -4.587 -10.631  17.337  0.00  0.00    +0.130 A 
ATOM     26  C   UNL     1      -4.971 -11.960  19.317  0.00  0.00    +0.004 A 
ATOM     27  C   UNL     1      -4.102 -11.463  18.345  0.00  0.00    +0.046 A 
BRANCH  25   6
ATOM      6  O   UNL     1      -3.740 -10.147  16.388  0.00  0.00    -0.406 OA
BRANCH   6  28
ATOM      1  F   UNL     1      -2.524 -10.581  14.536  0.00  0.00    -0.133 F 
ATOM      2  F   UNL     1      -4.667 -10.226  14.297  0.00  0.00    -0.133 F 
ATOM      3  F   UNL     1      -3.940 -12.101  15.215  0.00  0.00    -0.133 F 
ATOM     28  C   UNL     1      -3.735 -10.770  15.108  0.00  0.00    +0.575 C 
ENDBRANCH   6  28
ENDBRANCH  25   6
ENDBRANCH  19  22
ENDBRANCH   9  19
TORSDOF 5
ENDMDL
