REMARK  Name = 11941655
REMARK  7 active torsions:
REMARK  status: ('A' for Active; 'I' for Inactive)
REMARK    1  A    between atoms: O_4  and  C_28
REMARK    2  A    between atoms: O_4  and  C_29
REMARK    3  A    between atoms: N_5  and  C_12
REMARK    4  A    between atoms: N_6  and  C_13
REMARK    5  A    between atoms: N_7  and  C_18
REMARK    6  A    between atoms: C_18  and  C_23
REMARK    7  A    between atoms: C_19  and  C_22
REMARK                            x       y       z     vdW  Elec       q    Type
REMARK                         _______ _______ _______ _____ _____    ______ ____
ROOT
ATOM      5  N   UNL     1       0.278  -2.520   0.460  0.00  0.00    -0.306 N 
ATOM      8  N   UNL     1      -1.711  -1.382  -0.047  0.00  0.00    -0.214 NA
ATOM      9  N   UNL     1      -1.091  -3.381  -1.240  0.00  0.00    -0.223 NA
ATOM     16  C   UNL     1      -0.875  -2.425  -0.298  0.00  0.00    +0.216 A 
ATOM     19  C   UNL     1      -2.825  -1.320  -0.804  0.00  0.00    +0.076 A 
ATOM     20  C   UNL     1      -2.224  -3.258  -1.961  0.00  0.00    +0.116 A 
ATOM     21  C   UNL     1      -3.137  -2.238  -1.786  0.00  0.00    +0.048 A 
ATOM     30  H   UNL     1       0.918  -3.271   0.228  0.00  0.00    +0.149 HD
ENDROOT
BRANCH   5  12
ATOM      1  O   UNL     1       2.968  -1.860   1.840  0.00  0.00    -0.370 OA
ATOM      2  O   UNL     1       1.260   0.749   1.756  0.00  0.00    -0.370 OA
ATOM     10  C   UNL     1       1.356  -0.393   0.888  0.00  0.00    +0.171 C 
ATOM     11  C   UNL     1       2.811  -0.818   0.863  0.00  0.00    +0.171 C 
ATOM     12  C   UNL     1       0.636  -1.574   1.494  0.00  0.00    +0.130 C 
ATOM     13  C   UNL     1       3.563   0.421   1.291  0.00  0.00    +0.131 C 
ATOM     14  C   UNL     1       1.688  -2.171   2.410  0.00  0.00    +0.185 C 
ATOM     15  C   UNL     1       2.572   1.099   2.219  0.00  0.00    +0.185 C 
BRANCH  13   6
ATOM      3  O   UNL     1       6.016   0.443  -0.231  0.00  0.00    -0.253 OA
ATOM      6  N   UNL     1       3.877   1.259   0.158  0.00  0.00    -0.292 N 
ATOM      7  N   UNL     1       5.129   2.117  -1.571  0.00  0.00    -0.300 N 
ATOM     17  C   UNL     1       5.092   1.203  -0.521  0.00  0.00    +0.300 C 
ATOM     31  H   UNL     1       3.154   1.875  -0.202  0.00  0.00    +0.151 HD
ATOM     32  H   UNL     1       4.319   2.706  -1.736  0.00  0.00    +0.150 HD
BRANCH   7  18
ATOM     18  C   UNL     1       6.274   2.267  -2.438  0.00  0.00    +0.102 C 
ATOM     23  C   UNL     1       7.390   1.319  -2.053  0.00  0.00    +0.024 C 
ENDBRANCH   7  18
ENDBRANCH  13   6
ENDBRANCH   5  12
BRANCH  19  22
ATOM     22  C   UNL     1      -3.697  -0.205  -0.521  0.00  0.00    +0.001 A 
ATOM     24  C   UNL     1      -5.074  -0.323  -0.723  0.00  0.00    +0.013 A 
ATOM     25  C   UNL     1      -3.167   0.997  -0.046  0.00  0.00    +0.013 A 
ATOM     26  C   UNL     1      -5.916   0.755  -0.450  0.00  0.00    +0.046 A 
ATOM     27  C   UNL     1      -4.009   2.075   0.226  0.00  0.00    +0.046 A 
ATOM     28  C   UNL     1      -5.384   1.954   0.024  0.00  0.00    +0.120 A 
BRANCH  28   4
ATOM      4  O   UNL     1      -6.205   3.006   0.289  0.00  0.00    -0.495 OA
ATOM     29  C   UNL     1      -5.594   4.202   0.771  0.00  0.00    +0.277 C 
ENDBRANCH  28   4
ENDBRANCH  19  22
TORSDOF 5
