MODEL 1
REMARK VINA RESULT:      -6.3      0.000      0.000
REMARK  Name = 7127933
REMARK  12 active torsions:
REMARK  status: ('A' for Active; 'I' for Inactive)
REMARK    1  A    between atoms: S_1  and  C_20
REMARK    2  A    between atoms: S_1  and  C_27
REMARK    3  A    between atoms: N_8  and  C_12
REMARK    4  A    between atoms: N_9  and  C_18
REMARK    5  A    between atoms: N_10  and  C_22
REMARK    6  A    between atoms: C_13  and  C_16
REMARK    7  A    between atoms: C_17  and  C_20
REMARK    8  A    between atoms: C_18  and  C_21
REMARK    9  A    between atoms: C_18  and  C_23
REMARK   10  A    between atoms: C_21  and  C_24
REMARK   11  A    between atoms: C_22  and  C_25
REMARK   12  A    between atoms: C_22  and  C_26
REMARK                            x       y       z     vdW  Elec       q    Type
REMARK                         _______ _______ _______ _____ _____    ______ ____
ROOT
ATOM      4  O   UNL     1      14.621   6.769  19.027  0.00  0.00    -0.275 OA
ATOM      7  N   UNL     1      13.276   7.631  20.702  0.00  0.00    -0.287 N 
ATOM     12  C   UNL     1      11.596   8.544  22.111  0.00  0.00    +0.094 C 
ATOM     13  C   UNL     1      12.007   7.381  20.034  0.00  0.00    +0.164 C 
ATOM     14  C   UNL     1      10.944   7.586  21.110  0.00  0.00    +0.055 C 
ATOM     15  C   UNL     1      13.074   8.175  22.044  0.00  0.00    +0.131 C 
ATOM     17  C   UNL     1      14.487   7.224  20.165  0.00  0.00    +0.226 C 
ENDROOT
BRANCH  12   8
ATOM      5  O   UNL     1      10.954  10.717  23.899  0.00  0.00    -0.253 OA
ATOM      8  N   UNL     1      11.370   9.923  21.757  0.00  0.00    -0.295 N 
ATOM     10  N   UNL     1      10.897  12.153  22.078  0.00  0.00    -0.297 N 
ATOM     19  C   UNL     1      11.063  10.914  22.690  0.00  0.00    +0.300 C 
ATOM     31  H   UNL     1      11.372  10.176  20.774  0.00  0.00    +0.151 HD
ATOM     33  H   UNL     1      11.082  12.229  21.083  0.00  0.00    +0.150 HD
BRANCH  10  22
ATOM     22  C   UNL     1      10.573  13.352  22.815  0.00  0.00    +0.068 C 
ATOM     25  C   UNL     1       9.715  14.280  21.965  0.00  0.00    +0.027 C 
ATOM     26  C   UNL     1      11.844  14.051  23.283  0.00  0.00    +0.027 C 
ENDBRANCH  10  22
ENDBRANCH  12   8
BRANCH  13  16
ATOM      3  O   UNL     1      10.789   8.496  18.310  0.00  0.00    -0.274 OA
ATOM      9  N   UNL     1      13.025   9.049  18.650  0.00  0.00    -0.302 N 
ATOM     16  C   UNL     1      11.851   8.364  18.912  0.00  0.00    +0.234 C 
ATOM     32  H   UNL     1      13.855   8.835  19.194  0.00  0.00    +0.150 HD
BRANCH   9  18
ATOM     18  C   UNL     1      13.146  10.036  17.601  0.00  0.00    +0.163 C 
BRANCH  18  23
ATOM      6  O   UNL     1      12.955   9.643  15.211  0.00  0.00    -0.274 OA
ATOM     11  N   UNL     1      14.186   8.169  16.471  0.00  0.00    -0.328 N 
ATOM     23  C   UNL     1      13.386   9.281  16.302  0.00  0.00    +0.231 C 
ATOM     34  H   UNL     1      14.437   7.585  15.679  0.00  0.00    +0.145 HD
ATOM     35  H   UNL     1      14.539   7.882  17.377  0.00  0.00    +0.145 HD
ENDBRANCH  18  23
BRANCH  18  21
ATOM     21  C   UNL     1      14.287  11.026  17.862  0.00  0.00    +0.074 C 
BRANCH  21  24
ATOM      2  S   UNL     1      14.142  13.728  17.198  0.00  0.00    -0.102 S 
ATOM     24  C   UNL     1      13.782  12.404  18.222  0.00  0.00    -0.008 A 
ATOM     28  C   UNL     1      13.031  12.782  19.312  0.00  0.00    +0.011 A 
ATOM     29  C   UNL     1      12.747  14.179  19.308  0.00  0.00    +0.008 A 
ATOM     30  C   UNL     1      13.292  14.814  18.213  0.00  0.00    +0.045 A 
ENDBRANCH  21  24
ENDBRANCH  18  21
ENDBRANCH   9  18
ENDBRANCH  13  16
BRANCH  17  20
ATOM     20  C   UNL     1      15.685   7.381  21.067  0.00  0.00    +0.164 C 
BRANCH  20   1
ATOM      1  S   UNL     1      17.120   6.750  20.186  0.00  0.00    -0.155 S 
ATOM     27  C   UNL     1      18.421   7.452  21.231  0.00  0.00    +0.085 C 
ENDBRANCH  20   1
ENDBRANCH  17  20
TORSDOF 9
ENDMDL
MODEL 2
REMARK VINA RESULT:      -6.0      1.862      2.266
REMARK  Name = 7127933
REMARK  12 active torsions:
REMARK  status: ('A' for Active; 'I' for Inactive)
REMARK    1  A    between atoms: S_1  and  C_20
REMARK    2  A    between atoms: S_1  and  C_27
REMARK    3  A    between atoms: N_8  and  C_12
REMARK    4  A    between atoms: N_9  and  C_18
REMARK    5  A    between atoms: N_10  and  C_22
REMARK    6  A    between atoms: C_13  and  C_16
REMARK    7  A    between atoms: C_17  and  C_20
REMARK    8  A    between atoms: C_18  and  C_21
REMARK    9  A    between atoms: C_18  and  C_23
REMARK   10  A    between atoms: C_21  and  C_24
REMARK   11  A    between atoms: C_22  and  C_25
REMARK   12  A    between atoms: C_22  and  C_26
REMARK                            x       y       z     vdW  Elec       q    Type
REMARK                         _______ _______ _______ _____ _____    ______ ____
ROOT
ATOM      4  O   UNL     1      15.064   7.173  19.066  0.00  0.00    -0.275 OA
ATOM      7  N   UNL     1      13.497   7.780  20.658  0.00  0.00    -0.287 N 
ATOM     12  C   UNL     1      11.644   8.508  21.953  0.00  0.00    +0.094 C 
ATOM     13  C   UNL     1      12.344   7.742  19.771  0.00  0.00    +0.164 C 
ATOM     14  C   UNL     1      11.130   7.802  20.696  0.00  0.00    +0.055 C 
ATOM     15  C   UNL     1      13.101   8.067  22.036  0.00  0.00    +0.131 C 
ATOM     17  C   UNL     1      14.765   7.408  20.238  0.00  0.00    +0.226 C 
ENDROOT
BRANCH  12   8
ATOM      5  O   UNL     1      10.908  10.345  24.054  0.00  0.00    -0.253 OA
ATOM      8  N   UNL     1      11.521   9.941  21.851  0.00  0.00    -0.295 N 
ATOM     10  N   UNL     1      11.116  12.097  22.548  0.00  0.00    -0.297 N 
ATOM     19  C   UNL     1      11.158  10.757  22.922  0.00  0.00    +0.300 C 
ATOM     31  H   UNL     1      11.643  10.373  20.941  0.00  0.00    +0.151 HD
ATOM     33  H   UNL     1      11.413  12.346  21.609  0.00  0.00    +0.150 HD
BRANCH  10  22
ATOM     22  C   UNL     1      10.768  13.156  23.466  0.00  0.00    +0.068 C 
ATOM     25  C   UNL     1      10.015  14.262  22.738  0.00  0.00    +0.027 C 
ATOM     26  C   UNL     1      12.015  13.698  24.155  0.00  0.00    +0.027 C 
ENDBRANCH  10  22
ENDBRANCH  12   8
BRANCH  13  16
ATOM      3  O   UNL     1      12.349  10.079  19.285  0.00  0.00    -0.274 OA
ATOM      9  N   UNL     1      12.486   8.561  17.525  0.00  0.00    -0.302 N 
ATOM     16  C   UNL     1      12.399   8.929  18.858  0.00  0.00    +0.234 C 
ATOM     32  H   UNL     1      12.489   7.574  17.285  0.00  0.00    +0.150 HD
BRANCH   9  18
ATOM     18  C   UNL     1      12.530   9.517  16.443  0.00  0.00    +0.163 C 
BRANCH  18  23
ATOM      6  O   UNL     1      10.489   8.374  15.782  0.00  0.00    -0.274 OA
ATOM     11  N   UNL     1      11.114  10.260  14.630  0.00  0.00    -0.328 N 
ATOM     23  C   UNL     1      11.285   9.292  15.598  0.00  0.00    +0.231 C 
ATOM     34  H   UNL     1      10.313  10.237  14.007  0.00  0.00    +0.145 HD
ATOM     35  H   UNL     1      11.777  11.016  14.489  0.00  0.00    +0.145 HD
ENDBRANCH  18  23
BRANCH  18  21
ATOM     21  C   UNL     1      13.792   9.368  15.585  0.00  0.00    +0.074 C 
BRANCH  21  24
ATOM      2  S   UNL     1      15.131  11.431  16.894  0.00  0.00    -0.102 S 
ATOM     24  C   UNL     1      14.566  10.660  15.473  0.00  0.00    -0.008 A 
ATOM     28  C   UNL     1      14.910  11.356  14.335  0.00  0.00    +0.011 A 
ATOM     29  C   UNL     1      15.647  12.539  14.634  0.00  0.00    +0.008 A 
ATOM     30  C   UNL     1      15.838  12.701  15.989  0.00  0.00    +0.045 A 
ENDBRANCH  21  24
ENDBRANCH  18  21
ENDBRANCH   9  18
ENDBRANCH  13  16
BRANCH  17  20
ATOM     20  C   UNL     1      15.809   7.314  21.323  0.00  0.00    +0.164 C 
BRANCH  20   1
ATOM      1  S   UNL     1      16.967   8.669  21.086  0.00  0.00    -0.155 S 
ATOM     27  C   UNL     1      18.494   7.817  21.550  0.00  0.00    +0.085 C 
ENDBRANCH  20   1
ENDBRANCH  17  20
TORSDOF 9
ENDMDL
MODEL 3
REMARK VINA RESULT:      -5.5     27.226     29.322
REMARK  Name = 7127933
REMARK  12 active torsions:
REMARK  status: ('A' for Active; 'I' for Inactive)
REMARK    1  A    between atoms: S_1  and  C_20
REMARK    2  A    between atoms: S_1  and  C_27
REMARK    3  A    between atoms: N_8  and  C_12
REMARK    4  A    between atoms: N_9  and  C_18
REMARK    5  A    between atoms: N_10  and  C_22
REMARK    6  A    between atoms: C_13  and  C_16
REMARK    7  A    between atoms: C_17  and  C_20
REMARK    8  A    between atoms: C_18  and  C_21
REMARK    9  A    between atoms: C_18  and  C_23
REMARK   10  A    between atoms: C_21  and  C_24
REMARK   11  A    between atoms: C_22  and  C_25
REMARK   12  A    between atoms: C_22  and  C_26
REMARK                            x       y       z     vdW  Elec       q    Type
REMARK                         _______ _______ _______ _____ _____    ______ ____
ROOT
ATOM      4  O   UNL     1      -5.435 -13.768  17.618  0.00  0.00    -0.275 OA
ATOM      7  N   UNL     1      -4.270 -12.585  16.005  0.00  0.00    -0.287 N 
ATOM     12  C   UNL     1      -3.185 -11.023  14.581  0.00  0.00    +0.094 C 
ATOM     13  C   UNL     1      -4.075 -11.380  16.799  0.00  0.00    +0.164 C 
ATOM     14  C   UNL     1      -3.035 -10.565  16.034  0.00  0.00    +0.055 C 
ATOM     15  C   UNL     1      -3.595 -12.486  14.712  0.00  0.00    +0.131 C 
ATOM     17  C   UNL     1      -4.874 -13.721  16.522  0.00  0.00    +0.226 C 
ENDROOT
BRANCH  12   8
ATOM      5  O   UNL     1      -3.707 -11.039  11.743  0.00  0.00    -0.253 OA
ATOM      8  N   UNL     1      -4.176 -10.250  13.875  0.00  0.00    -0.295 N 
ATOM     10  N   UNL     1      -5.382  -9.469  12.076  0.00  0.00    -0.297 N 
ATOM     19  C   UNL     1      -4.361 -10.319  12.495  0.00  0.00    +0.300 C 
ATOM     31  H   UNL     1      -4.725  -9.574  14.398  0.00  0.00    +0.151 HD
ATOM     33  H   UNL     1      -5.915  -8.970  12.782  0.00  0.00    +0.150 HD
BRANCH  10  22
ATOM     22  C   UNL     1      -5.780  -9.346  10.693  0.00  0.00    +0.068 C 
ATOM     25  C   UNL     1      -4.981  -8.246  10.008  0.00  0.00    +0.027 C 
ATOM     26  C   UNL     1      -7.278  -9.086  10.590  0.00  0.00    +0.027 C 
ENDBRANCH  10  22
ENDBRANCH  12   8
BRANCH  13  16
ATOM      3  O   UNL     1      -5.634  -9.675  16.198  0.00  0.00    -0.274 OA
ATOM      9  N   UNL     1      -6.212 -11.196  17.864  0.00  0.00    -0.302 N 
ATOM     16  C   UNL     1      -5.381 -10.652  16.899  0.00  0.00    +0.234 C 
ATOM     32  H   UNL     1      -5.884 -11.990  18.407  0.00  0.00    +0.150 HD
BRANCH   9  18
ATOM     18  C   UNL     1      -7.519 -10.664  18.173  0.00  0.00    +0.163 C 
BRANCH  18  23
ATOM      6  O   UNL     1      -8.949 -11.009  20.107  0.00  0.00    -0.274 OA
ATOM     11  N   UNL     1      -7.367 -12.599  19.613  0.00  0.00    -0.328 N 
ATOM     23  C   UNL     1      -8.024 -11.405  19.402  0.00  0.00    +0.231 C 
ATOM     34  H   UNL     1      -7.619 -13.200  20.391  0.00  0.00    +0.145 HD
ATOM     35  H   UNL     1      -6.606 -12.918  19.021  0.00  0.00    +0.145 HD
ENDBRANCH  18  23
BRANCH  18  21
ATOM     21  C   UNL     1      -8.504 -10.826  17.009  0.00  0.00    +0.074 C 
BRANCH  21  24
ATOM      2  S   UNL     1      -9.459  -9.116  15.027  0.00  0.00    -0.102 S 
ATOM     24  C   UNL     1      -9.210  -9.534  16.669  0.00  0.00    -0.008 A 
ATOM     28  C   UNL     1      -9.715  -8.583  17.527  0.00  0.00    +0.011 A 
ATOM     29  C   UNL     1     -10.315  -7.495  16.828  0.00  0.00    +0.008 A 
ATOM     30  C   UNL     1     -10.245  -7.658  15.462  0.00  0.00    +0.045 A 
ENDBRANCH  21  24
ENDBRANCH  18  21
ENDBRANCH   9  18
ENDBRANCH  13  16
BRANCH  17  20
ATOM     20  C   UNL     1      -4.823 -14.943  15.640  0.00  0.00    +0.164 C 
BRANCH  20   1
ATOM      1  S   UNL     1      -4.180 -16.302  16.626  0.00  0.00    -0.155 S 
ATOM     27  C   UNL     1      -2.687 -16.661  15.668  0.00  0.00    +0.085 C 
ENDBRANCH  20   1
ENDBRANCH  17  20
TORSDOF 9
ENDMDL
MODEL 4
REMARK VINA RESULT:      -5.5     14.275     18.173
REMARK  Name = 7127933
REMARK  12 active torsions:
REMARK  status: ('A' for Active; 'I' for Inactive)
REMARK    1  A    between atoms: S_1  and  C_20
REMARK    2  A    between atoms: S_1  and  C_27
REMARK    3  A    between atoms: N_8  and  C_12
REMARK    4  A    between atoms: N_9  and  C_18
REMARK    5  A    between atoms: N_10  and  C_22
REMARK    6  A    between atoms: C_13  and  C_16
REMARK    7  A    between atoms: C_17  and  C_20
REMARK    8  A    between atoms: C_18  and  C_21
REMARK    9  A    between atoms: C_18  and  C_23
REMARK   10  A    between atoms: C_21  and  C_24
REMARK   11  A    between atoms: C_22  and  C_25
REMARK   12  A    between atoms: C_22  and  C_26
REMARK                            x       y       z     vdW  Elec       q    Type
REMARK                         _______ _______ _______ _____ _____    ______ ____
ROOT
ATOM      4  O   UNL     1      13.538   9.692   1.747  0.00  0.00    -0.275 OA
ATOM      7  N   UNL     1      13.937   8.799   3.844  0.00  0.00    -0.287 N 
ATOM     12  C   UNL     1      14.428   7.516   5.783  0.00  0.00    +0.094 C 
ATOM     13  C   UNL     1      14.707   7.652   3.387  0.00  0.00    +0.164 C 
ATOM     14  C   UNL     1      15.356   7.081   4.646  0.00  0.00    +0.055 C 
ATOM     15  C   UNL     1      13.888   8.860   5.305  0.00  0.00    +0.131 C 
ATOM     17  C   UNL     1      13.480   9.777   2.975  0.00  0.00    +0.226 C 
ENDROOT
BRANCH  12   8
ATOM      5  O   UNL     1      11.953   7.961   7.199  0.00  0.00    -0.253 OA
ATOM      8  N   UNL     1      13.371   6.562   6.006  0.00  0.00    -0.295 N 
ATOM     10  N   UNL     1      11.353   5.761   6.773  0.00  0.00    -0.297 N 
ATOM     19  C   UNL     1      12.202   6.863   6.705  0.00  0.00    +0.300 C 
ATOM     31  H   UNL     1      13.509   5.605   5.695  0.00  0.00    +0.151 HD
ATOM     33  H   UNL     1      11.614   4.919   6.269  0.00  0.00    +0.150 HD
BRANCH  10  22
ATOM     22  C   UNL     1      10.074   5.799   7.441  0.00  0.00    +0.068 C 
ATOM     25  C   UNL     1       9.839   4.505   8.210  0.00  0.00    +0.027 C 
ATOM     26  C   UNL     1       8.955   6.055   6.439  0.00  0.00    +0.027 C 
ENDBRANCH  10  22
ENDBRANCH  12   8
BRANCH  13  16
ATOM      3  O   UNL     1      12.615   6.530   3.139  0.00  0.00    -0.274 OA
ATOM      9  N   UNL     1      14.381   5.948   1.736  0.00  0.00    -0.302 N 
ATOM     16  C   UNL     1      13.773   6.666   2.753  0.00  0.00    +0.234 C 
ATOM     32  H   UNL     1      15.358   6.124   1.523  0.00  0.00    +0.150 HD
BRANCH   9  18
ATOM     18  C   UNL     1      13.703   4.919   0.982  0.00  0.00    +0.163 C 
BRANCH  18  23
ATOM      6  O   UNL     1      13.210   2.671   1.763  0.00  0.00    -0.274 OA
ATOM     11  N   UNL     1      15.325   3.507   2.086  0.00  0.00    -0.328 N 
ATOM     23  C   UNL     1      14.018   3.591   1.654  0.00  0.00    +0.231 C 
ATOM     34  H   UNL     1      15.671   2.666   2.537  0.00  0.00    +0.145 HD
ATOM     35  H   UNL     1      15.984   4.273   1.987  0.00  0.00    +0.145 HD
ENDBRANCH  18  23
BRANCH  18  21
ATOM     21  C   UNL     1      14.140   4.891  -0.487  0.00  0.00    +0.074 C 
BRANCH  21  24
ATOM      2  S   UNL     1      11.442   4.433  -1.012  0.00  0.00    -0.102 S 
ATOM     24  C   UNL     1      13.104   4.254  -1.384  0.00  0.00    -0.008 A 
ATOM     28  C   UNL     1      13.302   3.506  -2.523  0.00  0.00    +0.011 A 
ATOM     29  C   UNL     1      12.072   3.073  -3.099  0.00  0.00    +0.008 A 
ATOM     30  C   UNL     1      10.982   3.508  -2.377  0.00  0.00    +0.045 A 
ENDBRANCH  21  24
ENDBRANCH  18  21
ENDBRANCH   9  18
ENDBRANCH  13  16
BRANCH  17  20
ATOM     20  C   UNL     1      12.872  10.994   3.626  0.00  0.00    +0.164 C 
BRANCH  20   1
ATOM      1  S   UNL     1      11.161  11.106   3.086  0.00  0.00    -0.155 S 
ATOM     27  C   UNL     1      10.470   9.749   4.064  0.00  0.00    +0.085 C 
ENDBRANCH  20   1
ENDBRANCH  17  20
TORSDOF 9
ENDMDL
MODEL 5
REMARK VINA RESULT:      -5.4     13.555     16.383
REMARK  Name = 7127933
REMARK  12 active torsions:
REMARK  status: ('A' for Active; 'I' for Inactive)
REMARK    1  A    between atoms: S_1  and  C_20
REMARK    2  A    between atoms: S_1  and  C_27
REMARK    3  A    between atoms: N_8  and  C_12
REMARK    4  A    between atoms: N_9  and  C_18
REMARK    5  A    between atoms: N_10  and  C_22
REMARK    6  A    between atoms: C_13  and  C_16
REMARK    7  A    between atoms: C_17  and  C_20
REMARK    8  A    between atoms: C_18  and  C_21
REMARK    9  A    between atoms: C_18  and  C_23
REMARK   10  A    between atoms: C_21  and  C_24
REMARK   11  A    between atoms: C_22  and  C_25
REMARK   12  A    between atoms: C_22  and  C_26
REMARK                            x       y       z     vdW  Elec       q    Type
REMARK                         _______ _______ _______ _____ _____    ______ ____
ROOT
ATOM      4  O   UNL     1       9.121   8.692   7.640  0.00  0.00    -0.275 OA
ATOM      7  N   UNL     1       9.245   6.832   6.268  0.00  0.00    -0.287 N 
ATOM     12  C   UNL     1       9.689   4.797   5.125  0.00  0.00    +0.094 C 
ATOM     13  C   UNL     1       9.943   5.978   7.218  0.00  0.00    +0.164 C 
ATOM     14  C   UNL     1       9.848   4.571   6.631  0.00  0.00    +0.055 C 
ATOM     15  C   UNL     1       8.909   6.105   5.044  0.00  0.00    +0.131 C 
ATOM     17  C   UNL     1       8.818   8.109   6.597  0.00  0.00    +0.226 C 
ENDROOT
BRANCH  12   8
ATOM      5  O   UNL     1      10.238   4.279   2.339  0.00  0.00    -0.253 OA
ATOM      8  N   UNL     1      10.963   4.889   4.459  0.00  0.00    -0.295 N 
ATOM     10  N   UNL     1      12.469   4.786   2.720  0.00  0.00    -0.297 N 
ATOM     19  C   UNL     1      11.140   4.620   3.102  0.00  0.00    +0.300 C 
ATOM     31  H   UNL     1      11.786   5.100   5.016  0.00  0.00    +0.151 HD
ATOM     33  H   UNL     1      13.127   5.143   3.406  0.00  0.00    +0.150 HD
BRANCH  10  22
ATOM     22  C   UNL     1      12.927   4.571   1.368  0.00  0.00    +0.068 C 
ATOM     25  C   UNL     1      13.977   3.469   1.334  0.00  0.00    +0.027 C 
ATOM     26  C   UNL     1      13.469   5.867   0.775  0.00  0.00    +0.027 C 
ENDBRANCH  10  22
ENDBRANCH  12   8
BRANCH  13  16
ATOM      3  O   UNL     1      12.149   5.939   8.128  0.00  0.00    -0.274 OA
ATOM      9  N   UNL     1      11.651   7.467   6.443  0.00  0.00    -0.302 N 
ATOM     16  C   UNL     1      11.366   6.436   7.323  0.00  0.00    +0.234 C 
ATOM     32  H   UNL     1      10.912   7.821   5.842  0.00  0.00    +0.150 HD
BRANCH   9  18
ATOM     18  C   UNL     1      12.946   8.102   6.362  0.00  0.00    +0.163 C 
BRANCH  18  23
ATOM      6  O   UNL     1      12.452  10.337   5.546  0.00  0.00    -0.274 OA
ATOM     11  N   UNL     1      12.788  10.040   7.798  0.00  0.00    -0.328 N 
ATOM     23  C   UNL     1      12.717   9.600   6.493  0.00  0.00    +0.231 C 
ATOM     34  H   UNL     1      12.638  11.018   8.026  0.00  0.00    +0.145 HD
ATOM     35  H   UNL     1      13.004   9.421   8.573  0.00  0.00    +0.145 HD
ENDBRANCH  18  23
BRANCH  18  21
ATOM     21  C   UNL     1      13.670   7.784   5.049  0.00  0.00    +0.074 C 
BRANCH  21  24
ATOM      2  S   UNL     1      15.981   8.422   3.629  0.00  0.00    -0.102 S 
ATOM     24  C   UNL     1      15.132   8.159   5.093  0.00  0.00    -0.008 A 
ATOM     28  C   UNL     1      15.939   8.332   6.196  0.00  0.00    +0.011 A 
ATOM     29  C   UNL     1      17.272   8.686   5.835  0.00  0.00    +0.008 A 
ATOM     30  C   UNL     1      17.432   8.770   4.469  0.00  0.00    +0.045 A 
ENDBRANCH  21  24
ENDBRANCH  18  21
ENDBRANCH   9  18
ENDBRANCH  13  16
BRANCH  17  20
ATOM     20  C   UNL     1       7.941   8.786   5.574  0.00  0.00    +0.164 C 
BRANCH  20   1
ATOM      1  S   UNL     1       8.830  10.223   4.958  0.00  0.00    -0.155 S 
ATOM     27  C   UNL     1       9.627   9.465   3.521  0.00  0.00    +0.085 C 
ENDBRANCH  20   1
ENDBRANCH  17  20
TORSDOF 9
ENDMDL
MODEL 6
REMARK VINA RESULT:      -5.4     12.601     16.659
REMARK  Name = 7127933
REMARK  12 active torsions:
REMARK  status: ('A' for Active; 'I' for Inactive)
REMARK    1  A    between atoms: S_1  and  C_20
REMARK    2  A    between atoms: S_1  and  C_27
REMARK    3  A    between atoms: N_8  and  C_12
REMARK    4  A    between atoms: N_9  and  C_18
REMARK    5  A    between atoms: N_10  and  C_22
REMARK    6  A    between atoms: C_13  and  C_16
REMARK    7  A    between atoms: C_17  and  C_20
REMARK    8  A    between atoms: C_18  and  C_21
REMARK    9  A    between atoms: C_18  and  C_23
REMARK   10  A    between atoms: C_21  and  C_24
REMARK   11  A    between atoms: C_22  and  C_25
REMARK   12  A    between atoms: C_22  and  C_26
REMARK                            x       y       z     vdW  Elec       q    Type
REMARK                         _______ _______ _______ _____ _____    ______ ____
ROOT
ATOM      4  O   UNL     1       7.918   7.419   4.468  0.00  0.00    -0.275 OA
ATOM      7  N   UNL     1       9.744   6.561   3.334  0.00  0.00    -0.287 N 
ATOM     12  C   UNL     1      11.696   5.467   2.537  0.00  0.00    +0.094 C 
ATOM     13  C   UNL     1       9.949   5.412   4.204  0.00  0.00    +0.164 C 
ATOM     14  C   UNL     1      10.924   4.511   3.451  0.00  0.00    +0.055 C 
ATOM     15  C   UNL     1      10.669   6.543   2.201  0.00  0.00    +0.131 C 
ATOM     17  C   UNL     1       8.679   7.433   3.499  0.00  0.00    +0.226 C 
ENDROOT
BRANCH  12   8
ATOM      5  O   UNL     1      13.814   7.008   1.326  0.00  0.00    -0.253 OA
ATOM      8  N   UNL     1      12.855   6.017   3.193  0.00  0.00    -0.295 N 
ATOM     10  N   UNL     1      14.841   7.163   3.400  0.00  0.00    -0.297 N 
ATOM     19  C   UNL     1      13.835   6.753   2.528  0.00  0.00    +0.300 C 
ATOM     31  H   UNL     1      13.000   5.806   4.176  0.00  0.00    +0.151 HD
ATOM     33  H   UNL     1      14.731   6.967   4.390  0.00  0.00    +0.150 HD
BRANCH  10  22
ATOM     22  C   UNL     1      15.979   7.942   2.970  0.00  0.00    +0.068 C 
ATOM     25  C   UNL     1      17.100   7.851   3.997  0.00  0.00    +0.027 C 
ATOM     26  C   UNL     1      15.573   9.390   2.724  0.00  0.00    +0.027 C 
ENDBRANCH  10  22
ENDBRANCH  12   8
BRANCH  13  16
ATOM      3  O   UNL     1      11.712   6.202   5.606  0.00  0.00    -0.274 OA
ATOM      9  N   UNL     1       9.592   5.902   6.521  0.00  0.00    -0.302 N 
ATOM     16  C   UNL     1      10.529   5.889   5.502  0.00  0.00    +0.234 C 
ATOM     32  H   UNL     1       8.645   5.591   6.326  0.00  0.00    +0.150 HD
BRANCH   9  18
ATOM     18  C   UNL     1       9.903   6.298   7.875  0.00  0.00    +0.163 C 
BRANCH  18  23
ATOM      6  O   UNL     1       8.743   5.204   9.709  0.00  0.00    -0.274 OA
ATOM     11  N   UNL     1      10.167   3.956   8.409  0.00  0.00    -0.328 N 
ATOM     23  C   UNL     1       9.541   5.128   8.778  0.00  0.00    +0.231 C 
ATOM     34  H   UNL     1       9.999   3.094   8.919  0.00  0.00    +0.145 HD
ATOM     35  H   UNL     1      10.822   3.904   7.635  0.00  0.00    +0.145 HD
ENDBRANCH  18  23
BRANCH  18  21
ATOM     21  C   UNL     1       9.141   7.558   8.303  0.00  0.00    +0.074 C 
BRANCH  21  24
ATOM      2  S   UNL     1       9.419  10.287   8.793  0.00  0.00    -0.102 S 
ATOM     24  C   UNL     1       9.947   8.818   8.089  0.00  0.00    -0.008 A 
ATOM     28  C   UNL     1      11.113   8.977   7.372  0.00  0.00    +0.011 A 
ATOM     29  C   UNL     1      11.578  10.324   7.400  0.00  0.00    +0.008 A 
ATOM     30  C   UNL     1      10.751  11.142   8.138  0.00  0.00    +0.045 A 
ENDBRANCH  21  24
ENDBRANCH  18  21
ENDBRANCH   9  18
ENDBRANCH  13  16
BRANCH  17  20
ATOM     20  C   UNL     1       8.496   8.452   2.402  0.00  0.00    +0.164 C 
BRANCH  20   1
ATOM      1  S   UNL     1       7.186   9.573   2.910  0.00  0.00    -0.155 S 
ATOM     27  C   UNL     1       7.469  10.897   1.710  0.00  0.00    +0.085 C 
ENDBRANCH  20   1
ENDBRANCH  17  20
TORSDOF 9
ENDMDL
MODEL 7
REMARK VINA RESULT:      -5.4     15.953     20.032
REMARK  Name = 7127933
REMARK  12 active torsions:
REMARK  status: ('A' for Active; 'I' for Inactive)
REMARK    1  A    between atoms: S_1  and  C_20
REMARK    2  A    between atoms: S_1  and  C_27
REMARK    3  A    between atoms: N_8  and  C_12
REMARK    4  A    between atoms: N_9  and  C_18
REMARK    5  A    between atoms: N_10  and  C_22
REMARK    6  A    between atoms: C_13  and  C_16
REMARK    7  A    between atoms: C_17  and  C_20
REMARK    8  A    between atoms: C_18  and  C_21
REMARK    9  A    between atoms: C_18  and  C_23
REMARK   10  A    between atoms: C_21  and  C_24
REMARK   11  A    between atoms: C_22  and  C_25
REMARK   12  A    between atoms: C_22  and  C_26
REMARK                            x       y       z     vdW  Elec       q    Type
REMARK                         _______ _______ _______ _____ _____    ______ ____
ROOT
ATOM      4  O   UNL     1       9.844   4.503  -0.471  0.00  0.00    -0.275 OA
ATOM      7  N   UNL     1      12.092   4.038  -0.179  0.00  0.00    -0.287 N 
ATOM     12  C   UNL     1      14.331   3.680   0.529  0.00  0.00    +0.094 C 
ATOM     13  C   UNL     1      12.042   3.905   1.269  0.00  0.00    +0.164 C 
ATOM     14  C   UNL     1      13.378   3.275   1.657  0.00  0.00    +0.055 C 
ATOM     15  C   UNL     1      13.427   3.736  -0.697  0.00  0.00    +0.131 C 
ATOM     17  C   UNL     1      10.954   4.250  -0.942  0.00  0.00    +0.226 C 
ENDROOT
BRANCH  12   8
ATOM      5  O   UNL     1      16.715   4.729  -0.714  0.00  0.00    -0.253 OA
ATOM      8  N   UNL     1      14.960   4.951   0.790  0.00  0.00    -0.295 N 
ATOM     10  N   UNL     1      16.508   6.642   0.582  0.00  0.00    -0.297 N 
ATOM     19  C   UNL     1      16.117   5.381   0.140  0.00  0.00    +0.300 C 
ATOM     31  H   UNL     1      14.580   5.536   1.528  0.00  0.00    +0.151 HD
ATOM     33  H   UNL     1      15.906   7.133   1.236  0.00  0.00    +0.150 HD
BRANCH  10  22
ATOM     22  C   UNL     1      17.675   7.322   0.072  0.00  0.00    +0.068 C 
ATOM     25  C   UNL     1      18.432   7.999   1.207  0.00  0.00    +0.027 C 
ATOM     26  C   UNL     1      17.281   8.328  -1.003  0.00  0.00    +0.027 C 
ENDBRANCH  10  22
ENDBRANCH  12   8
BRANCH  13  16
ATOM      3  O   UNL     1      12.413   6.260   1.384  0.00  0.00    -0.274 OA
ATOM      9  N   UNL     1      11.103   5.244   3.018  0.00  0.00    -0.302 N 
ATOM     16  C   UNL     1      11.881   5.268   1.873  0.00  0.00    +0.234 C 
ATOM     32  H   UNL     1      10.738   4.356   3.349  0.00  0.00    +0.150 HD
BRANCH   9  18
ATOM     18  C   UNL     1      10.815   6.423   3.802  0.00  0.00    +0.163 C 
BRANCH  18  23
ATOM      6  O   UNL     1      12.959   7.213   4.628  0.00  0.00    -0.274 OA
ATOM     11  N   UNL     1      11.651   5.932   6.016  0.00  0.00    -0.328 N 
ATOM     23  C   UNL     1      11.933   6.566   4.823  0.00  0.00    +0.231 C 
ATOM     34  H   UNL     1      12.308   5.964   6.789  0.00  0.00    +0.145 HD
ATOM     35  H   UNL     1      10.798   5.404   6.167  0.00  0.00    +0.145 HD
ENDBRANCH  18  23
BRANCH  18  21
ATOM     21  C   UNL     1       9.456   6.336   4.506  0.00  0.00    +0.074 C 
BRANCH  21  24
ATOM      2  S   UNL     1       8.294   8.540   5.755  0.00  0.00    -0.102 S 
ATOM     24  C   UNL     1       8.652   7.607   4.364  0.00  0.00    -0.008 A 
ATOM     28  C   UNL     1       8.130   8.167   3.218  0.00  0.00    +0.011 A 
ATOM     29  C   UNL     1       7.427   9.377   3.486  0.00  0.00    +0.008 A 
ATOM     30  C   UNL     1       7.439   9.696   4.826  0.00  0.00    +0.045 A 
ENDBRANCH  21  24
ENDBRANCH  18  21
ENDBRANCH   9  18
ENDBRANCH  13  16
BRANCH  17  20
ATOM     20  C   UNL     1      11.147   4.168  -2.436  0.00  0.00    +0.164 C 
BRANCH  20   1
ATOM      1  S   UNL     1      10.773   2.484  -2.943  0.00  0.00    -0.155 S 
ATOM     27  C   UNL     1       9.422   2.832  -4.095  0.00  0.00    +0.085 C 
ENDBRANCH  20   1
ENDBRANCH  17  20
TORSDOF 9
ENDMDL
MODEL 8
REMARK VINA RESULT:      -5.4     14.203     17.698
REMARK  Name = 7127933
REMARK  12 active torsions:
REMARK  status: ('A' for Active; 'I' for Inactive)
REMARK    1  A    between atoms: S_1  and  C_20
REMARK    2  A    between atoms: S_1  and  C_27
REMARK    3  A    between atoms: N_8  and  C_12
REMARK    4  A    between atoms: N_9  and  C_18
REMARK    5  A    between atoms: N_10  and  C_22
REMARK    6  A    between atoms: C_13  and  C_16
REMARK    7  A    between atoms: C_17  and  C_20
REMARK    8  A    between atoms: C_18  and  C_21
REMARK    9  A    between atoms: C_18  and  C_23
REMARK   10  A    between atoms: C_21  and  C_24
REMARK   11  A    between atoms: C_22  and  C_25
REMARK   12  A    between atoms: C_22  and  C_26
REMARK                            x       y       z     vdW  Elec       q    Type
REMARK                         _______ _______ _______ _____ _____    ______ ____
ROOT
ATOM      4  O   UNL     1      13.420   7.027   5.904  0.00  0.00    -0.275 OA
ATOM      7  N   UNL     1      11.111   7.172   5.922  0.00  0.00    -0.287 N 
ATOM     12  C   UNL     1       8.758   7.025   5.627  0.00  0.00    +0.094 C 
ATOM     13  C   UNL     1      10.864   5.900   5.260  0.00  0.00    +0.164 C 
ATOM     14  C   UNL     1       9.373   5.634   5.452  0.00  0.00    +0.055 C 
ATOM     15  C   UNL     1       9.860   7.815   6.325  0.00  0.00    +0.131 C 
ATOM     17  C   UNL     1      12.386   7.594   6.262  0.00  0.00    +0.226 C 
ENDROOT
BRANCH  12   8
ATOM      5  O   UNL     1       7.307   9.484   5.203  0.00  0.00    -0.253 OA
ATOM      8  N   UNL     1       8.395   7.614   4.362  0.00  0.00    -0.295 N 
ATOM     10  N   UNL     1       7.475   9.148   2.914  0.00  0.00    -0.297 N 
ATOM     19  C   UNL     1       7.690   8.811   4.247  0.00  0.00    +0.300 C 
ATOM     31  H   UNL     1       8.608   7.101   3.512  0.00  0.00    +0.151 HD
ATOM     33  H   UNL     1       7.895   8.567   2.195  0.00  0.00    +0.150 HD
BRANCH  10  22
ATOM     22  C   UNL     1       6.768  10.342   2.513  0.00  0.00    +0.068 C 
ATOM     25  C   UNL     1       5.277  10.057   2.384  0.00  0.00    +0.027 C 
ATOM     26  C   UNL     1       7.339  10.889   1.210  0.00  0.00    +0.027 C 
ENDBRANCH  10  22
ENDBRANCH  12   8
BRANCH  13  16
ATOM      3  O   UNL     1      11.198   7.120   3.236  0.00  0.00    -0.274 OA
ATOM      9  N   UNL     1      11.528   4.816   3.231  0.00  0.00    -0.302 N 
ATOM     16  C   UNL     1      11.216   6.035   3.809  0.00  0.00    +0.234 C 
ATOM     32  H   UNL     1      11.480   3.973   3.797  0.00  0.00    +0.150 HD
BRANCH   9  18
ATOM     18  C   UNL     1      11.880   4.670   1.837  0.00  0.00    +0.163 C 
BRANCH  18  23
ATOM      6  O   UNL     1       9.801   3.686   1.051  0.00  0.00    -0.274 OA
ATOM     11  N   UNL     1      10.337   5.812   0.368  0.00  0.00    -0.328 N 
ATOM     23  C   UNL     1      10.579   4.637   1.049  0.00  0.00    +0.231 C 
ATOM     34  H   UNL     1       9.494   5.929  -0.185  0.00  0.00    +0.145 HD
ATOM     35  H   UNL     1      10.985   6.593   0.376  0.00  0.00    +0.145 HD
ENDBRANCH  18  23
BRANCH  18  21
ATOM     21  C   UNL     1      12.696   3.399   1.573  0.00  0.00    +0.074 C 
BRANCH  21  24
ATOM      2  S   UNL     1      13.749   4.031  -0.929  0.00  0.00    -0.102 S 
ATOM     24  C   UNL     1      13.925   3.669   0.736  0.00  0.00    -0.008 A 
ATOM     28  C   UNL     1      15.245   3.670   1.128  0.00  0.00    +0.011 A 
ATOM     29  C   UNL     1      16.124   3.971   0.047  0.00  0.00    +0.008 A 
ATOM     30  C   UNL     1      15.441   4.190  -1.129  0.00  0.00    +0.045 A 
ENDBRANCH  21  24
ENDBRANCH  18  21
ENDBRANCH   9  18
ENDBRANCH  13  16
BRANCH  17  20
ATOM     20  C   UNL     1      12.456   8.836   7.115  0.00  0.00    +0.164 C 
BRANCH  20   1
ATOM      1  S   UNL     1      12.958  10.199   6.055  0.00  0.00    -0.155 S 
ATOM     27  C   UNL     1      14.702  10.294   6.530  0.00  0.00    +0.085 C 
ENDBRANCH  20   1
ENDBRANCH  17  20
TORSDOF 9
ENDMDL
MODEL 9
REMARK VINA RESULT:      -5.4     13.463     16.437
REMARK  Name = 7127933
REMARK  12 active torsions:
REMARK  status: ('A' for Active; 'I' for Inactive)
REMARK    1  A    between atoms: S_1  and  C_20
REMARK    2  A    between atoms: S_1  and  C_27
REMARK    3  A    between atoms: N_8  and  C_12
REMARK    4  A    between atoms: N_9  and  C_18
REMARK    5  A    between atoms: N_10  and  C_22
REMARK    6  A    between atoms: C_13  and  C_16
REMARK    7  A    between atoms: C_17  and  C_20
REMARK    8  A    between atoms: C_18  and  C_21
REMARK    9  A    between atoms: C_18  and  C_23
REMARK   10  A    between atoms: C_21  and  C_24
REMARK   11  A    between atoms: C_22  and  C_25
REMARK   12  A    between atoms: C_22  and  C_26
REMARK                            x       y       z     vdW  Elec       q    Type
REMARK                         _______ _______ _______ _____ _____    ______ ____
ROOT
ATOM      4  O   UNL     1      13.289   6.594   6.660  0.00  0.00    -0.275 OA
ATOM      7  N   UNL     1      11.156   7.329   7.173  0.00  0.00    -0.287 N 
ATOM     12  C   UNL     1       8.842   7.691   7.571  0.00  0.00    +0.094 C 
ATOM     13  C   UNL     1      10.551   6.009   7.277  0.00  0.00    +0.164 C 
ATOM     14  C   UNL     1       9.192   6.244   7.932  0.00  0.00    +0.055 C 
ATOM     15  C   UNL     1      10.200   8.382   7.518  0.00  0.00    +0.131 C 
ATOM     17  C   UNL     1      12.512   7.506   6.948  0.00  0.00    +0.226 C 
ENDROOT
BRANCH  12   8
ATOM      5  O   UNL     1       8.528  10.030   5.910  0.00  0.00    -0.253 OA
ATOM      8  N   UNL     1       8.146   7.775   6.312  0.00  0.00    -0.295 N 
ATOM     10  N   UNL     1       7.319   8.753   4.398  0.00  0.00    -0.297 N 
ATOM     19  C   UNL     1       8.042   8.952   5.571  0.00  0.00    +0.300 C 
ATOM     31  H   UNL     1       7.653   6.954   5.975  0.00  0.00    +0.151 HD
ATOM     33  H   UNL     1       7.023   7.809   4.169  0.00  0.00    +0.150 HD
BRANCH  10  22
ATOM     22  C   UNL     1       7.063   9.809   3.447  0.00  0.00    +0.068 C 
ATOM     25  C   UNL     1       5.630  10.307   3.583  0.00  0.00    +0.027 C 
ATOM     26  C   UNL     1       7.348   9.330   2.028  0.00  0.00    +0.027 C 
ENDBRANCH  10  22
ENDBRANCH  12   8
BRANCH  13  16
ATOM      3  O   UNL     1       9.804   4.386   5.695  0.00  0.00    -0.274 OA
ATOM      9  N   UNL     1      11.041   6.208   4.941  0.00  0.00    -0.302 N 
ATOM     16  C   UNL     1      10.407   5.436   5.899  0.00  0.00    +0.234 C 
ATOM     32  H   UNL     1      11.539   7.045   5.232  0.00  0.00    +0.150 HD
BRANCH   9  18
ATOM     18  C   UNL     1      11.070   5.862   3.539  0.00  0.00    +0.163 C 
BRANCH  18  23
ATOM      6  O   UNL     1      12.878   7.421   3.087  0.00  0.00    -0.274 OA
ATOM     11  N   UNL     1      13.137   5.227   2.459  0.00  0.00    -0.328 N 
ATOM     23  C   UNL     1      12.432   6.280   3.004  0.00  0.00    +0.231 C 
ATOM     34  H   UNL     1      14.069   5.367   2.080  0.00  0.00    +0.145 HD
ATOM     35  H   UNL     1      12.759   4.287   2.399  0.00  0.00    +0.145 HD
ENDBRANCH  18  23
BRANCH  18  21
ATOM     21  C   UNL     1       9.951   6.547   2.746  0.00  0.00    +0.074 C 
BRANCH  21  24
ATOM      2  S   UNL     1      10.200   7.542   0.155  0.00  0.00    -0.102 S 
ATOM     24  C   UNL     1      10.029   6.250   1.267  0.00  0.00    -0.008 A 
ATOM     28  C   UNL     1       9.982   5.027   0.636  0.00  0.00    +0.011 A 
ATOM     29  C   UNL     1      10.087   5.152  -0.781  0.00  0.00    +0.008 A 
ATOM     30  C   UNL     1      10.211   6.466  -1.176  0.00  0.00    +0.045 A 
ENDBRANCH  21  24
ENDBRANCH  18  21
ENDBRANCH   9  18
ENDBRANCH  13  16
BRANCH  17  20
ATOM     20  C   UNL     1      13.012   8.925   7.064  0.00  0.00    +0.164 C 
BRANCH  20   1
ATOM      1  S   UNL     1      14.537   9.046   6.120  0.00  0.00    -0.155 S 
ATOM     27  C   UNL     1      14.683  10.848   6.055  0.00  0.00    +0.085 C 
ENDBRANCH  20   1
ENDBRANCH  17  20
TORSDOF 9
ENDMDL
MODEL 10
REMARK VINA RESULT:      -5.3     13.998     17.616
REMARK  Name = 7127933
REMARK  12 active torsions:
REMARK  status: ('A' for Active; 'I' for Inactive)
REMARK    1  A    between atoms: S_1  and  C_20
REMARK    2  A    between atoms: S_1  and  C_27
REMARK    3  A    between atoms: N_8  and  C_12
REMARK    4  A    between atoms: N_9  and  C_18
REMARK    5  A    between atoms: N_10  and  C_22
REMARK    6  A    between atoms: C_13  and  C_16
REMARK    7  A    between atoms: C_17  and  C_20
REMARK    8  A    between atoms: C_18  and  C_21
REMARK    9  A    between atoms: C_18  and  C_23
REMARK   10  A    between atoms: C_21  and  C_24
REMARK   11  A    between atoms: C_22  and  C_25
REMARK   12  A    between atoms: C_22  and  C_26
REMARK                            x       y       z     vdW  Elec       q    Type
REMARK                         _______ _______ _______ _____ _____    ______ ____
ROOT
ATOM      4  O   UNL     1      16.482   9.205   2.482  0.00  0.00    -0.275 OA
ATOM      7  N   UNL     1      15.297   8.924   4.450  0.00  0.00    -0.287 N 
ATOM     12  C   UNL     1      13.999   8.240   6.319  0.00  0.00    +0.094 C 
ATOM     13  C   UNL     1      15.291   7.469   4.429  0.00  0.00    +0.164 C 
ATOM     14  C   UNL     1      14.829   7.052   5.823  0.00  0.00    +0.055 C 
ATOM     15  C   UNL     1      14.679   9.442   5.671  0.00  0.00    +0.131 C 
ATOM     17  C   UNL     1      15.972   9.675   3.501  0.00  0.00    +0.226 C 
ENDROOT
BRANCH  12   8
ATOM      5  O   UNL     1      11.979   6.566   7.521  0.00  0.00    -0.253 OA
ATOM      8  N   UNL     1      12.617   8.129   5.928  0.00  0.00    -0.295 N 
ATOM     10  N   UNL     1      10.441   7.379   5.988  0.00  0.00    -0.297 N 
ATOM     19  C   UNL     1      11.704   7.291   6.567  0.00  0.00    +0.300 C 
ATOM     31  H   UNL     1      12.304   8.639   5.107  0.00  0.00    +0.151 HD
ATOM     33  H   UNL     1      10.294   8.063   5.251  0.00  0.00    +0.150 HD
BRANCH  10  22
ATOM     22  C   UNL     1       9.309   6.614   6.457  0.00  0.00    +0.068 C 
ATOM     25  C   UNL     1       8.349   6.332   5.310  0.00  0.00    +0.027 C 
ATOM     26  C   UNL     1       8.608   7.344   7.597  0.00  0.00    +0.027 C 
ENDBRANCH  10  22
ENDBRANCH  12   8
BRANCH  13  16
ATOM      3  O   UNL     1      13.277   7.590   3.153  0.00  0.00    -0.274 OA
ATOM      9  N   UNL     1      14.784   5.869   2.721  0.00  0.00    -0.302 N 
ATOM     16  C   UNL     1      14.336   7.007   3.370  0.00  0.00    +0.234 C 
ATOM     32  H   UNL     1      15.666   5.452   3.006  0.00  0.00    +0.150 HD
BRANCH   9  18
ATOM     18  C   UNL     1      14.037   5.210   1.675  0.00  0.00    +0.163 C 
BRANCH  18  23
ATOM      6  O   UNL     1      13.360   2.876   1.703  0.00  0.00    -0.274 OA
ATOM     11  N   UNL     1      15.555   3.388   2.144  0.00  0.00    -0.328 N 
ATOM     23  C   UNL     1      14.247   3.713   1.851  0.00  0.00    +0.231 C 
ATOM     34  H   UNL     1      15.835   2.420   2.270  0.00  0.00    +0.145 HD
ATOM     35  H   UNL     1      16.280   4.088   2.260  0.00  0.00    +0.145 HD
ENDBRANCH  18  23
BRANCH  18  21
ATOM     21  C   UNL     1      14.481   5.651   0.275  0.00  0.00    +0.074 C 
BRANCH  21  24
ATOM      2  S   UNL     1      11.997   5.254  -0.925  0.00  0.00    -0.102 S 
ATOM     24  C   UNL     1      13.685   4.979  -0.819  0.00  0.00    -0.008 A 
ATOM     28  C   UNL     1      14.132   4.128  -1.805  0.00  0.00    +0.011 A 
ATOM     29  C   UNL     1      13.076   3.695  -2.659  0.00  0.00    +0.008 A 
ATOM     30  C   UNL     1      11.862   4.233  -2.293  0.00  0.00    +0.045 A 
ENDBRANCH  21  24
ENDBRANCH  18  21
ENDBRANCH   9  18
ENDBRANCH  13  16
BRANCH  17  20
ATOM     20  C   UNL     1      16.046  11.157   3.775  0.00  0.00    +0.164 C 
BRANCH  20   1
ATOM      1  S   UNL     1      17.737  11.541   4.250  0.00  0.00    -0.155 S 
ATOM     27  C   UNL     1      17.452  11.956   5.988  0.00  0.00    +0.085 C 
ENDBRANCH  20   1
ENDBRANCH  17  20
TORSDOF 9
ENDMDL
