MODEL 1
REMARK VINA RESULT:      -7.5      0.000      0.000
REMARK  Name = 44716482
REMARK  7 active torsions:
REMARK  status: ('A' for Active; 'I' for Inactive)
REMARK    1  A    between atoms: O_3  and  C_21
REMARK    2  A    between atoms: O_3  and  C_33
REMARK    3  A    between atoms: N_7  and  C_12
REMARK    4  A    between atoms: N_7  and  C_22
REMARK    5  A    between atoms: C_10  and  C_18
REMARK    6  A    between atoms: C_14  and  C_21
REMARK    7  A    between atoms: C_22  and  C_28
REMARK                            x       y       z     vdW  Elec       q    Type
REMARK                         _______ _______ _______ _____ _____    ______ ____
ROOT
ATOM      5  N   UNL     1      12.355   7.103   5.269  0.00  0.00    -0.274 NA
ATOM      6  N   UNL     1      15.375   7.736   3.126  0.00  0.00    -0.356 N 
ATOM      9  C   UNL     1      12.969   7.405   3.940  0.00  0.00    +0.106 C 
ATOM     10  C   UNL     1      10.896   6.845   5.161  0.00  0.00    +0.090 C 
ATOM     11  C   UNL     1      12.733   6.248   2.956  0.00  0.00    +0.044 C 
ATOM     12  C   UNL     1      11.238   5.988   2.784  0.00  0.00    +0.058 C 
ATOM     13  C   UNL     1      10.605   5.711   4.148  0.00  0.00    +0.042 C 
ATOM     14  C   UNL     1      12.739   8.083   6.321  0.00  0.00    +0.172 C 
ATOM     15  C   UNL     1      14.429   7.695   4.114  0.00  0.00    +0.038 A 
ATOM     16  C   UNL     1      14.268   8.116   6.573  0.00  0.00    +0.068 C 
ATOM     17  C   UNL     1      15.037   8.039   5.302  0.00  0.00    -0.016 A 
ATOM     19  C   UNL     1      16.416   8.264   5.036  0.00  0.00    +0.003 A 
ATOM     20  C   UNL     1      16.600   8.066   3.665  0.00  0.00    +0.047 A 
ATOM     25  C   UNL     1      17.527   8.621   5.824  0.00  0.00    +0.010 A 
ATOM     26  C   UNL     1      17.846   8.208   3.044  0.00  0.00    +0.026 A 
ATOM     27  C   UNL     1      18.779   8.764   5.217  0.00  0.00    +0.001 A 
ATOM     31  C   UNL     1      18.934   8.560   3.847  0.00  0.00    +0.002 A 
ATOM     38  H   UNL     1      15.209   7.550   2.147  0.00  0.00    +0.166 HD
ENDROOT
BRANCH  10  18
ATOM      1  F   UNL     1       9.911   3.593   8.691  0.00  0.00    -0.202 F 
ATOM      2  F   UNL     1       8.430   5.443  10.054  0.00  0.00    -0.202 F 
ATOM     18  C   UNL     1      10.231   6.466   6.482  0.00  0.00    -0.027 A 
ATOM     23  C   UNL     1      10.377   5.177   6.992  0.00  0.00    +0.046 A 
ATOM     24  C   UNL     1       9.475   7.410   7.178  0.00  0.00    +0.008 A 
ATOM     29  C   UNL     1       9.770   4.831   8.199  0.00  0.00    +0.159 A 
ATOM     30  C   UNL     1       8.867   7.065   8.384  0.00  0.00    +0.041 A 
ATOM     32  C   UNL     1       9.014   5.775   8.895  0.00  0.00    +0.158 A 
ENDBRANCH  10  18
BRANCH  14  21
ATOM      4  O   UNL     1      11.343   9.666   5.155  0.00  0.00    -0.249 OA
ATOM     21  C   UNL     1      12.222   9.452   5.978  0.00  0.00    +0.325 C 
BRANCH  21   3
ATOM      3  O   UNL     1      12.881  10.387   6.720  0.00  0.00    -0.467 OA
ATOM     33  C   UNL     1      13.025  11.672   6.105  0.00  0.00    +0.280 C 
ENDBRANCH  21   3
ENDBRANCH  14  21
BRANCH  12   7
ATOM      7  N   UNL     1      11.024   4.864   1.873  0.00  0.00    -0.309 NA
ATOM     39  H   UNL     1      10.823   4.025   2.418  0.00  0.00    +0.123 HD
BRANCH   7  22
ATOM     22  C   UNL     1      12.208   4.625   1.063  0.00  0.00    +0.118 C 
BRANCH  22  28
ATOM      8  N   UNL     1      10.301   3.884  -2.121  0.00  0.00    -0.263 NA
ATOM     28  C   UNL     1      11.860   4.041  -0.279  0.00  0.00    -0.015 A 
ATOM     34  C   UNL     1      12.715   3.151  -0.919  0.00  0.00    +0.008 A 
ATOM     35  C   UNL     1      10.675   4.373  -0.917  0.00  0.00    +0.115 A 
ATOM     36  C   UNL     1      12.365   2.628  -2.158  0.00  0.00    +0.020 A 
ATOM     37  C   UNL     1      11.158   3.022  -2.712  0.00  0.00    +0.111 A 
ENDBRANCH  22  28
ENDBRANCH   7  22
ENDBRANCH  12   7
TORSDOF 6
ENDMDL
MODEL 2
REMARK VINA RESULT:      -7.5     23.437     27.025
REMARK  Name = 44716482
REMARK  7 active torsions:
REMARK  status: ('A' for Active; 'I' for Inactive)
REMARK    1  A    between atoms: O_3  and  C_21
REMARK    2  A    between atoms: O_3  and  C_33
REMARK    3  A    between atoms: N_7  and  C_12
REMARK    4  A    between atoms: N_7  and  C_22
REMARK    5  A    between atoms: C_10  and  C_18
REMARK    6  A    between atoms: C_14  and  C_21
REMARK    7  A    between atoms: C_22  and  C_28
REMARK                            x       y       z     vdW  Elec       q    Type
REMARK                         _______ _______ _______ _____ _____    ______ ____
ROOT
ATOM      5  N   UNL     1      17.017  -7.174  25.866  0.00  0.00    -0.274 NA
ATOM      6  N   UNL     1      17.804  -3.515  26.174  0.00  0.00    -0.356 N 
ATOM      9  C   UNL     1      17.651  -6.035  26.597  0.00  0.00    +0.106 C 
ATOM     10  C   UNL     1      17.083  -8.439  26.642  0.00  0.00    +0.090 C 
ATOM     11  C   UNL     1      16.979  -5.824  27.963  0.00  0.00    +0.044 C 
ATOM     12  C   UNL     1      17.073  -7.094  28.808  0.00  0.00    +0.058 C 
ATOM     13  C   UNL     1      16.452  -8.264  28.045  0.00  0.00    +0.042 C 
ATOM     14  C   UNL     1      17.475  -7.284  24.454  0.00  0.00    +0.172 C 
ATOM     15  C   UNL     1      17.590  -4.798  25.753  0.00  0.00    +0.038 A 
ATOM     16  C   UNL     1      17.138  -6.022  23.620  0.00  0.00    +0.068 C 
ATOM     17  C   UNL     1      17.376  -4.772  24.392  0.00  0.00    -0.016 A 
ATOM     19  C   UNL     1      17.426  -3.415  23.970  0.00  0.00    +0.003 A 
ATOM     20  C   UNL     1      17.694  -2.649  25.107  0.00  0.00    +0.047 A 
ATOM     25  C   UNL     1      17.274  -2.761  22.732  0.00  0.00    +0.010 A 
ATOM     26  C   UNL     1      17.818  -1.254  25.064  0.00  0.00    +0.026 A 
ATOM     27  C   UNL     1      17.392  -1.368  22.675  0.00  0.00    +0.001 A 
ATOM     31  C   UNL     1      17.660  -0.629  23.825  0.00  0.00    +0.002 A 
ATOM     38  H   UNL     1      18.010  -3.234  27.123  0.00  0.00    +0.166 HD
ENDROOT
BRANCH  10  18
ATOM      1  F   UNL     1      13.134 -10.505  24.608  0.00  0.00    -0.202 F 
ATOM      2  F   UNL     1      14.517 -12.818  24.147  0.00  0.00    -0.202 F 
ATOM     18  C   UNL     1      16.390  -9.621  25.968  0.00  0.00    -0.027 A 
ATOM     23  C   UNL     1      15.052  -9.521  25.589  0.00  0.00    +0.046 A 
ATOM     24  C   UNL     1      17.096 -10.801  25.733  0.00  0.00    +0.008 A 
ATOM     29  C   UNL     1      14.419 -10.601  24.973  0.00  0.00    +0.159 A 
ATOM     30  C   UNL     1      16.463 -11.881  25.118  0.00  0.00    +0.041 A 
ATOM     32  C   UNL     1      15.124 -11.781  24.737  0.00  0.00    +0.158 A 
ENDBRANCH  10  18
BRANCH  14  21
ATOM      4  O   UNL     1      19.540  -8.251  25.239  0.00  0.00    -0.249 OA
ATOM     21  C   UNL     1      18.946  -7.585  24.401  0.00  0.00    +0.325 C 
BRANCH  21   3
ATOM      3  O   UNL     1      19.490  -7.008  23.293  0.00  0.00    -0.467 OA
ATOM     33  C   UNL     1      20.803  -7.459  22.944  0.00  0.00    +0.280 C 
ENDBRANCH  21   3
ENDBRANCH  14  21
BRANCH  12   7
ATOM      7  N   UNL     1      16.402  -6.895  30.092  0.00  0.00    -0.309 NA
ATOM     39  H   UNL     1      15.665  -7.594  30.197  0.00  0.00    +0.123 HD
BRANCH   7  22
ATOM     22  C   UNL     1      15.804  -5.570  30.161  0.00  0.00    +0.118 C 
BRANCH  22  28
ATOM      8  N   UNL     1      12.812  -4.774  32.338  0.00  0.00    -0.263 NA
ATOM     28  C   UNL     1      14.412  -5.613  30.731  0.00  0.00    -0.015 A 
ATOM     34  C   UNL     1      13.455  -6.486  30.225  0.00  0.00    +0.008 A 
ATOM     35  C   UNL     1      14.043  -4.785  31.779  0.00  0.00    +0.115 A 
ATOM     36  C   UNL     1      12.179  -6.503  30.773  0.00  0.00    +0.020 A 
ATOM     37  C   UNL     1      11.909  -5.635  31.819  0.00  0.00    +0.111 A 
ENDBRANCH  22  28
ENDBRANCH   7  22
ENDBRANCH  12   7
TORSDOF 6
ENDMDL
MODEL 3
REMARK VINA RESULT:      -7.2     28.505     32.092
REMARK  Name = 44716482
REMARK  7 active torsions:
REMARK  status: ('A' for Active; 'I' for Inactive)
REMARK    1  A    between atoms: O_3  and  C_21
REMARK    2  A    between atoms: O_3  and  C_33
REMARK    3  A    between atoms: N_7  and  C_12
REMARK    4  A    between atoms: N_7  and  C_22
REMARK    5  A    between atoms: C_10  and  C_18
REMARK    6  A    between atoms: C_14  and  C_21
REMARK    7  A    between atoms: C_22  and  C_28
REMARK                            x       y       z     vdW  Elec       q    Type
REMARK                         _______ _______ _______ _____ _____    ______ ____
ROOT
ATOM      5  N   UNL     1      -9.779  -9.630  17.319  0.00  0.00    -0.274 NA
ATOM      6  N   UNL     1      -7.259 -11.731  19.147  0.00  0.00    -0.356 N 
ATOM      9  C   UNL     1      -9.441 -10.803  18.182  0.00  0.00    +0.106 C 
ATOM     10  C   UNL     1     -11.247  -9.444  17.183  0.00  0.00    +0.090 C 
ATOM     11  C   UNL     1     -10.062 -10.648  19.579  0.00  0.00    +0.044 C 
ATOM     12  C   UNL     1     -11.579 -10.503  19.478  0.00  0.00    +0.058 C 
ATOM     13  C   UNL     1     -11.923  -9.323  18.570  0.00  0.00    +0.042 C 
ATOM     14  C   UNL     1      -9.027  -9.619  16.034  0.00  0.00    +0.172 C 
ATOM     15  C   UNL     1      -7.953 -10.965  18.251  0.00  0.00    +0.038 A 
ATOM     16  C   UNL     1      -7.493  -9.546  16.245  0.00  0.00    +0.068 C 
ATOM     17  C   UNL     1      -7.049 -10.416  17.368  0.00  0.00    -0.016 A 
ATOM     19  C   UNL     1      -5.748 -10.834  17.760  0.00  0.00    +0.003 A 
ATOM     20  C   UNL     1      -5.909 -11.656  18.879  0.00  0.00    +0.047 A 
ATOM     25  C   UNL     1      -4.448 -10.598  17.273  0.00  0.00    +0.010 A 
ATOM     26  C   UNL     1      -4.827 -12.255  19.535  0.00  0.00    +0.026 A 
ATOM     27  C   UNL     1      -3.357 -11.189  17.921  0.00  0.00    +0.001 A 
ATOM     31  C   UNL     1      -3.547 -12.004  19.035  0.00  0.00    +0.002 A 
ATOM     38  H   UNL     1      -7.666 -12.271  19.898  0.00  0.00    +0.166 HD
ENDROOT
BRANCH  10  18
ATOM      1  F   UNL     1     -13.885  -7.326  13.639  0.00  0.00    -0.202 F 
ATOM      2  F   UNL     1     -12.725  -4.904  14.152  0.00  0.00    -0.202 F 
ATOM     18  C   UNL     1     -11.647  -8.219  16.364  0.00  0.00    -0.027 A 
ATOM     23  C   UNL     1     -12.602  -8.335  15.355  0.00  0.00    +0.046 A 
ATOM     24  C   UNL     1     -11.055  -6.983  16.626  0.00  0.00    +0.008 A 
ATOM     29  C   UNL     1     -12.967  -7.215  14.609  0.00  0.00    +0.159 A 
ATOM     30  C   UNL     1     -11.419  -5.863  15.879  0.00  0.00    +0.041 A 
ATOM     32  C   UNL     1     -12.376  -5.979  14.870  0.00  0.00    +0.158 A 
ENDBRANCH  10  18
BRANCH  14  21
ATOM      4  O   UNL     1      -9.111 -11.965  15.484  0.00  0.00    -0.249 OA
ATOM     21  C   UNL     1      -9.398 -10.811  15.198  0.00  0.00    +0.325 C 
BRANCH  21   3
ATOM      3  O   UNL     1     -10.089 -10.398  14.098  0.00  0.00    -0.467 OA
ATOM     33  C   UNL     1      -9.288 -10.014  12.975  0.00  0.00    +0.280 C 
ENDBRANCH  21   3
ENDBRANCH  14  21
BRANCH  12   7
ATOM      7  N   UNL     1     -12.157 -10.322  20.809  0.00  0.00    -0.309 NA
ATOM     39  H   UNL     1     -11.441 -10.505  21.513  0.00  0.00    +0.123 HD
BRANCH   7  22
ATOM     22  C   UNL     1     -13.265 -11.241  21.019  0.00  0.00    +0.118 C 
BRANCH  22  28
ATOM      8  N   UNL     1     -16.815 -10.532  22.123  0.00  0.00    -0.263 NA
ATOM     28  C   UNL     1     -14.562 -10.512  21.246  0.00  0.00    -0.015 A 
ATOM     34  C   UNL     1     -14.733  -9.200  20.818  0.00  0.00    +0.008 A 
ATOM     35  C   UNL     1     -15.625 -11.128  21.889  0.00  0.00    +0.115 A 
ATOM     36  C   UNL     1     -15.943  -8.554  21.042  0.00  0.00    +0.020 A 
ATOM     37  C   UNL     1     -16.944  -9.257  21.693  0.00  0.00    +0.111 A 
ENDBRANCH  22  28
ENDBRANCH   7  22
ENDBRANCH  12   7
TORSDOF 6
ENDMDL
MODEL 4
REMARK VINA RESULT:      -7.2     28.678     32.356
REMARK  Name = 44716482
REMARK  7 active torsions:
REMARK  status: ('A' for Active; 'I' for Inactive)
REMARK    1  A    between atoms: O_3  and  C_21
REMARK    2  A    between atoms: O_3  and  C_33
REMARK    3  A    between atoms: N_7  and  C_12
REMARK    4  A    between atoms: N_7  and  C_22
REMARK    5  A    between atoms: C_10  and  C_18
REMARK    6  A    between atoms: C_14  and  C_21
REMARK    7  A    between atoms: C_22  and  C_28
REMARK                            x       y       z     vdW  Elec       q    Type
REMARK                         _______ _______ _______ _____ _____    ______ ____
ROOT
ATOM      5  N   UNL     1      -9.951  -9.695  17.461  0.00  0.00    -0.274 NA
ATOM      6  N   UNL     1      -7.396 -11.787  19.249  0.00  0.00    -0.356 N 
ATOM      9  C   UNL     1      -9.596 -10.871  18.312  0.00  0.00    +0.106 C 
ATOM     10  C   UNL     1     -11.422  -9.520  17.340  0.00  0.00    +0.090 C 
ATOM     11  C   UNL     1     -10.204 -10.730  19.716  0.00  0.00    +0.044 C 
ATOM     12  C   UNL     1     -11.723 -10.598  19.631  0.00  0.00    +0.058 C 
ATOM     13  C   UNL     1     -12.086  -9.414  18.735  0.00  0.00    +0.042 C 
ATOM     14  C   UNL     1      -9.213  -9.668  16.169  0.00  0.00    +0.172 C 
ATOM     15  C   UNL     1      -8.105 -11.021  18.366  0.00  0.00    +0.038 A 
ATOM     16  C   UNL     1      -7.677  -9.584  16.365  0.00  0.00    +0.068 C 
ATOM     17  C   UNL     1      -7.215 -10.458  17.477  0.00  0.00    -0.016 A 
ATOM     19  C   UNL     1      -5.907 -10.868  17.854  0.00  0.00    +0.003 A 
ATOM     20  C   UNL     1      -6.050 -11.699  18.968  0.00  0.00    +0.047 A 
ATOM     25  C   UNL     1      -4.613 -10.618  17.355  0.00  0.00    +0.010 A 
ATOM     26  C   UNL     1      -4.956 -12.294  19.610  0.00  0.00    +0.026 A 
ATOM     27  C   UNL     1      -3.511 -11.204  17.988  0.00  0.00    +0.001 A 
ATOM     31  C   UNL     1      -3.683 -12.029  19.098  0.00  0.00    +0.002 A 
ATOM     38  H   UNL     1      -7.792 -12.336  20.000  0.00  0.00    +0.166 HD
ENDROOT
BRANCH  10  18
ATOM      1  F   UNL     1     -14.297  -7.338  14.028  0.00  0.00    -0.202 F 
ATOM      2  F   UNL     1     -12.968  -4.972  14.356  0.00  0.00    -0.202 F 
ATOM     18  C   UNL     1     -11.840  -8.293  16.535  0.00  0.00    -0.027 A 
ATOM     23  C   UNL     1     -12.899  -8.378  15.631  0.00  0.00    +0.046 A 
ATOM     24  C   UNL     1     -11.162  -7.085  16.702  0.00  0.00    +0.008 A 
ATOM     29  C   UNL     1     -13.280  -7.256  14.896  0.00  0.00    +0.159 A 
ATOM     30  C   UNL     1     -11.543  -5.963  15.966  0.00  0.00    +0.041 A 
ATOM     32  C   UNL     1     -12.603  -6.049  15.063  0.00  0.00    +0.158 A 
ENDBRANCH  10  18
BRANCH  14  21
ATOM      4  O   UNL     1      -9.175 -11.993  15.531  0.00  0.00    -0.249 OA
ATOM     21  C   UNL     1      -9.582 -10.858  15.328  0.00  0.00    +0.325 C 
BRANCH  21   3
ATOM      3  O   UNL     1     -10.423 -10.466  14.329  0.00  0.00    -0.467 OA
ATOM     33  C   UNL     1      -9.822  -9.692  13.286  0.00  0.00    +0.280 C 
ENDBRANCH  21   3
ENDBRANCH  14  21
BRANCH  12   7
ATOM      7  N   UNL     1     -12.290 -10.431  20.969  0.00  0.00    -0.309 NA
ATOM     39  H   UNL     1     -11.575 -10.648  21.665  0.00  0.00    +0.123 HD
BRANCH   7  22
ATOM     22  C   UNL     1     -13.421 -11.324  21.165  0.00  0.00    +0.118 C 
BRANCH  22  28
ATOM      8  N   UNL     1     -11.877 -14.331  22.867  0.00  0.00    -0.263 NA
ATOM     28  C   UNL     1     -13.132 -12.374  22.204  0.00  0.00    -0.015 A 
ATOM     34  C   UNL     1     -13.808 -12.388  23.418  0.00  0.00    +0.008 A 
ATOM     35  C   UNL     1     -12.183 -13.359  21.979  0.00  0.00    +0.115 A 
ATOM     36  C   UNL     1     -13.521 -13.372  24.357  0.00  0.00    +0.020 A 
ATOM     37  C   UNL     1     -12.555 -14.312  24.036  0.00  0.00    +0.111 A 
ENDBRANCH  22  28
ENDBRANCH   7  22
ENDBRANCH  12   7
TORSDOF 6
ENDMDL
MODEL 5
REMARK VINA RESULT:      -7.1     32.894     36.677
REMARK  Name = 44716482
REMARK  7 active torsions:
REMARK  status: ('A' for Active; 'I' for Inactive)
REMARK    1  A    between atoms: O_3  and  C_21
REMARK    2  A    between atoms: O_3  and  C_33
REMARK    3  A    between atoms: N_7  and  C_12
REMARK    4  A    between atoms: N_7  and  C_22
REMARK    5  A    between atoms: C_10  and  C_18
REMARK    6  A    between atoms: C_14  and  C_21
REMARK    7  A    between atoms: C_22  and  C_28
REMARK                            x       y       z     vdW  Elec       q    Type
REMARK                         _______ _______ _______ _____ _____    ______ ____
ROOT
ATOM      5  N   UNL     1      -2.180   9.898  36.959  0.00  0.00    -0.274 NA
ATOM      6  N   UNL     1      -2.699  12.800  34.632  0.00  0.00    -0.356 N 
ATOM      9  C   UNL     1      -2.998  11.054  36.481  0.00  0.00    +0.106 C 
ATOM     10  C   UNL     1      -2.901   9.090  37.977  0.00  0.00    +0.090 C 
ATOM     11  C   UNL     1      -4.331  10.569  35.889  0.00  0.00    +0.044 C 
ATOM     12  C   UNL     1      -5.121   9.775  36.927  0.00  0.00    +0.058 C 
ATOM     13  C   UNL     1      -4.272   8.612  37.438  0.00  0.00    +0.042 C 
ATOM     14  C   UNL     1      -0.794  10.284  37.338  0.00  0.00    +0.172 C 
ATOM     15  C   UNL     1      -2.209  11.853  35.488  0.00  0.00    +0.038 A 
ATOM     16  C   UNL     1       0.000  10.886  36.151  0.00  0.00    +0.068 C 
ATOM     17  C   UNL     1      -0.840  11.804  35.335  0.00  0.00    -0.016 A 
ATOM     19  C   UNL     1      -0.483  12.733  34.320  0.00  0.00    +0.003 A 
ATOM     20  C   UNL     1      -1.668  13.342  33.895  0.00  0.00    +0.047 A 
ATOM     25  C   UNL     1       0.731  13.122  33.720  0.00  0.00    +0.010 A 
ATOM     26  C   UNL     1      -1.695  14.324  32.897  0.00  0.00    +0.026 A 
ATOM     27  C   UNL     1       0.718  14.099  32.719  0.00  0.00    +0.001 A 
ATOM     31  C   UNL     1      -0.478  14.690  32.316  0.00  0.00    +0.002 A 
ATOM     38  H   UNL     1      -3.670  13.066  34.544  0.00  0.00    +0.166 HD
ENDROOT
BRANCH  10  18
ATOM      1  F   UNL     1      -2.300   5.341  41.072  0.00  0.00    -0.202 F 
ATOM      2  F   UNL     1      -0.062   4.524  39.732  0.00  0.00    -0.202 F 
ATOM     18  C   UNL     1      -2.135   7.857  38.451  0.00  0.00    -0.027 A 
ATOM     23  C   UNL     1      -2.576   7.148  39.568  0.00  0.00    +0.046 A 
ATOM     24  C   UNL     1      -0.993   7.440  37.766  0.00  0.00    +0.008 A 
ATOM     29  C   UNL     1      -1.877   6.022  40.000  0.00  0.00    +0.159 A 
ATOM     30  C   UNL     1      -0.293   6.314  38.199  0.00  0.00    +0.041 A 
ATOM     32  C   UNL     1      -0.735   5.605  39.316  0.00  0.00    +0.158 A 
ENDBRANCH  10  18
BRANCH  14  21
ATOM      4  O   UNL     1      -1.452  11.041  39.531  0.00  0.00    -0.249 OA
ATOM     21  C   UNL     1      -0.813  11.231  38.505  0.00  0.00    +0.325 C 
BRANCH  21   3
ATOM      3  O   UNL     1      -0.019  12.305  38.234  0.00  0.00    -0.467 OA
ATOM     33  C   UNL     1      -0.505  13.566  38.707  0.00  0.00    +0.280 C 
ENDBRANCH  21   3
ENDBRANCH  14  21
BRANCH  12   7
ATOM      7  N   UNL     1      -6.372   9.290  36.345  0.00  0.00    -0.309 NA
ATOM     39  H   UNL     1      -6.827  10.055  35.845  0.00  0.00    +0.123 HD
BRANCH   7  22
ATOM     22  C   UNL     1      -7.270   8.807  37.382  0.00  0.00    +0.118 C 
BRANCH  22  28
ATOM      8  N   UNL     1     -10.404   9.589  35.408  0.00  0.00    -0.263 NA
ATOM     28  C   UNL     1      -8.698   8.761  36.909  0.00  0.00    -0.015 A 
ATOM     34  C   UNL     1      -9.620   7.899  37.491  0.00  0.00    +0.008 A 
ATOM     35  C   UNL     1      -9.137   9.579  35.879  0.00  0.00    +0.115 A 
ATOM     36  C   UNL     1     -10.932   7.881  37.034  0.00  0.00    +0.020 A 
ATOM     37  C   UNL     1     -11.271   8.737  35.999  0.00  0.00    +0.111 A 
ENDBRANCH  22  28
ENDBRANCH   7  22
ENDBRANCH  12   7
TORSDOF 6
ENDMDL
MODEL 6
REMARK VINA RESULT:      -7.1     15.699     18.316
REMARK  Name = 44716482
REMARK  7 active torsions:
REMARK  status: ('A' for Active; 'I' for Inactive)
REMARK    1  A    between atoms: O_3  and  C_21
REMARK    2  A    between atoms: O_3  and  C_33
REMARK    3  A    between atoms: N_7  and  C_12
REMARK    4  A    between atoms: N_7  and  C_22
REMARK    5  A    between atoms: C_10  and  C_18
REMARK    6  A    between atoms: C_14  and  C_21
REMARK    7  A    between atoms: C_22  and  C_28
REMARK                            x       y       z     vdW  Elec       q    Type
REMARK                         _______ _______ _______ _____ _____    ______ ____
ROOT
ATOM      5  N   UNL     1      18.600  -8.532  -1.614  0.00  0.00    -0.274 NA
ATOM      6  N   UNL     1      20.840  -8.394   1.398  0.00  0.00    -0.356 N 
ATOM      9  C   UNL     1      19.558  -9.188  -0.671  0.00  0.00    +0.106 C 
ATOM     10  C   UNL     1      18.007  -9.504  -2.569  0.00  0.00    +0.090 C 
ATOM     11  C   UNL     1      18.863 -10.310   0.116  0.00  0.00    +0.044 C 
ATOM     12  C   UNL     1      18.284 -11.354  -0.837  0.00  0.00    +0.058 C 
ATOM     13  C   UNL     1      17.330 -10.677  -1.820  0.00  0.00    +0.042 C 
ATOM     14  C   UNL     1      19.153  -7.301  -2.240  0.00  0.00    +0.172 C 
ATOM     15  C   UNL     1      20.152  -8.157   0.240  0.00  0.00    +0.038 A 
ATOM     16  C   UNL     1      19.511  -6.213  -1.196  0.00  0.00    +0.068 C 
ATOM     17  C   UNL     1      20.157  -6.798   0.010  0.00  0.00    -0.016 A 
ATOM     19  C   UNL     1      20.845  -6.177   1.089  0.00  0.00    +0.003 A 
ATOM     20  C   UNL     1      21.260  -7.201   1.945  0.00  0.00    +0.047 A 
ATOM     25  C   UNL     1      21.160  -4.845   1.422  0.00  0.00    +0.010 A 
ATOM     26  C   UNL     1      21.978  -6.954   3.122  0.00  0.00    +0.026 A 
ATOM     27  C   UNL     1      21.874  -4.584   2.596  0.00  0.00    +0.001 A 
ATOM     31  C   UNL     1      22.275  -5.625   3.432  0.00  0.00    +0.002 A 
ATOM     38  H   UNL     1      21.014  -9.304   1.802  0.00  0.00    +0.166 HD
ENDROOT
BRANCH  10  18
ATOM      1  F   UNL     1      13.719  -7.274  -3.369  0.00  0.00    -0.202 F 
ATOM      2  F   UNL     1      14.170  -7.260  -6.065  0.00  0.00    -0.202 F 
ATOM     18  C   UNL     1      16.971  -8.898  -3.512  0.00  0.00    -0.027 A 
ATOM     23  C   UNL     1      15.795  -8.353  -2.999  0.00  0.00    +0.046 A 
ATOM     24  C   UNL     1      17.201  -8.891  -4.888  0.00  0.00    +0.008 A 
ATOM     29  C   UNL     1      14.849  -7.799  -3.861  0.00  0.00    +0.159 A 
ATOM     30  C   UNL     1      16.255  -8.338  -5.751  0.00  0.00    +0.041 A 
ATOM     32  C   UNL     1      15.079  -7.791  -5.237  0.00  0.00    +0.158 A 
ENDBRANCH  10  18
BRANCH  14  21
ATOM      4  O   UNL     1      20.857  -8.744  -3.150  0.00  0.00    -0.249 OA
ATOM     21  C   UNL     1      20.343  -7.635  -3.096  0.00  0.00    +0.325 C 
BRANCH  21   3
ATOM      3  O   UNL     1      20.739  -6.525  -3.780  0.00  0.00    -0.467 OA
ATOM     33  C   UNL     1      19.986  -6.229  -4.961  0.00  0.00    +0.280 C 
ENDBRANCH  21   3
ENDBRANCH  14  21
BRANCH  12   7
ATOM      7  N   UNL     1      17.597 -12.400  -0.080  0.00  0.00    -0.309 NA
ATOM     39  H   UNL     1      17.573 -13.255  -0.636  0.00  0.00    +0.123 HD
BRANCH   7  22
ATOM     22  C   UNL     1      16.231 -12.002   0.226  0.00  0.00    +0.118 C 
BRANCH  22  28
ATOM      8  N   UNL     1      15.900 -11.496   3.962  0.00  0.00    -0.263 NA
ATOM     28  C   UNL     1      15.883 -12.258   1.668  0.00  0.00    -0.015 A 
ATOM     34  C   UNL     1      15.252 -13.434   2.056  0.00  0.00    +0.008 A 
ATOM     35  C   UNL     1      16.183 -11.328   2.651  0.00  0.00    +0.115 A 
ATOM     36  C   UNL     1      14.944 -13.642   3.395  0.00  0.00    +0.020 A 
ATOM     37  C   UNL     1      15.286 -12.652   4.301  0.00  0.00    +0.111 A 
ENDBRANCH  22  28
ENDBRANCH   7  22
ENDBRANCH  12   7
TORSDOF 6
ENDMDL
MODEL 7
REMARK VINA RESULT:      -7.1     29.391     32.560
REMARK  Name = 44716482
REMARK  7 active torsions:
REMARK  status: ('A' for Active; 'I' for Inactive)
REMARK    1  A    between atoms: O_3  and  C_21
REMARK    2  A    between atoms: O_3  and  C_33
REMARK    3  A    between atoms: N_7  and  C_12
REMARK    4  A    between atoms: N_7  and  C_22
REMARK    5  A    between atoms: C_10  and  C_18
REMARK    6  A    between atoms: C_14  and  C_21
REMARK    7  A    between atoms: C_22  and  C_28
REMARK                            x       y       z     vdW  Elec       q    Type
REMARK                         _______ _______ _______ _____ _____    ______ ____
ROOT
ATOM      5  N   UNL     1      -9.699 -10.683  18.569  0.00  0.00    -0.274 NA
ATOM      6  N   UNL     1     -13.338  -9.946  19.135  0.00  0.00    -0.356 N 
ATOM      9  C   UNL     1     -11.029 -10.226  18.063  0.00  0.00    +0.106 C 
ATOM     10  C   UNL     1      -8.626 -10.497  17.558  0.00  0.00    +0.090 C 
ATOM     11  C   UNL     1     -10.976  -8.747  17.651  0.00  0.00    +0.044 C 
ATOM     12  C   UNL     1      -9.914  -8.529  16.574  0.00  0.00    +0.058 C 
ATOM     13  C   UNL     1      -8.560  -9.026  17.081  0.00  0.00    +0.042 C 
ATOM     14  C   UNL     1      -9.746 -12.037  19.186  0.00  0.00    +0.172 C 
ATOM     15  C   UNL     1     -12.076 -10.473  19.107  0.00  0.00    +0.038 A 
ATOM     16  C   UNL     1     -10.694 -12.098  20.411  0.00  0.00    +0.068 C 
ATOM     17  C   UNL     1     -11.950 -11.336  20.174  0.00  0.00    -0.016 A 
ATOM     19  C   UNL     1     -13.170 -11.308  20.903  0.00  0.00    +0.003 A 
ATOM     20  C   UNL     1     -14.022 -10.427  20.230  0.00  0.00    +0.047 A 
ATOM     25  C   UNL     1     -13.639 -11.947  22.068  0.00  0.00    +0.010 A 
ATOM     26  C   UNL     1     -15.323 -10.155  20.669  0.00  0.00    +0.026 A 
ATOM     27  C   UNL     1     -14.936 -11.682  22.519  0.00  0.00    +0.001 A 
ATOM     31  C   UNL     1     -15.764 -10.799  21.828  0.00  0.00    +0.002 A 
ATOM     38  H   UNL     1     -13.718  -9.297  18.459  0.00  0.00    +0.166 HD
ENDROOT
BRANCH  10  18
ATOM      1  F   UNL     1      -4.195 -12.439  16.786  0.00  0.00    -0.202 F 
ATOM      2  F   UNL     1      -3.469 -11.942  19.375  0.00  0.00    -0.202 F 
ATOM     18  C   UNL     1      -7.234 -10.887  18.048  0.00  0.00    -0.027 A 
ATOM     23  C   UNL     1      -6.333 -11.498  17.176  0.00  0.00    +0.046 A 
ATOM     24  C   UNL     1      -6.863 -10.634  19.369  0.00  0.00    +0.008 A 
ATOM     29  C   UNL     1      -5.061 -11.853  17.623  0.00  0.00    +0.159 A 
ATOM     30  C   UNL     1      -5.591 -10.990  19.817  0.00  0.00    +0.041 A 
ATOM     32  C   UNL     1      -4.690 -11.600  18.944  0.00  0.00    +0.158 A 
ENDBRANCH  10  18
BRANCH  14  21
ATOM      4  O   UNL     1     -11.237 -13.158  17.659  0.00  0.00    -0.249 OA
ATOM     21  C   UNL     1     -10.126 -13.069  18.162  0.00  0.00    +0.325 C 
BRANCH  21   3
ATOM      3  O   UNL     1      -9.051 -13.864  17.896  0.00  0.00    -0.467 OA
ATOM     33  C   UNL     1      -8.842 -14.176  16.515  0.00  0.00    +0.280 C 
ENDBRANCH  21   3
ENDBRANCH  14  21
BRANCH  12   7
ATOM      7  N   UNL     1      -9.847  -7.114  16.213  0.00  0.00    -0.309 NA
ATOM     39  H   UNL     1      -9.013  -6.700  16.631  0.00  0.00    +0.123 HD
BRANCH   7  22
ATOM     22  C   UNL     1     -11.018  -6.401  16.700  0.00  0.00    +0.118 C 
BRANCH  22  28
ATOM      8  N   UNL     1     -12.531  -5.326  13.403  0.00  0.00    -0.263 NA
ATOM     28  C   UNL     1     -12.030  -6.175  15.610  0.00  0.00    -0.015 A 
ATOM     34  C   UNL     1     -13.353  -6.573  15.765  0.00  0.00    +0.008 A 
ATOM     35  C   UNL     1     -11.673  -5.561  14.420  0.00  0.00    +0.115 A 
ATOM     36  C   UNL     1     -14.265  -6.348  14.740  0.00  0.00    +0.020 A 
ATOM     37  C   UNL     1     -13.809  -5.727  13.590  0.00  0.00    +0.111 A 
ENDBRANCH  22  28
ENDBRANCH   7  22
ENDBRANCH  12   7
TORSDOF 6
ENDMDL
MODEL 8
REMARK VINA RESULT:      -7.1      3.860      6.510
REMARK  Name = 44716482
REMARK  7 active torsions:
REMARK  status: ('A' for Active; 'I' for Inactive)
REMARK    1  A    between atoms: O_3  and  C_21
REMARK    2  A    between atoms: O_3  and  C_33
REMARK    3  A    between atoms: N_7  and  C_12
REMARK    4  A    between atoms: N_7  and  C_22
REMARK    5  A    between atoms: C_10  and  C_18
REMARK    6  A    between atoms: C_14  and  C_21
REMARK    7  A    between atoms: C_22  and  C_28
REMARK                            x       y       z     vdW  Elec       q    Type
REMARK                         _______ _______ _______ _____ _____    ______ ____
ROOT
ATOM      5  N   UNL     1       9.740   7.504   3.260  0.00  0.00    -0.274 NA
ATOM      6  N   UNL     1      10.337   4.782   5.779  0.00  0.00    -0.356 N 
ATOM      9  C   UNL     1      10.464   6.272   3.700  0.00  0.00    +0.106 C 
ATOM     10  C   UNL     1      10.085   7.883   1.866  0.00  0.00    +0.090 C 
ATOM     11  C   UNL     1      10.150   5.094   2.765  0.00  0.00    +0.044 C 
ATOM     12  C   UNL     1      10.539   5.433   1.327  0.00  0.00    +0.058 C 
ATOM     13  C   UNL     1       9.823   6.711   0.889  0.00  0.00    +0.042 C 
ATOM     14  C   UNL     1       9.829   8.613   4.249  0.00  0.00    +0.172 C 
ATOM     15  C   UNL     1      10.108   5.960   5.122  0.00  0.00    +0.038 A 
ATOM     16  C   UNL     1       9.209   8.239   5.619  0.00  0.00    +0.068 C 
ATOM     17  C   UNL     1       9.553   6.848   6.018  0.00  0.00    -0.016 A 
ATOM     19  C   UNL     1       9.404   6.175   7.262  0.00  0.00    +0.003 A 
ATOM     20  C   UNL     1       9.902   4.882   7.083  0.00  0.00    +0.047 A 
ATOM     25  C   UNL     1       8.898   6.538   8.525  0.00  0.00    +0.010 A 
ATOM     26  C   UNL     1       9.918   3.931   8.111  0.00  0.00    +0.026 A 
ATOM     27  C   UNL     1       8.906   5.598   9.561  0.00  0.00    +0.001 A 
ATOM     31  C   UNL     1       9.409   4.315   9.354  0.00  0.00    +0.002 A 
ATOM     38  H   UNL     1      10.759   3.957   5.375  0.00  0.00    +0.166 HD
ENDROOT
BRANCH  10  18
ATOM      1  F   UNL     1       5.893  10.211   0.862  0.00  0.00    -0.202 F 
ATOM      2  F   UNL     1       7.263  12.386  -0.070  0.00  0.00    -0.202 F 
ATOM     18  C   UNL     1       9.323   9.099   1.344  0.00  0.00    -0.027 A 
ATOM     23  C   UNL     1       7.929   9.099   1.341  0.00  0.00    +0.046 A 
ATOM     24  C   UNL     1      10.022  10.209   0.868  0.00  0.00    +0.008 A 
ATOM     29  C   UNL     1       7.233  10.210   0.864  0.00  0.00    +0.159 A 
ATOM     30  C   UNL     1       9.326  11.319   0.391  0.00  0.00    +0.041 A 
ATOM     32  C   UNL     1       7.931  11.319   0.389  0.00  0.00    +0.158 A 
ENDBRANCH  10  18
BRANCH  14  21
ATOM      4  O   UNL     1      12.093   9.014   3.519  0.00  0.00    -0.249 OA
ATOM     21  C   UNL     1      11.256   9.060   4.410  0.00  0.00    +0.325 C 
BRANCH  21   3
ATOM      3  O   UNL     1      11.450   9.513   5.681  0.00  0.00    -0.467 OA
ATOM     33  C   UNL     1      12.341  10.626   5.808  0.00  0.00    +0.280 C 
ENDBRANCH  21   3
ENDBRANCH  14  21
BRANCH  12   7
ATOM      7  N   UNL     1      10.206   4.320   0.439  0.00  0.00    -0.309 NA
ATOM     39  H   UNL     1      10.127   3.464   0.990  0.00  0.00    +0.123 HD
BRANCH   7  22
ATOM     22  C   UNL     1      11.241   4.136  -0.567  0.00  0.00    +0.118 C 
BRANCH  22  28
ATOM      8  N   UNL     1      14.855   5.068   0.061  0.00  0.00    -0.263 NA
ATOM     28  C   UNL     1      12.619   4.149   0.038  0.00  0.00    -0.015 A 
ATOM     34  C   UNL     1      12.951   3.300   1.088  0.00  0.00    +0.008 A 
ATOM     35  C   UNL     1      13.599   5.007  -0.435  0.00  0.00    +0.115 A 
ATOM     36  C   UNL     1      14.232   3.334   1.625  0.00  0.00    +0.020 A 
ATOM     37  C   UNL     1      15.140   4.228   1.081  0.00  0.00    +0.111 A 
ENDBRANCH  22  28
ENDBRANCH   7  22
ENDBRANCH  12   7
TORSDOF 6
ENDMDL
MODEL 9
REMARK VINA RESULT:      -7.0     19.196     22.726
REMARK  Name = 44716482
REMARK  7 active torsions:
REMARK  status: ('A' for Active; 'I' for Inactive)
REMARK    1  A    between atoms: O_3  and  C_21
REMARK    2  A    between atoms: O_3  and  C_33
REMARK    3  A    between atoms: N_7  and  C_12
REMARK    4  A    between atoms: N_7  and  C_22
REMARK    5  A    between atoms: C_10  and  C_18
REMARK    6  A    between atoms: C_14  and  C_21
REMARK    7  A    between atoms: C_22  and  C_28
REMARK                            x       y       z     vdW  Elec       q    Type
REMARK                         _______ _______ _______ _____ _____    ______ ____
ROOT
ATOM      5  N   UNL     1      21.564   5.258  22.690  0.00  0.00    -0.274 NA
ATOM      6  N   UNL     1      18.739   7.653  22.062  0.00  0.00    -0.356 N 
ATOM      9  C   UNL     1      20.948   6.613  22.834  0.00  0.00    +0.106 C 
ATOM     10  C   UNL     1      22.814   5.129  23.483  0.00  0.00    +0.090 C 
ATOM     11  C   UNL     1      20.644   6.918  24.309  0.00  0.00    +0.044 C 
ATOM     12  C   UNL     1      21.919   6.842  25.146  0.00  0.00    +0.058 C 
ATOM     13  C   UNL     1      22.565   5.467  24.973  0.00  0.00    +0.042 C 
ATOM     14  C   UNL     1      21.676   4.819  21.273  0.00  0.00    +0.172 C 
ATOM     15  C   UNL     1      19.715   6.698  21.985  0.00  0.00    +0.038 A 
ATOM     16  C   UNL     1      20.298   4.720  20.571  0.00  0.00    +0.068 C 
ATOM     17  C   UNL     1      19.410   5.857  20.938  0.00  0.00    -0.016 A 
ATOM     19  C   UNL     1      18.180   6.293  20.373  0.00  0.00    +0.003 A 
ATOM     20  C   UNL     1      17.781   7.420  21.099  0.00  0.00    +0.047 A 
ATOM     25  C   UNL     1      17.366   5.846  19.315  0.00  0.00    +0.010 A 
ATOM     26  C   UNL     1      16.603   8.121  20.814  0.00  0.00    +0.026 A 
ATOM     27  C   UNL     1      16.185   6.535  19.021  0.00  0.00    +0.001 A 
ATOM     31  C   UNL     1      15.811   7.656  19.761  0.00  0.00    +0.002 A 
ATOM     38  H   UNL     1      18.714   8.416  22.724  0.00  0.00    +0.166 HD
ENDROOT
BRANCH  10  18
ATOM      1  F   UNL     1      26.568   2.172  22.405  0.00  0.00    -0.202 F 
ATOM      2  F   UNL     1      25.164  -0.011  23.263  0.00  0.00    -0.202 F 
ATOM     18  C   UNL     1      23.449   3.742  23.424  0.00  0.00    -0.027 A 
ATOM     23  C   UNL     1      24.744   3.588  22.931  0.00  0.00    +0.046 A 
ATOM     24  C   UNL     1      22.732   2.628  23.862  0.00  0.00    +0.008 A 
ATOM     29  C   UNL     1      25.324   2.321  22.878  0.00  0.00    +0.159 A 
ATOM     30  C   UNL     1      23.311   1.361  23.808  0.00  0.00    +0.041 A 
ATOM     32  C   UNL     1      24.608   1.207  23.315  0.00  0.00    +0.158 A 
ENDBRANCH  10  18
BRANCH  14  21
ATOM      4  O   UNL     1      22.368   6.907  20.285  0.00  0.00    -0.249 OA
ATOM     21  C   UNL     1      22.601   5.728  20.513  0.00  0.00    +0.325 C 
BRANCH  21   3
ATOM      3  O   UNL     1      23.711   5.035  20.133  0.00  0.00    -0.467 OA
ATOM     33  C   UNL     1      24.937   5.774  20.155  0.00  0.00    +0.280 C 
ENDBRANCH  21   3
ENDBRANCH  14  21
BRANCH  12   7
ATOM      7  N   UNL     1      21.615   7.101  26.553  0.00  0.00    -0.309 NA
ATOM     39  H   UNL     1      22.434   6.878  27.119  0.00  0.00    +0.123 HD
BRANCH   7  22
ATOM     22  C   UNL     1      20.500   6.279  26.998  0.00  0.00    +0.118 C 
BRANCH  22  28
ATOM      8  N   UNL     1      20.075   5.655  30.707  0.00  0.00    -0.263 NA
ATOM     28  C   UNL     1      20.728   5.728  28.380  0.00  0.00    -0.015 A 
ATOM     34  C   UNL     1      21.751   4.821  28.632  0.00  0.00    +0.008 A 
ATOM     35  C   UNL     1      19.924   6.110  29.443  0.00  0.00    +0.115 A 
ATOM     36  C   UNL     1      21.937   4.332  29.919  0.00  0.00    +0.020 A 
ATOM     37  C   UNL     1      21.080   4.775  30.913  0.00  0.00    +0.111 A 
ENDBRANCH  22  28
ENDBRANCH   7  22
ENDBRANCH  12   7
TORSDOF 6
ENDMDL
MODEL 10
REMARK VINA RESULT:      -7.0     13.108     15.340
REMARK  Name = 44716482
REMARK  7 active torsions:
REMARK  status: ('A' for Active; 'I' for Inactive)
REMARK    1  A    between atoms: O_3  and  C_21
REMARK    2  A    between atoms: O_3  and  C_33
REMARK    3  A    between atoms: N_7  and  C_12
REMARK    4  A    between atoms: N_7  and  C_22
REMARK    5  A    between atoms: C_10  and  C_18
REMARK    6  A    between atoms: C_14  and  C_21
REMARK    7  A    between atoms: C_22  and  C_28
REMARK                            x       y       z     vdW  Elec       q    Type
REMARK                         _______ _______ _______ _____ _____    ______ ____
ROOT
ATOM      5  N   UNL     1      -1.677  10.583   4.685  0.00  0.00    -0.274 NA
ATOM      6  N   UNL     1       1.338  12.793   5.048  0.00  0.00    -0.356 N 
ATOM      9  C   UNL     1      -0.793  11.674   4.174  0.00  0.00    +0.106 C 
ATOM     10  C   UNL     1      -2.712  10.195   3.692  0.00  0.00    +0.090 C 
ATOM     11  C   UNL     1      -0.105  11.249   2.867  0.00  0.00    +0.044 C 
ATOM     12  C   UNL     1      -1.144  10.890   1.807  0.00  0.00    +0.058 C 
ATOM     13  C   UNL     1      -2.067   9.796   2.343  0.00  0.00    +0.042 C 
ATOM     14  C   UNL     1      -2.196  10.849   6.055  0.00  0.00    +0.172 C 
ATOM     15  C   UNL     1       0.203  12.050   5.228  0.00  0.00    +0.038 A 
ATOM     16  C   UNL     1      -1.062  10.984   7.103  0.00  0.00    +0.068 C 
ATOM     17  C   UNL     1       0.090  11.761   6.571  0.00  0.00    -0.016 A 
ATOM     19  C   UNL     1       1.218  12.319   7.233  0.00  0.00    +0.003 A 
ATOM     20  C   UNL     1       1.985  12.958   6.254  0.00  0.00    +0.047 A 
ATOM     25  C   UNL     1       1.664  12.348   8.568  0.00  0.00    +0.010 A 
ATOM     26  C   UNL     1       3.179  13.627   6.549  0.00  0.00    +0.026 A 
ATOM     27  C   UNL     1       2.857  13.010   8.878  0.00  0.00    +0.001 A 
ATOM     31  C   UNL     1       3.601  13.639   7.881  0.00  0.00    +0.002 A 
ATOM     38  H   UNL     1       1.662  13.164   4.166  0.00  0.00    +0.166 HD
ENDROOT
BRANCH  10  18
ATOM      1  F   UNL     1      -7.064   7.951   3.877  0.00  0.00    -0.202 F 
ATOM      2  F   UNL     1      -6.005   5.905   5.350  0.00  0.00    -0.202 F 
ATOM     18  C   UNL     1      -3.602   9.037   4.139  0.00  0.00    -0.027 A 
ATOM     23  C   UNL     1      -4.954   9.023   3.798  0.00  0.00    +0.046 A 
ATOM     24  C   UNL     1      -3.061   7.993   4.891  0.00  0.00    +0.008 A 
ATOM     29  C   UNL     1      -5.765   7.965   4.206  0.00  0.00    +0.159 A 
ATOM     30  C   UNL     1      -3.873   6.935   5.299  0.00  0.00    +0.041 A 
ATOM     32  C   UNL     1      -5.226   6.921   4.957  0.00  0.00    +0.158 A 
ENDBRANCH  10  18
BRANCH  14  21
ATOM      4  O   UNL     1      -2.655  13.216   6.008  0.00  0.00    -0.249 OA
ATOM     21  C   UNL     1      -3.075  12.068   6.055  0.00  0.00    +0.325 C 
BRANCH  21   3
ATOM      3  O   UNL     1      -4.383  11.686   6.115  0.00  0.00    -0.467 OA
ATOM     33  C   UNL     1      -4.711  10.776   7.170  0.00  0.00    +0.280 C 
ENDBRANCH  21   3
ENDBRANCH  14  21
BRANCH  12   7
ATOM      7  N   UNL     1      -0.480  10.455   0.579  0.00  0.00    -0.309 NA
ATOM     39  H   UNL     1      -0.444  11.236  -0.078  0.00  0.00    +0.123 HD
BRANCH   7  22
ATOM     22  C   UNL     1      -1.207   9.357  -0.039  0.00  0.00    +0.118 C 
BRANCH  22  28
ATOM      8  N   UNL     1      -4.198  10.142  -2.221  0.00  0.00    -0.263 NA
ATOM     28  C   UNL     1      -2.022   9.817  -1.217  0.00  0.00    -0.015 A 
ATOM     34  C   UNL     1      -1.412  10.325  -2.359  0.00  0.00    +0.008 A 
ATOM     35  C   UNL     1      -3.407   9.748  -1.199  0.00  0.00    +0.115 A 
ATOM     36  C   UNL     1      -2.193  10.741  -3.431  0.00  0.00    +0.020 A 
ATOM     37  C   UNL     1      -3.569  10.630  -3.314  0.00  0.00    +0.111 A 
ENDBRANCH  22  28
ENDBRANCH   7  22
ENDBRANCH  12   7
TORSDOF 6
ENDMDL
