MODEL 1
REMARK VINA RESULT:      -6.7      0.000      0.000
REMARK  Name = 56775731
REMARK  7 active torsions:
REMARK  status: ('A' for Active; 'I' for Inactive)
REMARK    1  A    between atoms: O_3  and  C_23
REMARK    2  A    between atoms: N_4  and  C_6
REMARK    3  A    between atoms: N_4  and  C_8
REMARK    4  A    between atoms: C_6  and  C_13
REMARK    5  A    between atoms: C_7  and  C_8
REMARK    6  A    between atoms: C_13  and  C_17
REMARK    7  A    between atoms: C_19  and  C_20
REMARK                            x       y       z     vdW  Elec       q    Type
REMARK                         _______ _______ _______ _____ _____    ______ ____
ROOT
ATOM     13  C   UNL     1      13.636  11.268  22.970  0.00  0.00    +0.085 C 
ENDROOT
BRANCH  13  17
ATOM      2  O   UNL     1      15.064   9.529  20.144  0.00  0.00    -0.354 OA
ATOM      5  N   UNL     1      14.220  10.480  20.704  0.00  0.00    -0.083 NA
ATOM     17  C   UNL     1      14.404  10.370  22.023  0.00  0.00    +0.086 A 
ATOM     18  C   UNL     1      15.343   9.377  22.350  0.00  0.00    +0.076 A 
ATOM     19  C   UNL     1      15.727   8.878  21.133  0.00  0.00    +0.168 A 
BRANCH  19  20
ATOM     20  C   UNL     1      16.643   7.861  20.706  0.00  0.00    +0.023 A 
ATOM     21  C   UNL     1      16.315   7.033  19.632  0.00  0.00    +0.057 A 
ATOM     22  C   UNL     1      17.862   7.700  21.364  0.00  0.00    +0.012 A 
ATOM     23  C   UNL     1      17.206   6.042  19.218  0.00  0.00    +0.118 A 
ATOM     24  C   UNL     1      18.752   6.709  20.950  0.00  0.00    +0.004 A 
ATOM     25  C   UNL     1      18.425   5.881  19.876  0.00  0.00    +0.045 A 
BRANCH  23   3
ATOM      3  O   UNL     1      16.884   5.234  18.172  0.00  0.00    -0.507 OA
ATOM     27  H   UNL     1      16.329   5.733  17.548  0.00  0.00    +0.292 HD
ENDBRANCH  23   3
ENDBRANCH  19  20
ENDBRANCH  13  17
BRANCH  13   6
ATOM      1  O   UNL     1      10.487  12.020  23.531  0.00  0.00    -0.376 OA
ATOM      6  C   UNL     1      12.203  10.841  23.063  0.00  0.00    +0.072 C 
ATOM     11  C   UNL     1      11.399  11.210  24.305  0.00  0.00    +0.184 C 
ATOM     12  C   UNL     1      11.145  11.634  22.303  0.00  0.00    +0.184 C 
BRANCH   6   4
ATOM      4  N   UNL     1      12.013   9.412  22.785  0.00  0.00    -0.306 NA
ATOM     26  H   UNL     1      12.803   8.950  22.336  0.00  0.00    +0.123 HD
BRANCH   4   8
ATOM      8  C   UNL     1      10.813   9.230  21.982  0.00  0.00    +0.085 C 
BRANCH   8   7
ATOM      7  C   UNL     1      11.092   8.323  20.785  0.00  0.00    +0.003 C 
ATOM      9  C   UNL     1      11.305   9.154  19.513  0.00  0.00    +0.005 C 
ATOM     10  C   UNL     1      12.305   7.423  21.059  0.00  0.00    +0.005 C 
ATOM     14  C   UNL     1      11.639   8.271  18.312  0.00  0.00    +0.000 C 
ATOM     15  C   UNL     1      12.638   6.543  19.855  0.00  0.00    +0.000 C 
ATOM     16  C   UNL     1      12.839   7.372  18.591  0.00  0.00    +0.000 C 
ENDBRANCH   8   7
ENDBRANCH   4   8
ENDBRANCH   6   4
ENDBRANCH  13   6
TORSDOF 7
ENDMDL
MODEL 2
REMARK VINA RESULT:      -6.4      2.582      4.740
REMARK  Name = 56775731
REMARK  7 active torsions:
REMARK  status: ('A' for Active; 'I' for Inactive)
REMARK    1  A    between atoms: O_3  and  C_23
REMARK    2  A    between atoms: N_4  and  C_6
REMARK    3  A    between atoms: N_4  and  C_8
REMARK    4  A    between atoms: C_6  and  C_13
REMARK    5  A    between atoms: C_7  and  C_8
REMARK    6  A    between atoms: C_13  and  C_17
REMARK    7  A    between atoms: C_19  and  C_20
REMARK                            x       y       z     vdW  Elec       q    Type
REMARK                         _______ _______ _______ _____ _____    ______ ____
ROOT
ATOM     13  C   UNL     1      12.515   7.348  17.869  0.00  0.00    +0.085 C 
ENDROOT
BRANCH  13  17
ATOM      2  O   UNL     1      14.639   7.133  20.783  0.00  0.00    -0.354 OA
ATOM      5  N   UNL     1      13.394   7.217  20.173  0.00  0.00    -0.083 NA
ATOM     17  C   UNL     1      13.654   7.255  18.862  0.00  0.00    +0.086 A 
ATOM     18  C   UNL     1      15.031   7.199  18.590  0.00  0.00    +0.076 A 
ATOM     19  C   UNL     1      15.606   7.123  19.831  0.00  0.00    +0.168 A 
BRANCH  19  20
ATOM     20  C   UNL     1      16.954   7.037  20.313  0.00  0.00    +0.023 A 
ATOM     21  C   UNL     1      17.802   6.036  19.840  0.00  0.00    +0.057 A 
ATOM     22  C   UNL     1      17.416   7.956  21.256  0.00  0.00    +0.012 A 
ATOM     23  C   UNL     1      19.113   5.952  20.312  0.00  0.00    +0.118 A 
ATOM     24  C   UNL     1      18.727   7.871  21.727  0.00  0.00    +0.004 A 
ATOM     25  C   UNL     1      19.575   6.870  21.254  0.00  0.00    +0.045 A 
BRANCH  23   3
ATOM      3  O   UNL     1      19.939   4.974  19.851  0.00  0.00    -0.507 OA
ATOM     27  H   UNL     1      19.430   4.150  19.759  0.00  0.00    +0.292 HD
ENDBRANCH  23   3
ENDBRANCH  19  20
ENDBRANCH  13  17
BRANCH  13   6
ATOM      1  O   UNL     1      12.359   9.249  15.193  0.00  0.00    -0.376 OA
ATOM      6  C   UNL     1      12.452   8.714  17.257  0.00  0.00    +0.072 C 
ATOM     11  C   UNL     1      13.432   9.073  16.146  0.00  0.00    +0.184 C 
ATOM     12  C   UNL     1      11.372   9.012  16.222  0.00  0.00    +0.184 C 
BRANCH   6   4
ATOM      4  N   UNL     1      12.458   9.789  18.257  0.00  0.00    -0.306 NA
ATOM     26  H   UNL     1      11.598  10.333  18.311  0.00  0.00    +0.123 HD
BRANCH   4   8
ATOM      8  C   UNL     1      13.587  10.673  18.011  0.00  0.00    +0.085 C 
BRANCH   8   7
ATOM      7  C   UNL     1      14.149  11.215  19.324  0.00  0.00    +0.003 C 
ATOM      9  C   UNL     1      13.322  10.714  20.515  0.00  0.00    +0.005 C 
ATOM     10  C   UNL     1      15.625  10.827  19.482  0.00  0.00    +0.005 C 
ATOM     14  C   UNL     1      13.896  11.199  21.844  0.00  0.00    +0.000 C 
ATOM     15  C   UNL     1      16.196  11.312  20.814  0.00  0.00    +0.000 C 
ATOM     16  C   UNL     1      15.365  10.819  21.995  0.00  0.00    +0.000 C 
ENDBRANCH   8   7
ENDBRANCH   4   8
ENDBRANCH   6   4
ENDBRANCH  13   6
TORSDOF 7
ENDMDL
MODEL 3
REMARK VINA RESULT:      -6.3      2.300      4.440
REMARK  Name = 56775731
REMARK  7 active torsions:
REMARK  status: ('A' for Active; 'I' for Inactive)
REMARK    1  A    between atoms: O_3  and  C_23
REMARK    2  A    between atoms: N_4  and  C_6
REMARK    3  A    between atoms: N_4  and  C_8
REMARK    4  A    between atoms: C_6  and  C_13
REMARK    5  A    between atoms: C_7  and  C_8
REMARK    6  A    between atoms: C_13  and  C_17
REMARK    7  A    between atoms: C_19  and  C_20
REMARK                            x       y       z     vdW  Elec       q    Type
REMARK                         _______ _______ _______ _____ _____    ______ ____
ROOT
ATOM     13  C   UNL     1      13.212   7.007  20.408  0.00  0.00    +0.085 C 
ENDROOT
BRANCH  13  17
ATOM      2  O   UNL     1      16.562   6.399  19.201  0.00  0.00    -0.354 OA
ATOM      5  N   UNL     1      15.187   6.489  19.020  0.00  0.00    -0.083 NA
ATOM     17  C   UNL     1      14.702   6.818  20.221  0.00  0.00    +0.086 A 
ATOM     18  C   UNL     1      15.715   6.948  21.188  0.00  0.00    +0.076 A 
ATOM     19  C   UNL     1      16.864   6.674  20.495  0.00  0.00    +0.168 A 
BRANCH  19  20
ATOM     20  C   UNL     1      18.256   6.622  20.835  0.00  0.00    +0.023 A 
ATOM     21  C   UNL     1      19.094   5.701  20.206  0.00  0.00    +0.057 A 
ATOM     22  C   UNL     1      18.772   7.493  21.795  0.00  0.00    +0.012 A 
ATOM     23  C   UNL     1      20.448   5.649  20.539  0.00  0.00    +0.118 A 
ATOM     24  C   UNL     1      20.126   7.440  22.127  0.00  0.00    +0.004 A 
ATOM     25  C   UNL     1      20.964   6.519  21.499  0.00  0.00    +0.045 A 
BRANCH  23   3
ATOM      3  O   UNL     1      21.265   4.749  19.927  0.00  0.00    -0.507 OA
ATOM     27  H   UNL     1      21.732   4.235  20.608  0.00  0.00    +0.292 HD
ENDBRANCH  23   3
ENDBRANCH  19  20
ENDBRANCH  13  17
BRANCH  13   6
ATOM      1  O   UNL     1      10.758   8.351  18.686  0.00  0.00    -0.376 OA
ATOM      6  C   UNL     1      12.701   8.111  19.535  0.00  0.00    +0.072 C 
ATOM     11  C   UNL     1      11.995   7.758  18.231  0.00  0.00    +0.184 C 
ATOM     12  C   UNL     1      11.392   8.801  19.905  0.00  0.00    +0.184 C 
BRANCH   6   4
ATOM      4  N   UNL     1      13.714   9.138  19.259  0.00  0.00    -0.306 NA
ATOM     26  H   UNL     1      14.676   8.854  19.441  0.00  0.00    +0.123 HD
BRANCH   4   8
ATOM      8  C   UNL     1      13.403  10.341  20.016  0.00  0.00    +0.085 C 
BRANCH   8   7
ATOM      7  C   UNL     1      14.671  10.955  20.606  0.00  0.00    +0.003 C 
ATOM      9  C   UNL     1      14.721  10.742  22.124  0.00  0.00    +0.005 C 
ATOM     10  C   UNL     1      15.919  10.373  19.931  0.00  0.00    +0.005 C 
ATOM     14  C   UNL     1      16.006  11.301  22.730  0.00  0.00    +0.000 C 
ATOM     15  C   UNL     1      17.203  10.932  20.541  0.00  0.00    +0.000 C 
ATOM     16  C   UNL     1      17.244  10.727  22.052  0.00  0.00    +0.000 C 
ENDBRANCH   8   7
ENDBRANCH   4   8
ENDBRANCH   6   4
ENDBRANCH  13   6
TORSDOF 7
ENDMDL
MODEL 4
REMARK VINA RESULT:      -6.2      2.023      4.120
REMARK  Name = 56775731
REMARK  7 active torsions:
REMARK  status: ('A' for Active; 'I' for Inactive)
REMARK    1  A    between atoms: O_3  and  C_23
REMARK    2  A    between atoms: N_4  and  C_6
REMARK    3  A    between atoms: N_4  and  C_8
REMARK    4  A    between atoms: C_6  and  C_13
REMARK    5  A    between atoms: C_7  and  C_8
REMARK    6  A    between atoms: C_13  and  C_17
REMARK    7  A    between atoms: C_19  and  C_20
REMARK                            x       y       z     vdW  Elec       q    Type
REMARK                         _______ _______ _______ _____ _____    ______ ____
ROOT
ATOM     13  C   UNL     1      12.909   6.694  20.429  0.00  0.00    +0.085 C 
ENDROOT
BRANCH  13  17
ATOM      2  O   UNL     1      16.264   7.123  19.162  0.00  0.00    -0.354 OA
ATOM      5  N   UNL     1      14.883   7.131  19.012  0.00  0.00    -0.083 NA
ATOM     17  C   UNL     1      14.404   6.789  20.212  0.00  0.00    +0.086 A 
ATOM     18  C   UNL     1      15.427   6.556  21.148  0.00  0.00    +0.076 A 
ATOM     19  C   UNL     1      16.576   6.780  20.437  0.00  0.00    +0.168 A 
BRANCH  19  20
ATOM     20  C   UNL     1      17.976   6.731  20.745  0.00  0.00    +0.023 A 
ATOM     21  C   UNL     1      18.785   5.754  20.166  0.00  0.00    +0.057 A 
ATOM     22  C   UNL     1      18.528   7.662  21.626  0.00  0.00    +0.012 A 
ATOM     23  C   UNL     1      20.146   5.706  20.468  0.00  0.00    +0.118 A 
ATOM     24  C   UNL     1      19.889   7.613  21.928  0.00  0.00    +0.004 A 
ATOM     25  C   UNL     1      20.698   6.636  21.348  0.00  0.00    +0.045 A 
BRANCH  23   3
ATOM      3  O   UNL     1      20.934   4.751  19.903  0.00  0.00    -0.507 OA
ATOM     27  H   UNL     1      21.867   4.986  20.050  0.00  0.00    +0.292 HD
ENDBRANCH  23   3
ENDBRANCH  19  20
ENDBRANCH  13  17
BRANCH  13   6
ATOM      1  O   UNL     1      10.495   8.536  19.173  0.00  0.00    -0.376 OA
ATOM      6  C   UNL     1      12.260   8.034  20.262  0.00  0.00    +0.072 C 
ATOM     11  C   UNL     1      11.905   8.516  18.860  0.00  0.00    +0.184 C 
ATOM     12  C   UNL     1      10.768   8.173  20.546  0.00  0.00    +0.184 C 
BRANCH   6   4
ATOM      4  N   UNL     1      12.976   9.107  20.963  0.00  0.00    -0.306 NA
ATOM     26  H   UNL     1      13.960   8.919  21.151  0.00  0.00    +0.123 HD
BRANCH   4   8
ATOM      8  C   UNL     1      12.287   9.418  22.206  0.00  0.00    +0.085 C 
BRANCH   8   7
ATOM      7  C   UNL     1      12.162  10.929  22.394  0.00  0.00    +0.003 C 
ATOM      9  C   UNL     1      11.863  11.619  21.057  0.00  0.00    +0.005 C 
ATOM     10  C   UNL     1      11.081  11.258  23.433  0.00  0.00    +0.005 C 
ATOM     14  C   UNL     1      11.681  13.126  21.229  0.00  0.00    +0.000 C 
ATOM     15  C   UNL     1      10.900  12.765  23.600  0.00  0.00    +0.000 C 
ATOM     16  C   UNL     1      10.612  13.449  22.267  0.00  0.00    +0.000 C 
ENDBRANCH   8   7
ENDBRANCH   4   8
ENDBRANCH   6   4
ENDBRANCH  13   6
TORSDOF 7
ENDMDL
MODEL 5
REMARK VINA RESULT:      -6.0      1.811      2.265
REMARK  Name = 56775731
REMARK  7 active torsions:
REMARK  status: ('A' for Active; 'I' for Inactive)
REMARK    1  A    between atoms: O_3  and  C_23
REMARK    2  A    between atoms: N_4  and  C_6
REMARK    3  A    between atoms: N_4  and  C_8
REMARK    4  A    between atoms: C_6  and  C_13
REMARK    5  A    between atoms: C_7  and  C_8
REMARK    6  A    between atoms: C_13  and  C_17
REMARK    7  A    between atoms: C_19  and  C_20
REMARK                            x       y       z     vdW  Elec       q    Type
REMARK                         _______ _______ _______ _____ _____    ______ ____
ROOT
ATOM     13  C   UNL     1      13.320  10.821  22.830  0.00  0.00    +0.085 C 
ENDROOT
BRANCH  13  17
ATOM      2  O   UNL     1      14.200   7.552  21.568  0.00  0.00    -0.354 OA
ATOM      5  N   UNL     1      13.304   8.453  22.130  0.00  0.00    -0.083 NA
ATOM     17  C   UNL     1      13.989   9.594  22.246  0.00  0.00    +0.086 A 
ATOM     18  C   UNL     1      15.309   9.474  21.778  0.00  0.00    +0.076 A 
ATOM     19  C   UNL     1      15.390   8.171  21.363  0.00  0.00    +0.168 A 
BRANCH  19  20
ATOM     20  C   UNL     1      16.422   7.362  20.782  0.00  0.00    +0.023 A 
ATOM     21  C   UNL     1      16.176   6.659  19.603  0.00  0.00    +0.057 A 
ATOM     22  C   UNL     1      17.671   7.278  21.398  0.00  0.00    +0.012 A 
ATOM     23  C   UNL     1      17.180   5.870  19.040  0.00  0.00    +0.118 A 
ATOM     24  C   UNL     1      18.674   6.489  20.834  0.00  0.00    +0.004 A 
ATOM     25  C   UNL     1      18.429   5.786  19.655  0.00  0.00    +0.045 A 
BRANCH  23   3
ATOM      3  O   UNL     1      16.939   5.183  17.890  0.00  0.00    -0.507 OA
ATOM     27  H   UNL     1      17.738   4.680  17.651  0.00  0.00    +0.292 HD
ENDBRANCH  23   3
ENDBRANCH  19  20
ENDBRANCH  13  17
BRANCH  13   6
ATOM      1  O   UNL     1      12.125  13.693  21.774  0.00  0.00    -0.376 OA
ATOM      6  C   UNL     1      12.655  11.626  21.757  0.00  0.00    +0.072 C 
ATOM     11  C   UNL     1      11.435  12.469  22.112  0.00  0.00    +0.184 C 
ATOM     12  C   UNL     1      13.281  12.949  21.329  0.00  0.00    +0.184 C 
BRANCH   6   4
ATOM      4  N   UNL     1      12.350  10.838  20.556  0.00  0.00    -0.306 NA
ATOM     26  H   UNL     1      12.500   9.834  20.649  0.00  0.00    +0.123 HD
BRANCH   4   8
ATOM      8  C   UNL     1      13.118  11.351  19.432  0.00  0.00    +0.085 C 
BRANCH   8   7
ATOM      7  C   UNL     1      13.065  10.383  18.251  0.00  0.00    +0.003 C 
ATOM      9  C   UNL     1      14.363  10.453  17.435  0.00  0.00    +0.005 C 
ATOM     10  C   UNL     1      12.800   8.952  18.735  0.00  0.00    +0.005 C 
ATOM     14  C   UNL     1      14.356   9.456  16.279  0.00  0.00    +0.000 C 
ATOM     15  C   UNL     1      12.797   7.956  17.576  0.00  0.00    +0.000 C 
ATOM     16  C   UNL     1      14.084   8.035  16.763  0.00  0.00    +0.000 C 
ENDBRANCH   8   7
ENDBRANCH   4   8
ENDBRANCH   6   4
ENDBRANCH  13   6
TORSDOF 7
ENDMDL
MODEL 6
REMARK VINA RESULT:      -5.8      3.131      4.566
REMARK  Name = 56775731
REMARK  7 active torsions:
REMARK  status: ('A' for Active; 'I' for Inactive)
REMARK    1  A    between atoms: O_3  and  C_23
REMARK    2  A    between atoms: N_4  and  C_6
REMARK    3  A    between atoms: N_4  and  C_8
REMARK    4  A    between atoms: C_6  and  C_13
REMARK    5  A    between atoms: C_7  and  C_8
REMARK    6  A    between atoms: C_13  and  C_17
REMARK    7  A    between atoms: C_19  and  C_20
REMARK                            x       y       z     vdW  Elec       q    Type
REMARK                         _______ _______ _______ _____ _____    ______ ____
ROOT
ATOM     13  C   UNL     1      13.339   6.960  20.317  0.00  0.00    +0.085 C 
ENDROOT
BRANCH  13  17
ATOM      2  O   UNL     1      16.711   6.325  19.185  0.00  0.00    -0.354 OA
ATOM      5  N   UNL     1      15.344   6.447  18.969  0.00  0.00    -0.083 NA
ATOM     17  C   UNL     1      14.831   6.749  20.166  0.00  0.00    +0.086 A 
ATOM     18  C   UNL     1      15.818   6.831  21.163  0.00  0.00    +0.076 A 
ATOM     19  C   UNL     1      16.981   6.556  20.495  0.00  0.00    +0.168 A 
BRANCH  19  20
ATOM     20  C   UNL     1      18.362   6.467  20.871  0.00  0.00    +0.023 A 
ATOM     21  C   UNL     1      19.229   5.641  20.157  0.00  0.00    +0.057 A 
ATOM     22  C   UNL     1      18.838   7.208  21.953  0.00  0.00    +0.012 A 
ATOM     23  C   UNL     1      20.572   5.553  20.525  0.00  0.00    +0.118 A 
ATOM     24  C   UNL     1      20.180   7.120  22.322  0.00  0.00    +0.004 A 
ATOM     25  C   UNL     1      21.048   6.294  21.607  0.00  0.00    +0.045 A 
BRANCH  23   3
ATOM      3  O   UNL     1      21.416   4.745  19.829  0.00  0.00    -0.507 OA
ATOM     27  H   UNL     1      20.969   4.447  19.018  0.00  0.00    +0.292 HD
ENDBRANCH  23   3
ENDBRANCH  19  20
ENDBRANCH  13  17
BRANCH  13   6
ATOM      1  O   UNL     1      10.960   8.177  18.405  0.00  0.00    -0.376 OA
ATOM      6  C   UNL     1      12.853   8.020  19.376  0.00  0.00    +0.072 C 
ATOM     11  C   UNL     1      12.237   7.604  18.046  0.00  0.00    +0.184 C 
ATOM     12  C   UNL     1      11.507   8.684  19.643  0.00  0.00    +0.184 C 
BRANCH   6   4
ATOM      4  N   UNL     1      13.854   9.065  19.126  0.00  0.00    -0.306 NA
ATOM     26  H   UNL     1      14.731   8.954  19.634  0.00  0.00    +0.123 HD
BRANCH   4   8
ATOM      8  C   UNL     1      13.276  10.368  19.416  0.00  0.00    +0.085 C 
BRANCH   8   7
ATOM      7  C   UNL     1      13.495  11.332  18.251  0.00  0.00    +0.003 C 
ATOM      9  C   UNL     1      13.671  12.768  18.761  0.00  0.00    +0.005 C 
ATOM     10  C   UNL     1      14.704  10.899  17.410  0.00  0.00    +0.005 C 
ATOM     14  C   UNL     1      13.944  13.742  17.617  0.00  0.00    +0.000 C 
ATOM     15  C   UNL     1      14.976  11.877  16.269  0.00  0.00    +0.000 C 
ATOM     16  C   UNL     1      15.141  13.305  16.779  0.00  0.00    +0.000 C 
ENDBRANCH   8   7
ENDBRANCH   4   8
ENDBRANCH   6   4
ENDBRANCH  13   6
TORSDOF 7
ENDMDL
MODEL 7
REMARK VINA RESULT:      -5.8     26.833     28.569
REMARK  Name = 56775731
REMARK  7 active torsions:
REMARK  status: ('A' for Active; 'I' for Inactive)
REMARK    1  A    between atoms: O_3  and  C_23
REMARK    2  A    between atoms: N_4  and  C_6
REMARK    3  A    between atoms: N_4  and  C_8
REMARK    4  A    between atoms: C_6  and  C_13
REMARK    5  A    between atoms: C_7  and  C_8
REMARK    6  A    between atoms: C_13  and  C_17
REMARK    7  A    between atoms: C_19  and  C_20
REMARK                            x       y       z     vdW  Elec       q    Type
REMARK                         _______ _______ _______ _____ _____    ______ ____
ROOT
ATOM     13  C   UNL     1      -6.234 -11.132  11.810  0.00  0.00    +0.085 C 
ENDROOT
BRANCH  13  17
ATOM      2  O   UNL     1      -6.117  -9.587  15.073  0.00  0.00    -0.354 OA
ATOM      5  N   UNL     1      -6.334  -9.548  13.702  0.00  0.00    -0.083 NA
ATOM     17  C   UNL     1      -6.093 -10.793  13.279  0.00  0.00    +0.086 A 
ATOM     18  C   UNL     1      -5.724 -11.651  14.329  0.00  0.00    +0.076 A 
ATOM     19  C   UNL     1      -5.754 -10.844  15.435  0.00  0.00    +0.168 A 
BRANCH  19  20
ATOM     20  C   UNL     1      -5.497 -11.040  16.832  0.00  0.00    +0.023 A 
ATOM     21  C   UNL     1      -6.403 -10.569  17.782  0.00  0.00    +0.057 A 
ATOM     22  C   UNL     1      -4.338 -11.703  17.240  0.00  0.00    +0.012 A 
ATOM     23  C   UNL     1      -6.149 -10.759  19.141  0.00  0.00    +0.118 A 
ATOM     24  C   UNL     1      -4.086 -11.892  18.599  0.00  0.00    +0.004 A 
ATOM     25  C   UNL     1      -4.992 -11.421  19.550  0.00  0.00    +0.045 A 
BRANCH  23   3
ATOM      3  O   UNL     1      -7.033 -10.298  20.068  0.00  0.00    -0.507 OA
ATOM     27  H   UNL     1      -7.201  -9.354  19.899  0.00  0.00    +0.292 HD
ENDBRANCH  23   3
ENDBRANCH  19  20
ENDBRANCH  13  17
BRANCH  13   6
ATOM      1  O   UNL     1      -5.764  -9.583   8.950  0.00  0.00    -0.376 OA
ATOM      6  C   UNL     1      -5.426 -10.192  10.967  0.00  0.00    +0.072 C 
ATOM     11  C   UNL     1      -4.993 -10.634   9.574  0.00  0.00    +0.184 C 
ATOM     12  C   UNL     1      -6.135  -9.053  10.243  0.00  0.00    +0.184 C 
BRANCH   6   4
ATOM      4  N   UNL     1      -4.260  -9.649  11.674  0.00  0.00    -0.306 NA
ATOM     26  H   UNL     1      -4.209  -8.632  11.707  0.00  0.00    +0.123 HD
BRANCH   4   8
ATOM      8  C   UNL     1      -3.043 -10.185  11.083  0.00  0.00    +0.085 C 
BRANCH   8   7
ATOM      7  C   UNL     1      -2.280 -11.041  12.093  0.00  0.00    +0.003 C 
ATOM      9  C   UNL     1      -2.454 -10.488  13.513  0.00  0.00    +0.005 C 
ATOM     10  C   UNL     1      -2.737 -12.504  12.017  0.00  0.00    +0.005 C 
ATOM     14  C   UNL     1      -1.744 -11.358  14.548  0.00  0.00    +0.000 C 
ATOM     15  C   UNL     1      -2.027 -13.371  13.055  0.00  0.00    +0.000 C 
ATOM     16  C   UNL     1      -2.194 -12.813  14.464  0.00  0.00    +0.000 C 
ENDBRANCH   8   7
ENDBRANCH   4   8
ENDBRANCH   6   4
ENDBRANCH  13   6
TORSDOF 7
ENDMDL
MODEL 8
REMARK VINA RESULT:      -5.7      4.113      8.838
REMARK  Name = 56775731
REMARK  7 active torsions:
REMARK  status: ('A' for Active; 'I' for Inactive)
REMARK    1  A    between atoms: O_3  and  C_23
REMARK    2  A    between atoms: N_4  and  C_6
REMARK    3  A    between atoms: N_4  and  C_8
REMARK    4  A    between atoms: C_6  and  C_13
REMARK    5  A    between atoms: C_7  and  C_8
REMARK    6  A    between atoms: C_13  and  C_17
REMARK    7  A    between atoms: C_19  and  C_20
REMARK                            x       y       z     vdW  Elec       q    Type
REMARK                         _______ _______ _______ _____ _____    ______ ____
ROOT
ATOM     13  C   UNL     1      19.228   6.239  21.899  0.00  0.00    +0.085 C 
ENDROOT
BRANCH  13  17
ATOM      2  O   UNL     1      17.066   6.076  19.009  0.00  0.00    -0.354 OA
ATOM      5  N   UNL     1      18.273   5.844  19.656  0.00  0.00    -0.083 NA
ATOM     17  C   UNL     1      18.100   6.322  20.892  0.00  0.00    +0.086 A 
ATOM     18  C   UNL     1      16.817   6.863  21.079  0.00  0.00    +0.076 A 
ATOM     19  C   UNL     1      16.207   6.683  19.866  0.00  0.00    +0.168 A 
BRANCH  19  20
ATOM     20  C   UNL     1      14.909   6.987  19.337  0.00  0.00    +0.023 A 
ATOM     21  C   UNL     1      13.774   6.816  20.129  0.00  0.00    +0.057 A 
ATOM     22  C   UNL     1      14.782   7.453  18.028  0.00  0.00    +0.012 A 
ATOM     23  C   UNL     1      12.512   7.109  19.612  0.00  0.00    +0.118 A 
ATOM     24  C   UNL     1      13.520   7.746  17.511  0.00  0.00    +0.004 A 
ATOM     25  C   UNL     1      12.385   7.575  18.304  0.00  0.00    +0.045 A 
BRANCH  23   3
ATOM      3  O   UNL     1      11.405   6.940  20.386  0.00  0.00    -0.507 OA
ATOM     27  H   UNL     1      11.614   7.211  21.297  0.00  0.00    +0.292 HD
ENDBRANCH  23   3
ENDBRANCH  19  20
ENDBRANCH  13  17
BRANCH  13   6
ATOM      1  O   UNL     1      20.976   8.990  22.319  0.00  0.00    -0.376 OA
ATOM      6  C   UNL     1      20.371   7.118  21.492  0.00  0.00    +0.072 C 
ATOM     11  C   UNL     1      20.111   8.597  21.230  0.00  0.00    +0.184 C 
ATOM     12  C   UNL     1      21.341   7.612  22.560  0.00  0.00    +0.184 C 
BRANCH   6   4
ATOM      4  N   UNL     1      21.144   6.569  20.370  0.00  0.00    -0.306 NA
ATOM     26  H   UNL     1      20.741   5.741  19.933  0.00  0.00    +0.123 HD
BRANCH   4   8
ATOM      8  C   UNL     1      22.501   6.285  20.810  0.00  0.00    +0.085 C 
BRANCH   8   7
ATOM      7  C   UNL     1      22.927   4.881  20.385  0.00  0.00    +0.003 C 
ATOM      9  C   UNL     1      24.430   4.841  20.077  0.00  0.00    +0.005 C 
ATOM     10  C   UNL     1      22.564   3.854  21.465  0.00  0.00    +0.005 C 
ATOM     14  C   UNL     1      24.891   3.435  19.700  0.00  0.00    +0.000 C 
ATOM     15  C   UNL     1      23.029   2.449  21.087  0.00  0.00    +0.000 C 
ATOM     16  C   UNL     1      24.521   2.416  20.772  0.00  0.00    +0.000 C 
ENDBRANCH   8   7
ENDBRANCH   4   8
ENDBRANCH   6   4
ENDBRANCH  13   6
TORSDOF 7
ENDMDL
MODEL 9
REMARK VINA RESULT:      -5.6      3.575      5.142
REMARK  Name = 56775731
REMARK  7 active torsions:
REMARK  status: ('A' for Active; 'I' for Inactive)
REMARK    1  A    between atoms: O_3  and  C_23
REMARK    2  A    between atoms: N_4  and  C_6
REMARK    3  A    between atoms: N_4  and  C_8
REMARK    4  A    between atoms: C_6  and  C_13
REMARK    5  A    between atoms: C_7  and  C_8
REMARK    6  A    between atoms: C_13  and  C_17
REMARK    7  A    between atoms: C_19  and  C_20
REMARK                            x       y       z     vdW  Elec       q    Type
REMARK                         _______ _______ _______ _____ _____    ______ ____
ROOT
ATOM     13  C   UNL     1      12.913   9.548  19.315  0.00  0.00    +0.085 C 
ENDROOT
BRANCH  13  17
ATOM      2  O   UNL     1      15.030   7.018  20.787  0.00  0.00    -0.354 OA
ATOM      5  N   UNL     1      13.787   7.527  20.434  0.00  0.00    -0.083 NA
ATOM     17  C   UNL     1      14.049   8.696  19.841  0.00  0.00    +0.086 A 
ATOM     18  C   UNL     1      15.426   8.973  19.793  0.00  0.00    +0.076 A 
ATOM     19  C   UNL     1      15.998   7.887  20.401  0.00  0.00    +0.168 A 
BRANCH  19  20
ATOM     20  C   UNL     1      17.344   7.493  20.700  0.00  0.00    +0.023 A 
ATOM     21  C   UNL     1      17.886   6.354  20.105  0.00  0.00    +0.057 A 
ATOM     22  C   UNL     1      18.111   8.250  21.586  0.00  0.00    +0.012 A 
ATOM     23  C   UNL     1      19.196   5.970  20.398  0.00  0.00    +0.118 A 
ATOM     24  C   UNL     1      19.420   7.866  21.878  0.00  0.00    +0.004 A 
ATOM     25  C   UNL     1      19.962   6.727  21.284  0.00  0.00    +0.045 A 
BRANCH  23   3
ATOM      3  O   UNL     1      19.723   4.858  19.819  0.00  0.00    -0.507 OA
ATOM     27  H   UNL     1      19.427   4.074  20.314  0.00  0.00    +0.292 HD
ENDBRANCH  23   3
ENDBRANCH  19  20
ENDBRANCH  13  17
BRANCH  13   6
ATOM      1  O   UNL     1      11.737   7.286  17.241  0.00  0.00    -0.376 OA
ATOM      6  C   UNL     1      12.543   9.141  17.921  0.00  0.00    +0.072 C 
ATOM     11  C   UNL     1      13.073   7.823  17.370  0.00  0.00    +0.184 C 
ATOM     12  C   UNL     1      11.164   8.544  17.666  0.00  0.00    +0.184 C 
BRANCH   6   4
ATOM      4  N   UNL     1      12.789  10.199  16.933  0.00  0.00    -0.306 NA
ATOM     26  H   UNL     1      12.022  10.372  16.284  0.00  0.00    +0.123 HD
BRANCH   4   8
ATOM      8  C   UNL     1      14.004   9.896  16.192  0.00  0.00    +0.085 C 
BRANCH   8   7
ATOM      7  C   UNL     1      14.787  11.172  15.886  0.00  0.00    +0.003 C 
ATOM      9  C   UNL     1      15.479  11.699  17.149  0.00  0.00    +0.005 C 
ATOM     10  C   UNL     1      15.806  10.926  14.766  0.00  0.00    +0.005 C 
ATOM     14  C   UNL     1      16.312  12.945  16.857  0.00  0.00    +0.000 C 
ATOM     15  C   UNL     1      16.639  12.174  14.478  0.00  0.00    +0.000 C 
ATOM     16  C   UNL     1      17.318  12.700  15.739  0.00  0.00    +0.000 C 
ENDBRANCH   8   7
ENDBRANCH   4   8
ENDBRANCH   6   4
ENDBRANCH  13   6
TORSDOF 7
ENDMDL
MODEL 10
REMARK VINA RESULT:      -5.6      2.657      3.800
REMARK  Name = 56775731
REMARK  7 active torsions:
REMARK  status: ('A' for Active; 'I' for Inactive)
REMARK    1  A    between atoms: O_3  and  C_23
REMARK    2  A    between atoms: N_4  and  C_6
REMARK    3  A    between atoms: N_4  and  C_8
REMARK    4  A    between atoms: C_6  and  C_13
REMARK    5  A    between atoms: C_7  and  C_8
REMARK    6  A    between atoms: C_13  and  C_17
REMARK    7  A    between atoms: C_19  and  C_20
REMARK                            x       y       z     vdW  Elec       q    Type
REMARK                         _______ _______ _______ _____ _____    ______ ____
ROOT
ATOM     13  C   UNL     1      12.461   6.684  20.569  0.00  0.00    +0.085 C 
ENDROOT
BRANCH  13  17
ATOM      2  O   UNL     1      15.780   6.913  19.161  0.00  0.00    -0.354 OA
ATOM      5  N   UNL     1      14.399   6.821  19.044  0.00  0.00    -0.083 NA
ATOM     17  C   UNL     1      13.948   6.784  20.302  0.00  0.00    +0.086 A 
ATOM     18  C   UNL     1      14.990   6.849  21.244  0.00  0.00    +0.076 A 
ATOM     19  C   UNL     1      16.120   6.928  20.475  0.00  0.00    +0.168 A 
BRANCH  19  20
ATOM     20  C   UNL     1      17.523   7.023  20.754  0.00  0.00    +0.023 A 
ATOM     21  C   UNL     1      18.003   8.031  21.590  0.00  0.00    +0.057 A 
ATOM     22  C   UNL     1      18.409   6.104  20.189  0.00  0.00    +0.012 A 
ATOM     23  C   UNL     1      19.369   8.124  21.859  0.00  0.00    +0.118 A 
ATOM     24  C   UNL     1      19.775   6.197  20.459  0.00  0.00    +0.004 A 
ATOM     25  C   UNL     1      20.255   7.206  21.295  0.00  0.00    +0.045 A 
BRANCH  23   3
ATOM      3  O   UNL     1      19.836   9.109  22.673  0.00  0.00    -0.507 OA
ATOM     27  H   UNL     1      20.755   8.905  22.918  0.00  0.00    +0.292 HD
ENDBRANCH  23   3
ENDBRANCH  19  20
ENDBRANCH  13  17
BRANCH  13   6
ATOM      1  O   UNL     1      11.161   8.923  22.593  0.00  0.00    -0.376 OA
ATOM      6  C   UNL     1      11.866   8.042  20.781  0.00  0.00    +0.072 C 
ATOM     11  C   UNL     1      10.544   8.162  21.531  0.00  0.00    +0.184 C 
ATOM     12  C   UNL     1      12.423   8.930  21.889  0.00  0.00    +0.184 C 
BRANCH   6   4
ATOM      4  N   UNL     1      11.780   8.829  19.544  0.00  0.00    -0.306 NA
ATOM     26  H   UNL     1      12.010   8.320  18.692  0.00  0.00    +0.123 HD
BRANCH   4   8
ATOM      8  C   UNL     1      12.625  10.007  19.660  0.00  0.00    +0.085 C 
BRANCH   8   7
ATOM      7  C   UNL     1      13.553  10.131  18.453  0.00  0.00    +0.003 C 
ATOM      9  C   UNL     1      12.921   9.481  17.215  0.00  0.00    +0.005 C 
ATOM     10  C   UNL     1      13.897  11.601  18.183  0.00  0.00    +0.005 C 
ATOM     14  C   UNL     1      13.807   9.639  15.981  0.00  0.00    +0.000 C 
ATOM     15  C   UNL     1      14.781  11.756  16.946  0.00  0.00    +0.000 C 
ATOM     16  C   UNL     1      14.153  11.101  15.720  0.00  0.00    +0.000 C 
ENDBRANCH   8   7
ENDBRANCH   4   8
ENDBRANCH   6   4
ENDBRANCH  13   6
TORSDOF 7
ENDMDL
