MODEL 1
REMARK VINA RESULT:      -7.3      0.000      0.000
REMARK  Name = 56774929
REMARK  10 active torsions:
REMARK  status: ('A' for Active; 'I' for Inactive)
REMARK    1  A    between atoms: O_2  and  C_15
REMARK    2  A    between atoms: O_4  and  C_24
REMARK    3  A    between atoms: O_4  and  C_27
REMARK    4  A    between atoms: N_6  and  C_18
REMARK    5  A    between atoms: N_7  and  C_21
REMARK    6  A    between atoms: C_8  and  C_14
REMARK    7  A    between atoms: C_13  and  C_15
REMARK    8  A    between atoms: C_15  and  C_17
REMARK    9  A    between atoms: C_18  and  C_24
REMARK   10  A    between atoms: C_27  and  C_28
REMARK                            x       y       z     vdW  Elec       q    Type
REMARK                         _______ _______ _______ _____ _____    ______ ____
ROOT
ATOM     15  C   UNL     1      13.979   6.796  19.715  0.00  0.00    +0.167 C 
ENDROOT
BRANCH  15  13
ATOM      1  O   UNL     1      14.163   8.332  17.221  0.00  0.00    -0.369 OA
ATOM      5  O   UNL     1      10.572   8.452  17.590  0.00  0.00    -0.273 OA
ATOM      6  N   UNL     1      12.217   8.455  19.236  0.00  0.00    -0.289 N 
ATOM     13  C   UNL     1      13.640   8.281  19.553  0.00  0.00    +0.135 C 
ATOM     16  C   UNL     1      14.498   8.925  18.470  0.00  0.00    +0.185 C 
ATOM     19  C   UNL     1      11.759   8.481  17.921  0.00  0.00    +0.242 C 
ATOM     20  C   UNL     1      12.836   8.642  16.854  0.00  0.00    +0.255 C 
BRANCH   6  18
ATOM     18  C   UNL     1      11.271   8.416  20.344  0.00  0.00    +0.136 C 
BRANCH  18  24
ATOM     24  C   UNL     1      11.649   9.402  21.434  0.00  0.00    +0.178 C 
BRANCH  24   4
ATOM      4  O   UNL     1      10.587   9.498  22.374  0.00  0.00    -0.378 OA
BRANCH   4  27
ATOM     27  C   UNL     1      10.800  10.558  23.295  0.00  0.00    +0.156 C 
ATOM     28  C   UNL     1      11.169  11.810  22.528  0.00  0.00    +0.034 C 
ENDBRANCH   4  27
ENDBRANCH  24   4
ENDBRANCH  18  24
ENDBRANCH   6  18
ENDBRANCH  15  13
BRANCH  15  17
ATOM     17  C   UNL     1      15.460   6.577  19.891  0.00  0.00    -0.017 A 
ATOM     21  C   UNL     1      18.201   6.167  20.217  0.00  0.00    +0.033 A 
ATOM     22  C   UNL     1      16.220   6.066  18.838  0.00  0.00    +0.008 A 
ATOM     23  C   UNL     1      16.072   6.883  21.107  0.00  0.00    +0.008 A 
ATOM     25  C   UNL     1      17.589   5.862  19.002  0.00  0.00    +0.023 A 
ATOM     26  C   UNL     1      17.442   6.678  21.270  0.00  0.00    +0.023 A 
BRANCH  21   7
ATOM      3  O   UNL     1      20.377   8.079  21.037  0.00  0.00    -0.275 OA
ATOM      7  N   UNL     1      19.571   5.963  20.381  0.00  0.00    -0.285 N 
ATOM     14  C   UNL     1      20.544   6.894  20.766  0.00  0.00    +0.220 C 
ATOM     29  H   UNL     1      19.888   5.012  20.201  0.00  0.00    +0.155 HD
BRANCH  14   8
ATOM      8  C   UNL     1      21.909   6.278  20.825  0.00  0.00    +0.075 C 
ATOM      9  C   UNL     1      22.472   6.351  22.246  0.00  0.00    +0.013 C 
ATOM     10  C   UNL     1      21.836   4.789  20.469  0.00  0.00    +0.013 C 
ATOM     11  C   UNL     1      22.215   4.971  22.833  0.00  0.00    +0.001 C 
ATOM     12  C   UNL     1      22.451   4.047  21.651  0.00  0.00    +0.001 C 
ENDBRANCH  14   8
ENDBRANCH  21   7
ENDBRANCH  15  17
BRANCH  15   2
ATOM      2  O   UNL     1      13.284   6.275  20.842  0.00  0.00    -0.385 OA
ATOM     30  H   UNL     1      12.768   5.497  20.570  0.00  0.00    +0.210 HD
ENDBRANCH  15   2
TORSDOF 9
ENDMDL
MODEL 2
REMARK VINA RESULT:      -6.5      3.610      7.614
REMARK  Name = 56774929
REMARK  10 active torsions:
REMARK  status: ('A' for Active; 'I' for Inactive)
REMARK    1  A    between atoms: O_2  and  C_15
REMARK    2  A    between atoms: O_4  and  C_24
REMARK    3  A    between atoms: O_4  and  C_27
REMARK    4  A    between atoms: N_6  and  C_18
REMARK    5  A    between atoms: N_7  and  C_21
REMARK    6  A    between atoms: C_8  and  C_14
REMARK    7  A    between atoms: C_13  and  C_15
REMARK    8  A    between atoms: C_15  and  C_17
REMARK    9  A    between atoms: C_18  and  C_24
REMARK   10  A    between atoms: C_27  and  C_28
REMARK                            x       y       z     vdW  Elec       q    Type
REMARK                         _______ _______ _______ _____ _____    ______ ____
ROOT
ATOM     15  C   UNL     1      11.762   9.376  19.418  0.00  0.00    +0.167 C 
ENDROOT
BRANCH  15  13
ATOM      1  O   UNL     1      10.512   9.143  22.063  0.00  0.00    -0.369 OA
ATOM      5  O   UNL     1      11.147   5.628  21.527  0.00  0.00    -0.273 OA
ATOM      6  N   UNL     1      12.401   7.467  20.845  0.00  0.00    -0.289 N 
ATOM     13  C   UNL     1      12.466   8.927  20.703  0.00  0.00    +0.135 C 
ATOM     16  C   UNL     1      11.853   9.597  21.927  0.00  0.00    +0.185 C 
ATOM     19  C   UNL     1      11.353   6.844  21.518  0.00  0.00    +0.242 C 
ATOM     20  C   UNL     1      10.474   7.764  22.358  0.00  0.00    +0.255 C 
BRANCH   6  18
ATOM     18  C   UNL     1      13.371   6.674  20.101  0.00  0.00    +0.136 C 
BRANCH  18  24
ATOM     24  C   UNL     1      14.766   7.265  20.199  0.00  0.00    +0.178 C 
BRANCH  24   4
ATOM      4  O   UNL     1      15.717   6.216  20.322  0.00  0.00    -0.378 OA
BRANCH   4  27
ATOM     27  C   UNL     1      16.646   6.225  19.248  0.00  0.00    +0.156 C 
ATOM     28  C   UNL     1      18.048   6.117  19.807  0.00  0.00    +0.034 C 
ENDBRANCH   4  27
ENDBRANCH  24   4
ENDBRANCH  18  24
ENDBRANCH   6  18
ENDBRANCH  15  13
BRANCH  15  17
ATOM     17  C   UNL     1      12.747   9.816  18.365  0.00  0.00    -0.017 A 
ATOM     21  C   UNL     1      14.568  10.633  16.416  0.00  0.00    +0.033 A 
ATOM     22  C   UNL     1      13.423  11.028  18.507  0.00  0.00    +0.008 A 
ATOM     23  C   UNL     1      12.982   9.013  17.249  0.00  0.00    +0.008 A 
ATOM     25  C   UNL     1      14.334  11.436  17.532  0.00  0.00    +0.023 A 
ATOM     26  C   UNL     1      13.892   9.421  16.275  0.00  0.00    +0.023 A 
BRANCH  21   7
ATOM      3  O   UNL     1      14.110  11.661  13.624  0.00  0.00    -0.275 OA
ATOM      7  N   UNL     1      15.478  11.041  15.442  0.00  0.00    -0.285 N 
ATOM     14  C   UNL     1      15.209  11.513  14.150  0.00  0.00    +0.220 C 
ATOM     29  H   UNL     1      16.457  10.990  15.719  0.00  0.00    +0.155 HD
BRANCH  14   8
ATOM      8  C   UNL     1      16.467  11.848  13.408  0.00  0.00    +0.075 C 
ATOM      9  C   UNL     1      16.347  13.217  12.733  0.00  0.00    +0.013 C 
ATOM     10  C   UNL     1      17.646  11.953  14.382  0.00  0.00    +0.013 C 
ATOM     11  C   UNL     1      17.069  14.173  13.671  0.00  0.00    +0.001 C 
ATOM     12  C   UNL     1      18.238  13.343  14.171  0.00  0.00    +0.001 C 
ENDBRANCH  14   8
ENDBRANCH  21   7
ENDBRANCH  15  17
BRANCH  15   2
ATOM      2  O   UNL     1      10.974   8.303  18.914  0.00  0.00    -0.385 OA
ATOM     30  H   UNL     1      11.537   7.519  18.794  0.00  0.00    +0.210 HD
ENDBRANCH  15   2
TORSDOF 9
ENDMDL
MODEL 3
REMARK VINA RESULT:      -6.0     22.859     27.284
REMARK  Name = 56774929
REMARK  10 active torsions:
REMARK  status: ('A' for Active; 'I' for Inactive)
REMARK    1  A    between atoms: O_2  and  C_15
REMARK    2  A    between atoms: O_4  and  C_24
REMARK    3  A    between atoms: O_4  and  C_27
REMARK    4  A    between atoms: N_6  and  C_18
REMARK    5  A    between atoms: N_7  and  C_21
REMARK    6  A    between atoms: C_8  and  C_14
REMARK    7  A    between atoms: C_13  and  C_15
REMARK    8  A    between atoms: C_15  and  C_17
REMARK    9  A    between atoms: C_18  and  C_24
REMARK   10  A    between atoms: C_27  and  C_28
REMARK                            x       y       z     vdW  Elec       q    Type
REMARK                         _______ _______ _______ _____ _____    ______ ____
ROOT
ATOM     15  C   UNL     1      -2.555   9.181   5.684  0.00  0.00    +0.167 C 
ENDROOT
BRANCH  15  13
ATOM      1  O   UNL     1      -0.866  11.489   6.343  0.00  0.00    -0.369 OA
ATOM      5  O   UNL     1       0.574  10.753   3.113  0.00  0.00    -0.273 OA
ATOM      6  N   UNL     1      -1.629  10.515   3.826  0.00  0.00    -0.289 N 
ATOM     13  C   UNL     1      -2.563  10.531   4.959  0.00  0.00    +0.135 C 
ATOM     16  C   UNL     1      -2.210  11.667   5.911  0.00  0.00    +0.185 C 
ATOM     19  C   UNL     1      -0.299  10.902   3.971  0.00  0.00    +0.242 C 
ATOM     20  C   UNL     1       0.034  11.635   5.266  0.00  0.00    +0.255 C 
BRANCH   6  18
ATOM     18  C   UNL     1      -2.087   9.906   2.584  0.00  0.00    +0.136 C 
BRANCH  18  24
ATOM     24  C   UNL     1      -2.488  10.956   1.564  0.00  0.00    +0.178 C 
BRANCH  24   4
ATOM      4  O   UNL     1      -1.602  10.901   0.454  0.00  0.00    -0.378 OA
BRANCH   4  27
ATOM     27  C   UNL     1      -1.137   9.578   0.223  0.00  0.00    +0.156 C 
ATOM     28  C   UNL     1      -1.832   9.018  -0.999  0.00  0.00    +0.034 C 
ENDBRANCH   4  27
ENDBRANCH  24   4
ENDBRANCH  18  24
ENDBRANCH   6  18
ENDBRANCH  15  13
BRANCH  15  17
ATOM     17  C   UNL     1      -3.772   8.358   5.347  0.00  0.00    -0.017 A 
ATOM     21  C   UNL     1      -6.022   6.832   4.722  0.00  0.00    +0.033 A 
ATOM     22  C   UNL     1      -3.707   6.965   5.401  0.00  0.00    +0.008 A 
ATOM     23  C   UNL     1      -4.962   8.987   4.981  0.00  0.00    +0.008 A 
ATOM     25  C   UNL     1      -4.833   6.203   5.089  0.00  0.00    +0.023 A 
ATOM     26  C   UNL     1      -6.087   8.225   4.669  0.00  0.00    +0.023 A 
BRANCH  21   7
ATOM      3  O   UNL     1      -8.298   5.904   6.461  0.00  0.00    -0.275 OA
ATOM      7  N   UNL     1      -7.148   6.070   4.409  0.00  0.00    -0.285 N 
ATOM     14  C   UNL     1      -8.182   5.664   5.263  0.00  0.00    +0.220 C 
ATOM     29  H   UNL     1      -7.217   5.786   3.434  0.00  0.00    +0.155 HD
BRANCH  14   8
ATOM      8  C   UNL     1      -9.213   4.852   4.540  0.00  0.00    +0.075 C 
ATOM      9  C   UNL     1     -10.596   5.495   4.672  0.00  0.00    +0.013 C 
ATOM     10  C   UNL     1      -8.901   4.813   3.039  0.00  0.00    +0.013 C 
ATOM     11  C   UNL     1     -10.794   6.253   3.368  0.00  0.00    +0.001 C 
ATOM     12  C   UNL     1     -10.150   5.339   2.340  0.00  0.00    +0.001 C 
ENDBRANCH  14   8
ENDBRANCH  21   7
ENDBRANCH  15  17
BRANCH  15   2
ATOM      2  O   UNL     1      -1.380   8.462   5.325  0.00  0.00    -0.385 OA
ATOM     30  H   UNL     1      -1.136   8.680   4.410  0.00  0.00    +0.210 HD
ENDBRANCH  15   2
TORSDOF 9
ENDMDL
MODEL 4
REMARK VINA RESULT:      -5.9     27.242     30.549
REMARK  Name = 56774929
REMARK  10 active torsions:
REMARK  status: ('A' for Active; 'I' for Inactive)
REMARK    1  A    between atoms: O_2  and  C_15
REMARK    2  A    between atoms: O_4  and  C_24
REMARK    3  A    between atoms: O_4  and  C_27
REMARK    4  A    between atoms: N_6  and  C_18
REMARK    5  A    between atoms: N_7  and  C_21
REMARK    6  A    between atoms: C_8  and  C_14
REMARK    7  A    between atoms: C_13  and  C_15
REMARK    8  A    between atoms: C_15  and  C_17
REMARK    9  A    between atoms: C_18  and  C_24
REMARK   10  A    between atoms: C_27  and  C_28
REMARK                            x       y       z     vdW  Elec       q    Type
REMARK                         _______ _______ _______ _____ _____    ______ ____
ROOT
ATOM     15  C   UNL     1      -3.602 -10.613  15.991  0.00  0.00    +0.167 C 
ENDROOT
BRANCH  15  13
ATOM      1  O   UNL     1      -1.674 -10.871  13.794  0.00  0.00    -0.369 OA
ATOM      5  O   UNL     1      -2.237 -14.396  14.348  0.00  0.00    -0.273 OA
ATOM      6  N   UNL     1      -3.727 -12.620  14.561  0.00  0.00    -0.289 N 
ATOM     13  C   UNL     1      -3.908 -11.164  14.594  0.00  0.00    +0.135 C 
ATOM     16  C   UNL     1      -3.025 -10.505  13.540  0.00  0.00    +0.185 C 
ATOM     19  C   UNL     1      -2.503 -13.197  14.230  0.00  0.00    +0.242 C 
ATOM     20  C   UNL     1      -1.482 -12.256  13.602  0.00  0.00    +0.255 C 
BRANCH   6  18
ATOM     18  C   UNL     1      -4.817 -13.445  15.065  0.00  0.00    +0.136 C 
BRANCH  18  24
ATOM     24  C   UNL     1      -6.139 -13.081  14.413  0.00  0.00    +0.178 C 
BRANCH  24   4
ATOM      4  O   UNL     1      -7.182 -13.172  15.374  0.00  0.00    -0.378 OA
BRANCH   4  27
ATOM     27  C   UNL     1      -6.742 -13.816  16.562  0.00  0.00    +0.156 C 
ATOM     28  C   UNL     1      -7.807 -14.792  17.017  0.00  0.00    +0.034 C 
ENDBRANCH   4  27
ENDBRANCH  24   4
ENDBRANCH  18  24
ENDBRANCH   6  18
ENDBRANCH  15  13
BRANCH  15  17
ATOM     17  C   UNL     1      -4.841 -10.545  16.848  0.00  0.00    -0.017 A 
ATOM     21  C   UNL     1      -7.132 -10.423  18.435  0.00  0.00    +0.033 A 
ATOM     22  C   UNL     1      -4.826 -11.081  18.136  0.00  0.00    +0.008 A 
ATOM     23  C   UNL     1      -6.000  -9.947  16.354  0.00  0.00    +0.008 A 
ATOM     25  C   UNL     1      -5.972 -11.019  18.929  0.00  0.00    +0.023 A 
ATOM     26  C   UNL     1      -7.146  -9.886  17.147  0.00  0.00    +0.023 A 
BRANCH  21   7
ATOM      3  O   UNL     1      -9.628 -12.106  18.396  0.00  0.00    -0.275 OA
ATOM      7  N   UNL     1      -8.278 -10.361  19.228  0.00  0.00    -0.285 N 
ATOM     14  C   UNL     1      -9.418 -11.173  19.165  0.00  0.00    +0.220 C 
ATOM     29  H   UNL     1      -8.268  -9.634  19.940  0.00  0.00    +0.155 HD
BRANCH  14   8
ATOM      8  C   UNL     1     -10.435 -10.783  20.194  0.00  0.00    +0.075 C 
ATOM      9  C   UNL     1     -11.314  -9.642  19.677  0.00  0.00    +0.013 C 
ATOM     10  C   UNL     1     -11.379 -11.956  20.480  0.00  0.00    +0.013 C 
ATOM     11  C   UNL     1     -12.587 -10.326  19.198  0.00  0.00    +0.001 C 
ATOM     12  C   UNL     1     -12.787 -11.432  20.219  0.00  0.00    +0.001 C 
ENDBRANCH  14   8
ENDBRANCH  21   7
ENDBRANCH  15  17
BRANCH  15   2
ATOM      2  O   UNL     1      -2.633 -11.442  16.621  0.00  0.00    -0.385 OA
ATOM     30  H   UNL     1      -2.240 -12.038  15.961  0.00  0.00    +0.210 HD
ENDBRANCH  15   2
TORSDOF 9
ENDMDL
MODEL 5
REMARK VINA RESULT:      -5.8     27.592     29.985
REMARK  Name = 56774929
REMARK  10 active torsions:
REMARK  status: ('A' for Active; 'I' for Inactive)
REMARK    1  A    between atoms: O_2  and  C_15
REMARK    2  A    between atoms: O_4  and  C_24
REMARK    3  A    between atoms: O_4  and  C_27
REMARK    4  A    between atoms: N_6  and  C_18
REMARK    5  A    between atoms: N_7  and  C_21
REMARK    6  A    between atoms: C_8  and  C_14
REMARK    7  A    between atoms: C_13  and  C_15
REMARK    8  A    between atoms: C_15  and  C_17
REMARK    9  A    between atoms: C_18  and  C_24
REMARK   10  A    between atoms: C_27  and  C_28
REMARK                            x       y       z     vdW  Elec       q    Type
REMARK                         _______ _______ _______ _____ _____    ______ ____
ROOT
ATOM     15  C   UNL     1      -2.987 -11.659  11.231  0.00  0.00    +0.167 C 
ENDROOT
BRANCH  15  13
ATOM      1  O   UNL     1      -2.041 -14.040  12.663  0.00  0.00    -0.369 OA
ATOM      5  O   UNL     1      -1.825 -11.712  15.416  0.00  0.00    -0.273 OA
ATOM      6  N   UNL     1      -3.359 -11.777  13.667  0.00  0.00    -0.289 N 
ATOM     13  C   UNL     1      -3.724 -12.366  12.373  0.00  0.00    +0.135 C 
ATOM     16  C   UNL     1      -3.423 -13.860  12.376  0.00  0.00    +0.185 C 
ATOM     19  C   UNL     1      -2.288 -12.262  14.414  0.00  0.00    +0.242 C 
ATOM     20  C   UNL     1      -1.738 -13.613  13.973  0.00  0.00    +0.255 C 
BRANCH   6  18
ATOM     18  C   UNL     1      -4.037 -10.550  14.063  0.00  0.00    +0.136 C 
BRANCH  18  24
ATOM     24  C   UNL     1      -5.477 -10.813  14.462  0.00  0.00    +0.178 C 
BRANCH  24   4
ATOM      4  O   UNL     1      -5.510 -11.404  15.755  0.00  0.00    -0.378 OA
BRANCH   4  27
ATOM     27  C   UNL     1      -5.050 -10.503  16.752  0.00  0.00    +0.156 C 
ATOM     28  C   UNL     1      -4.361 -11.289  17.847  0.00  0.00    +0.034 C 
ENDBRANCH   4  27
ENDBRANCH  24   4
ENDBRANCH  18  24
ENDBRANCH   6  18
ENDBRANCH  15  13
BRANCH  15  17
ATOM     17  C   UNL     1      -3.882 -10.687  10.505  0.00  0.00    -0.017 A 
ATOM     21  C   UNL     1      -5.537  -8.891   9.158  0.00  0.00    +0.033 A 
ATOM     22  C   UNL     1      -4.924 -11.162   9.707  0.00  0.00    +0.008 A 
ATOM     23  C   UNL     1      -3.669  -9.314  10.629  0.00  0.00    +0.008 A 
ATOM     25  C   UNL     1      -5.751 -10.263   9.034  0.00  0.00    +0.023 A 
ATOM     26  C   UNL     1      -4.496  -8.416   9.956  0.00  0.00    +0.023 A 
BRANCH  21   7
ATOM      3  O   UNL     1      -8.431  -8.190   9.602  0.00  0.00    -0.275 OA
ATOM      7  N   UNL     1      -6.364  -7.992   8.485  0.00  0.00    -0.285 N 
ATOM     14  C   UNL     1      -7.713  -7.704   8.734  0.00  0.00    +0.220 C 
ATOM     29  H   UNL     1      -5.918  -7.484   7.724  0.00  0.00    +0.155 HD
BRANCH  14   8
ATOM      8  C   UNL     1      -8.246  -6.675   7.784  0.00  0.00    +0.075 C 
ATOM      9  C   UNL     1      -8.682  -7.327   6.470  0.00  0.00    +0.013 C 
ATOM     10  C   UNL     1      -9.498  -6.010   8.368  0.00  0.00    +0.013 C 
ATOM     11  C   UNL     1     -10.191  -7.473   6.596  0.00  0.00    +0.001 C 
ATOM     12  C   UNL     1     -10.597  -6.208   7.330  0.00  0.00    +0.001 C 
ENDBRANCH  14   8
ENDBRANCH  21   7
ENDBRANCH  15  17
BRANCH  15   2
ATOM      2  O   UNL     1      -1.860 -10.966  11.756  0.00  0.00    -0.385 OA
ATOM     30  H   UNL     1      -1.228 -10.790  11.040  0.00  0.00    +0.210 HD
ENDBRANCH  15   2
TORSDOF 9
ENDMDL
MODEL 6
REMARK VINA RESULT:      -5.8     28.282     32.584
REMARK  Name = 56774929
REMARK  10 active torsions:
REMARK  status: ('A' for Active; 'I' for Inactive)
REMARK    1  A    between atoms: O_2  and  C_15
REMARK    2  A    between atoms: O_4  and  C_24
REMARK    3  A    between atoms: O_4  and  C_27
REMARK    4  A    between atoms: N_6  and  C_18
REMARK    5  A    between atoms: N_7  and  C_21
REMARK    6  A    between atoms: C_8  and  C_14
REMARK    7  A    between atoms: C_13  and  C_15
REMARK    8  A    between atoms: C_15  and  C_17
REMARK    9  A    between atoms: C_18  and  C_24
REMARK   10  A    between atoms: C_27  and  C_28
REMARK                            x       y       z     vdW  Elec       q    Type
REMARK                         _______ _______ _______ _____ _____    ______ ____
ROOT
ATOM     15  C   UNL     1      -8.359  -8.261   5.782  0.00  0.00    +0.167 C 
ENDROOT
BRANCH  15  13
ATOM      1  O   UNL     1      -8.797 -10.844   4.459  0.00  0.00    -0.369 OA
ATOM      5  O   UNL     1      -5.243 -11.186   5.003  0.00  0.00    -0.273 OA
ATOM      6  N   UNL     1      -6.835 -10.123   6.328  0.00  0.00    -0.289 N 
ATOM     13  C   UNL     1      -8.216  -9.637   6.440  0.00  0.00    +0.135 C 
ATOM     16  C   UNL     1      -9.174 -10.645   5.817  0.00  0.00    +0.185 C 
ATOM     19  C   UNL     1      -6.416 -10.892   5.245  0.00  0.00    +0.242 C 
ATOM     20  C   UNL     1      -7.530 -11.459   4.373  0.00  0.00    +0.255 C 
BRANCH   6  18
ATOM     18  C   UNL     1      -5.864  -9.621   7.292  0.00  0.00    +0.136 C 
BRANCH  18  24
ATOM     24  C   UNL     1      -6.427  -9.627   8.702  0.00  0.00    +0.178 C 
BRANCH  24   4
ATOM      4  O   UNL     1      -5.462  -9.092   9.599  0.00  0.00    -0.378 OA
BRANCH   4  27
ATOM     27  C   UNL     1      -4.140  -9.268   9.108  0.00  0.00    +0.156 C 
ATOM     28  C   UNL     1      -3.177  -9.271  10.277  0.00  0.00    +0.034 C 
ENDBRANCH   4  27
ENDBRANCH  24   4
ENDBRANCH  18  24
ENDBRANCH   6  18
ENDBRANCH  15  13
BRANCH  15  17
ATOM     17  C   UNL     1      -9.081  -7.286   6.676  0.00  0.00    -0.017 A 
ATOM     21  C   UNL     1     -10.416  -5.483   8.335  0.00  0.00    +0.033 A 
ATOM     22  C   UNL     1      -8.363  -6.520   7.595  0.00  0.00    +0.008 A 
ATOM     23  C   UNL     1     -10.467  -7.150   6.587  0.00  0.00    +0.008 A 
ATOM     25  C   UNL     1      -9.031  -5.619   8.423  0.00  0.00    +0.023 A 
ATOM     26  C   UNL     1     -11.134  -6.249   7.416  0.00  0.00    +0.023 A 
BRANCH  21   7
ATOM      3  O   UNL     1     -11.941  -5.940  10.890  0.00  0.00    -0.275 OA
ATOM      7  N   UNL     1     -11.084  -4.582   9.163  0.00  0.00    -0.285 N 
ATOM     14  C   UNL     1     -11.784  -4.851  10.348  0.00  0.00    +0.220 C 
ATOM     29  H   UNL     1     -11.046  -3.611   8.861  0.00  0.00    +0.155 HD
BRANCH  14   8
ATOM      8  C   UNL     1     -12.364  -3.605  10.944  0.00  0.00    +0.075 C 
ATOM      9  C   UNL     1     -13.729  -3.296  10.325  0.00  0.00    +0.013 C 
ATOM     10  C   UNL     1     -12.609  -3.798  12.446  0.00  0.00    +0.013 C 
ATOM     11  C   UNL     1     -14.738  -3.821  11.337  0.00  0.00    +0.001 C 
ATOM     12  C   UNL     1     -14.086  -3.496  12.669  0.00  0.00    +0.001 C 
ENDBRANCH  14   8
ENDBRANCH  21   7
ENDBRANCH  15  17
BRANCH  15   2
ATOM      2  O   UNL     1      -7.067  -7.752   5.469  0.00  0.00    -0.385 OA
ATOM     30  H   UNL     1      -7.156  -6.868   5.075  0.00  0.00    +0.210 HD
ENDBRANCH  15   2
TORSDOF 9
ENDMDL
MODEL 7
REMARK VINA RESULT:      -5.8     15.019     18.880
REMARK  Name = 56774929
REMARK  10 active torsions:
REMARK  status: ('A' for Active; 'I' for Inactive)
REMARK    1  A    between atoms: O_2  and  C_15
REMARK    2  A    between atoms: O_4  and  C_24
REMARK    3  A    between atoms: O_4  and  C_27
REMARK    4  A    between atoms: N_6  and  C_18
REMARK    5  A    between atoms: N_7  and  C_21
REMARK    6  A    between atoms: C_8  and  C_14
REMARK    7  A    between atoms: C_13  and  C_15
REMARK    8  A    between atoms: C_15  and  C_17
REMARK    9  A    between atoms: C_18  and  C_24
REMARK   10  A    between atoms: C_27  and  C_28
REMARK                            x       y       z     vdW  Elec       q    Type
REMARK                         _______ _______ _______ _____ _____    ______ ____
ROOT
ATOM     15  C   UNL     1       9.524   7.166   4.433  0.00  0.00    +0.167 C 
ENDROOT
BRANCH  15  13
ATOM      1  O   UNL     1      10.715   9.848   4.457  0.00  0.00    -0.369 OA
ATOM      5  O   UNL     1       9.344   9.907   7.797  0.00  0.00    -0.273 OA
ATOM      6  N   UNL     1      10.219   8.112   6.603  0.00  0.00    -0.289 N 
ATOM     13  C   UNL     1      10.699   7.613   5.307  0.00  0.00    +0.135 C 
ATOM     16  C   UNL     1      11.524   8.687   4.609  0.00  0.00    +0.185 C 
ATOM     19  C   UNL     1       9.908   9.455   6.798  0.00  0.00    +0.242 C 
ATOM     20  C   UNL     1      10.394  10.407   5.711  0.00  0.00    +0.255 C 
BRANCH   6  18
ATOM     18  C   UNL     1       9.902   7.126   7.628  0.00  0.00    +0.136 C 
BRANCH  18  24
ATOM     24  C   UNL     1      11.039   6.140   7.822  0.00  0.00    +0.178 C 
BRANCH  24   4
ATOM      4  O   UNL     1      10.631   5.119   8.724  0.00  0.00    -0.378 OA
BRANCH   4  27
ATOM     27  C   UNL     1       9.264   5.256   9.082  0.00  0.00    +0.156 C 
ATOM     28  C   UNL     1       9.016   4.512  10.378  0.00  0.00    +0.034 C 
ENDBRANCH   4  27
ENDBRANCH  24   4
ENDBRANCH  18  24
ENDBRANCH   6  18
ENDBRANCH  15  13
BRANCH  15  17
ATOM     17  C   UNL     1       9.979   6.309   3.279  0.00  0.00    -0.017 A 
ATOM     21  C   UNL     1      10.827   4.724   1.145  0.00  0.00    +0.033 A 
ATOM     22  C   UNL     1      10.619   5.094   3.524  0.00  0.00    +0.008 A 
ATOM     23  C   UNL     1       9.762   6.731   1.967  0.00  0.00    +0.008 A 
ATOM     25  C   UNL     1      11.042   4.302   2.456  0.00  0.00    +0.023 A 
ATOM     26  C   UNL     1      10.186   5.939   0.900  0.00  0.00    +0.023 A 
BRANCH  21   7
ATOM      3  O   UNL     1      13.115   5.094  -0.775  0.00  0.00    -0.275 OA
ATOM      7  N   UNL     1      11.249   3.932   0.078  0.00  0.00    -0.285 N 
ATOM     14  C   UNL     1      12.328   4.154  -0.790  0.00  0.00    +0.220 C 
ATOM     29  H   UNL     1      10.701   3.088  -0.075  0.00  0.00    +0.155 HD
BRANCH  14   8
ATOM      8  C   UNL     1      12.450   3.065  -1.812  0.00  0.00    +0.075 C 
ATOM      9  C   UNL     1      11.070   2.655  -2.331  0.00  0.00    +0.013 C 
ATOM     10  C   UNL     1      13.235   3.565  -3.030  0.00  0.00    +0.013 C 
ATOM     11  C   UNL     1      10.924   3.391  -3.655  0.00  0.00    +0.001 C 
ATOM     12  C   UNL     1      12.327   3.337  -4.233  0.00  0.00    +0.001 C 
ENDBRANCH  14   8
ENDBRANCH  21   7
ENDBRANCH  15  17
BRANCH  15   2
ATOM      2  O   UNL     1       8.596   6.437   5.228  0.00  0.00    -0.385 OA
ATOM     30  H   UNL     1       8.261   7.009   5.939  0.00  0.00    +0.210 HD
ENDBRANCH  15   2
TORSDOF 9
ENDMDL
MODEL 8
REMARK VINA RESULT:      -5.8     26.651     29.514
REMARK  Name = 56774929
REMARK  10 active torsions:
REMARK  status: ('A' for Active; 'I' for Inactive)
REMARK    1  A    between atoms: O_2  and  C_15
REMARK    2  A    between atoms: O_4  and  C_24
REMARK    3  A    between atoms: O_4  and  C_27
REMARK    4  A    between atoms: N_6  and  C_18
REMARK    5  A    between atoms: N_7  and  C_21
REMARK    6  A    between atoms: C_8  and  C_14
REMARK    7  A    between atoms: C_13  and  C_15
REMARK    8  A    between atoms: C_15  and  C_17
REMARK    9  A    between atoms: C_18  and  C_24
REMARK   10  A    between atoms: C_27  and  C_28
REMARK                            x       y       z     vdW  Elec       q    Type
REMARK                         _______ _______ _______ _____ _____    ______ ____
ROOT
ATOM     15  C   UNL     1      -7.356 -11.173  18.233  0.00  0.00    +0.167 C 
ENDROOT
BRANCH  15  13
ATOM      1  O   UNL     1      -9.084 -12.984  19.765  0.00  0.00    -0.369 OA
ATOM      5  O   UNL     1     -10.967  -9.951  20.315  0.00  0.00    -0.273 OA
ATOM      6  N   UNL     1      -9.747 -10.601  18.443  0.00  0.00    -0.289 N 
ATOM     13  C   UNL     1      -8.793 -11.558  17.868  0.00  0.00    +0.135 C 
ATOM     16  C   UNL     1      -9.119 -12.969  18.343  0.00  0.00    +0.185 C 
ATOM     19  C   UNL     1     -10.300 -10.791  19.707  0.00  0.00    +0.242 C 
ATOM     20  C   UNL     1     -10.111 -12.181  20.304  0.00  0.00    +0.255 C 
BRANCH   6  18
ATOM     18  C   UNL     1      -9.958  -9.350  17.728  0.00  0.00    +0.136 C 
BRANCH  18  24
ATOM     24  C   UNL     1     -10.146  -9.583  16.240  0.00  0.00    +0.178 C 
BRANCH  24   4
ATOM      4  O   UNL     1      -9.923  -8.367  15.538  0.00  0.00    -0.378 OA
BRANCH   4  27
ATOM     27  C   UNL     1     -10.141  -7.237  16.371  0.00  0.00    +0.156 C 
ATOM     28  C   UNL     1     -10.854  -6.166  15.573  0.00  0.00    +0.034 C 
ENDBRANCH   4  27
ENDBRANCH  24   4
ENDBRANCH  18  24
ENDBRANCH   6  18
ENDBRANCH  15  13
BRANCH  15  17
ATOM     17  C   UNL     1      -6.457 -11.155  17.023  0.00  0.00    -0.017 A 
ATOM     21  C   UNL     1      -4.796 -11.120  14.782  0.00  0.00    +0.033 A 
ATOM     22  C   UNL     1      -6.395 -10.016  16.219  0.00  0.00    +0.008 A 
ATOM     23  C   UNL     1      -5.687 -12.275  16.707  0.00  0.00    +0.008 A 
ATOM     25  C   UNL     1      -5.564 -10.000  15.098  0.00  0.00    +0.023 A 
ATOM     26  C   UNL     1      -4.857 -12.257  15.587  0.00  0.00    +0.023 A 
BRANCH  21   7
ATOM      3  O   UNL     1      -1.921 -10.276  14.494  0.00  0.00    -0.275 OA
ATOM      7  N   UNL     1      -3.965 -11.103  13.662  0.00  0.00    -0.285 N 
ATOM     14  C   UNL     1      -2.626 -10.697  13.583  0.00  0.00    +0.220 C 
ATOM     29  H   UNL     1      -4.397 -11.437  12.802  0.00  0.00    +0.155 HD
BRANCH  14   8
ATOM      8  C   UNL     1      -2.086 -10.831  12.192  0.00  0.00    +0.075 C 
ATOM      9  C   UNL     1      -3.227 -10.983  11.183  0.00  0.00    +0.013 C 
ATOM     10  C   UNL     1      -1.327  -9.561  11.792  0.00  0.00    +0.013 C 
ATOM     11  C   UNL     1      -3.407  -9.591  10.595  0.00  0.00    +0.001 C 
ATOM     12  C   UNL     1      -1.984  -9.069  10.507  0.00  0.00    +0.001 C 
ENDBRANCH  14   8
ENDBRANCH  21   7
ENDBRANCH  15  17
BRANCH  15   2
ATOM      2  O   UNL     1      -7.354  -9.888  18.846  0.00  0.00    -0.385 OA
ATOM     30  H   UNL     1      -6.745  -9.303  18.365  0.00  0.00    +0.210 HD
ENDBRANCH  15   2
TORSDOF 9
ENDMDL
MODEL 9
REMARK VINA RESULT:      -5.7     27.371     30.955
REMARK  Name = 56774929
REMARK  10 active torsions:
REMARK  status: ('A' for Active; 'I' for Inactive)
REMARK    1  A    between atoms: O_2  and  C_15
REMARK    2  A    between atoms: O_4  and  C_24
REMARK    3  A    between atoms: O_4  and  C_27
REMARK    4  A    between atoms: N_6  and  C_18
REMARK    5  A    between atoms: N_7  and  C_21
REMARK    6  A    between atoms: C_8  and  C_14
REMARK    7  A    between atoms: C_13  and  C_15
REMARK    8  A    between atoms: C_15  and  C_17
REMARK    9  A    between atoms: C_18  and  C_24
REMARK   10  A    between atoms: C_27  and  C_28
REMARK                            x       y       z     vdW  Elec       q    Type
REMARK                         _______ _______ _______ _____ _____    ______ ____
ROOT
ATOM     15  C   UNL     1      -5.840  -9.984  15.493  0.00  0.00    +0.167 C 
ENDROOT
BRANCH  15  13
ATOM      1  O   UNL     1      -3.908 -10.435  13.330  0.00  0.00    -0.369 OA
ATOM      5  O   UNL     1      -1.598 -10.700  16.094  0.00  0.00    -0.273 OA
ATOM      6  N   UNL     1      -3.835 -11.335  15.985  0.00  0.00    -0.289 N 
ATOM     13  C   UNL     1      -5.089 -11.292  15.224  0.00  0.00    +0.135 C 
ATOM     16  C   UNL     1      -4.803 -11.464  13.737  0.00  0.00    +0.185 C 
ATOM     19  C   UNL     1      -2.641 -10.851  15.454  0.00  0.00    +0.242 C 
ATOM     20  C   UNL     1      -2.651 -10.584  13.954  0.00  0.00    +0.255 C 
BRANCH   6  18
ATOM     18  C   UNL     1      -3.910 -11.730  17.386  0.00  0.00    +0.136 C 
BRANCH  18  24
ATOM     24  C   UNL     1      -4.831 -12.921  17.580  0.00  0.00    +0.178 C 
BRANCH  24   4
ATOM      4  O   UNL     1      -5.660 -12.699  18.713  0.00  0.00    -0.378 OA
BRANCH   4  27
ATOM     27  C   UNL     1      -5.373 -11.453  19.333  0.00  0.00    +0.156 C 
ATOM     28  C   UNL     1      -6.669 -10.828  19.804  0.00  0.00    +0.034 C 
ENDBRANCH   4  27
ENDBRANCH  24   4
ENDBRANCH  18  24
ENDBRANCH   6  18
ENDBRANCH  15  13
BRANCH  15  17
ATOM     17  C   UNL     1      -7.182 -10.231  16.135  0.00  0.00    -0.017 A 
ATOM     21  C   UNL     1      -9.663 -10.687  17.326  0.00  0.00    +0.033 A 
ATOM     22  C   UNL     1      -7.849  -9.188  16.777  0.00  0.00    +0.008 A 
ATOM     23  C   UNL     1      -7.755 -11.502  16.088  0.00  0.00    +0.008 A 
ATOM     25  C   UNL     1      -9.090  -9.417  17.372  0.00  0.00    +0.023 A 
ATOM     26  C   UNL     1      -8.996 -11.730  16.683  0.00  0.00    +0.023 A 
BRANCH  21   7
ATOM      3  O   UNL     1     -10.383 -11.215  20.201  0.00  0.00    -0.275 OA
ATOM      7  N   UNL     1     -10.904 -10.916  17.921  0.00  0.00    -0.285 N 
ATOM     14  C   UNL     1     -11.183 -11.159  19.272  0.00  0.00    +0.220 C 
ATOM     29  H   UNL     1     -11.697 -10.896  17.282  0.00  0.00    +0.155 HD
BRANCH  14   8
ATOM      8  C   UNL     1     -12.650 -11.357  19.509  0.00  0.00    +0.075 C 
ATOM      9  C   UNL     1     -13.044 -10.856  20.900  0.00  0.00    +0.013 C 
ATOM     10  C   UNL     1     -13.466 -10.531  18.508  0.00  0.00    +0.013 C 
ATOM     11  C   UNL     1     -13.634  -9.474  20.657  0.00  0.00    +0.001 C 
ATOM     12  C   UNL     1     -14.382  -9.647  19.347  0.00  0.00    +0.001 C 
ENDBRANCH  14   8
ENDBRANCH  21   7
ENDBRANCH  15  17
BRANCH  15   2
ATOM      2  O   UNL     1      -5.053  -9.156  16.341  0.00  0.00    -0.385 OA
ATOM     30  H   UNL     1      -4.423  -8.649  15.802  0.00  0.00    +0.210 HD
ENDBRANCH  15   2
TORSDOF 9
ENDMDL
MODEL 10
REMARK VINA RESULT:      -5.7     26.767     30.638
REMARK  Name = 56774929
REMARK  10 active torsions:
REMARK  status: ('A' for Active; 'I' for Inactive)
REMARK    1  A    between atoms: O_2  and  C_15
REMARK    2  A    between atoms: O_4  and  C_24
REMARK    3  A    between atoms: O_4  and  C_27
REMARK    4  A    between atoms: N_6  and  C_18
REMARK    5  A    between atoms: N_7  and  C_21
REMARK    6  A    between atoms: C_8  and  C_14
REMARK    7  A    between atoms: C_13  and  C_15
REMARK    8  A    between atoms: C_15  and  C_17
REMARK    9  A    between atoms: C_18  and  C_24
REMARK   10  A    between atoms: C_27  and  C_28
REMARK                            x       y       z     vdW  Elec       q    Type
REMARK                         _______ _______ _______ _____ _____    ______ ____
ROOT
ATOM     15  C   UNL     1     -11.578   7.601  20.279  0.00  0.00    +0.167 C 
ENDROOT
BRANCH  15  13
ATOM      1  O   UNL     1      -9.829   9.584  19.006  0.00  0.00    -0.369 OA
ATOM      5  O   UNL     1     -11.625   8.563  16.043  0.00  0.00    -0.273 OA
ATOM      6  N   UNL     1     -12.386   8.726  18.237  0.00  0.00    -0.289 N 
ATOM     13  C   UNL     1     -12.034   8.921  19.649  0.00  0.00    +0.135 C 
ATOM     16  C   UNL     1     -10.955   9.990  19.775  0.00  0.00    +0.185 C 
ATOM     19  C   UNL     1     -11.443   8.875  17.222  0.00  0.00    +0.242 C 
ATOM     20  C   UNL     1     -10.142   9.555  17.630  0.00  0.00    +0.255 C 
BRANCH   6  18
ATOM     18  C   UNL     1     -13.708   8.191  17.940  0.00  0.00    +0.136 C 
BRANCH  18  24
ATOM     24  C   UNL     1     -14.797   9.210  18.218  0.00  0.00    +0.178 C 
BRANCH  24   4
ATOM      4  O   UNL     1     -16.070   8.605  18.034  0.00  0.00    -0.378 OA
BRANCH   4  27
ATOM     27  C   UNL     1     -16.180   7.391  18.763  0.00  0.00    +0.156 C 
ATOM     28  C   UNL     1     -17.204   7.567  19.865  0.00  0.00    +0.034 C 
ENDBRANCH   4  27
ENDBRANCH  24   4
ENDBRANCH  18  24
ENDBRANCH   6  18
ENDBRANCH  15  13
BRANCH  15  17
ATOM     17  C   UNL     1     -12.630   7.024  21.192  0.00  0.00    -0.017 A 
ATOM     21  C   UNL     1     -14.576   5.955  22.881  0.00  0.00    +0.033 A 
ATOM     22  C   UNL     1     -12.558   5.686  21.580  0.00  0.00    +0.008 A 
ATOM     23  C   UNL     1     -13.674   7.828  21.650  0.00  0.00    +0.008 A 
ATOM     25  C   UNL     1     -13.531   5.152  22.424  0.00  0.00    +0.023 A 
ATOM     26  C   UNL     1     -14.647   7.293  22.494  0.00  0.00    +0.023 A 
BRANCH  21   7
ATOM      3  O   UNL     1     -16.126   3.381  22.695  0.00  0.00    -0.275 OA
ATOM      7  N   UNL     1     -15.550   5.421  23.725  0.00  0.00    -0.285 N 
ATOM     14  C   UNL     1     -16.244   4.212  23.589  0.00  0.00    +0.220 C 
ATOM     29  H   UNL     1     -15.769   5.990  24.541  0.00  0.00    +0.155 HD
BRANCH  14   8
ATOM      8  C   UNL     1     -17.213   3.999  24.712  0.00  0.00    +0.075 C 
ATOM      9  C   UNL     1     -16.885   2.712  25.472  0.00  0.00    +0.013 C 
ATOM     10  C   UNL     1     -17.103   5.138  25.732  0.00  0.00    +0.013 C 
ATOM     11  C   UNL     1     -16.115   3.176  26.700  0.00  0.00    +0.001 C 
ATOM     12  C   UNL     1     -16.815   4.471  27.073  0.00  0.00    +0.001 C 
ENDBRANCH  14   8
ENDBRANCH  21   7
ENDBRANCH  15  17
BRANCH  15   2
ATOM      2  O   UNL     1     -11.280   6.666  19.248  0.00  0.00    -0.385 OA
ATOM     30  H   UNL     1     -12.098   6.216  18.975  0.00  0.00    +0.210 HD
ENDBRANCH  15   2
TORSDOF 9
ENDMDL
