MODEL 1
REMARK VINA RESULT:      -6.9      0.000      0.000
REMARK  Name = 26744180
REMARK  7 active torsions:
REMARK  status: ('A' for Active; 'I' for Inactive)
REMARK    1  A    between atoms: O_1  and  C_11
REMARK    2  A    between atoms: O_3  and  C_24
REMARK    3  A    between atoms: O_3  and  C_25
REMARK    4  A    between atoms: N_4  and  C_13
REMARK    5  A    between atoms: C_9  and  C_14
REMARK    6  A    between atoms: C_13  and  C_15
REMARK    7  A    between atoms: C_16  and  C_18
REMARK                            x       y       z     vdW  Elec       q    Type
REMARK                         _______ _______ _______ _____ _____    ______ ____
ROOT
ATOM      4  N   UNL     1      12.359   8.615  19.789  0.00  0.00    -0.282 NA
ATOM      9  C   UNL     1      13.175   8.223  20.956  0.00  0.00    +0.149 C 
ATOM     10  C   UNL     1      12.246   7.334  21.805  0.00  0.00    +0.061 C 
ATOM     11  C   UNL     1      10.919   7.324  21.058  0.00  0.00    +0.130 C 
ATOM     12  C   UNL     1      10.966   8.595  20.233  0.00  0.00    +0.117 C 
ENDROOT
BRANCH   9  14
ATOM      2  O   UNL     1      14.414   6.775  19.427  0.00  0.00    -0.336 OA
ATOM      5  N   UNL     1      15.623   7.527  21.157  0.00  0.00    -0.190 NA
ATOM      8  N   UNL     1      15.697   6.234  19.271  0.00  0.00    -0.056 NA
ATOM     14  C   UNL     1      14.457   7.522  20.561  0.00  0.00    +0.245 A 
ATOM     16  C   UNL     1      16.351   6.722  20.328  0.00  0.00    +0.202 A 
BRANCH  16  18
ATOM     18  C   UNL     1      17.731   6.428  20.586  0.00  0.00    +0.023 A 
ATOM     20  C   UNL     1      18.389   5.453  19.836  0.00  0.00    +0.015 A 
ATOM     21  C   UNL     1      18.415   7.116  21.588  0.00  0.00    +0.015 A 
ATOM     22  C   UNL     1      19.731   5.167  20.089  0.00  0.00    +0.046 A 
ATOM     23  C   UNL     1      19.756   6.830  21.841  0.00  0.00    +0.046 A 
ATOM     24  C   UNL     1      20.414   5.856  21.091  0.00  0.00    +0.120 A 
BRANCH  24   3
ATOM      3  O   UNL     1      21.723   5.577  21.338  0.00  0.00    -0.495 OA
ATOM     25  C   UNL     1      22.029   4.270  21.822  0.00  0.00    +0.277 C 
ENDBRANCH  24   3
ENDBRANCH  16  18
ENDBRANCH   9  14
BRANCH  11   1
ATOM      1  O   UNL     1       9.833   7.326  21.964  0.00  0.00    -0.390 OA
ATOM     26  H   UNL     1       9.091   6.869  21.531  0.00  0.00    +0.210 HD
ENDBRANCH  11   1
BRANCH   4  13
ATOM     13  C   UNL     1      12.738   9.907  19.231  0.00  0.00    +0.159 C 
BRANCH  13  15
ATOM      6  N   UNL     1      13.306   8.579  17.183  0.00  0.00    -0.347 N 
ATOM      7  N   UNL     1      13.922  10.711  17.153  0.00  0.00    -0.239 NA
ATOM     15  C   UNL     1      13.333   9.769  17.855  0.00  0.00    +0.121 A 
ATOM     17  C   UNL     1      13.917   8.774  15.977  0.00  0.00    +0.104 A 
ATOM     19  C   UNL     1      14.288  10.098  15.981  0.00  0.00    +0.130 A 
ATOM     27  H   UNL     1      12.909   7.711  17.518  0.00  0.00    +0.167 HD
ENDBRANCH  13  15
ENDBRANCH   4  13
TORSDOF 6
ENDMDL
MODEL 2
REMARK VINA RESULT:      -6.8      2.011      3.684
REMARK  Name = 26744180
REMARK  7 active torsions:
REMARK  status: ('A' for Active; 'I' for Inactive)
REMARK    1  A    between atoms: O_1  and  C_11
REMARK    2  A    between atoms: O_3  and  C_24
REMARK    3  A    between atoms: O_3  and  C_25
REMARK    4  A    between atoms: N_4  and  C_13
REMARK    5  A    between atoms: C_9  and  C_14
REMARK    6  A    between atoms: C_13  and  C_15
REMARK    7  A    between atoms: C_16  and  C_18
REMARK                            x       y       z     vdW  Elec       q    Type
REMARK                         _______ _______ _______ _____ _____    ______ ____
ROOT
ATOM      4  N   UNL     1      14.274   8.516  20.073  0.00  0.00    -0.282 NA
ATOM      9  C   UNL     1      14.406   7.287  19.264  0.00  0.00    +0.149 C 
ATOM     10  C   UNL     1      14.020   7.713  17.835  0.00  0.00    +0.061 C 
ATOM     11  C   UNL     1      13.644   9.185  17.950  0.00  0.00    +0.130 C 
ATOM     12  C   UNL     1      13.266   9.342  19.411  0.00  0.00    +0.117 C 
ENDROOT
BRANCH   9  14
ATOM      2  O   UNL     1      16.165   5.886  18.308  0.00  0.00    -0.336 OA
ATOM      5  N   UNL     1      16.703   6.817  20.273  0.00  0.00    -0.190 NA
ATOM      8  N   UNL     1      17.465   5.453  18.602  0.00  0.00    -0.056 NA
ATOM     14  C   UNL     1      15.792   6.684  19.342  0.00  0.00    +0.245 A 
ATOM     16  C   UNL     1      17.712   6.043  19.774  0.00  0.00    +0.202 A 
BRANCH  16  18
ATOM     18  C   UNL     1      18.954   5.882  20.473  0.00  0.00    +0.023 A 
ATOM     20  C   UNL     1      19.269   6.725  21.539  0.00  0.00    +0.015 A 
ATOM     21  C   UNL     1      19.847   4.883  20.086  0.00  0.00    +0.015 A 
ATOM     22  C   UNL     1      20.478   6.569  22.216  0.00  0.00    +0.046 A 
ATOM     23  C   UNL     1      21.056   4.727  20.763  0.00  0.00    +0.046 A 
ATOM     24  C   UNL     1      21.372   5.570  21.829  0.00  0.00    +0.120 A 
BRANCH  24   3
ATOM      3  O   UNL     1      22.552   5.417  22.490  0.00  0.00    -0.495 OA
ATOM     25  C   UNL     1      23.065   4.091  22.603  0.00  0.00    +0.277 C 
ENDBRANCH  24   3
ENDBRANCH  16  18
ENDBRANCH   9  14
BRANCH  11   1
ATOM      1  O   UNL     1      12.564   9.496  17.092  0.00  0.00    -0.390 OA
ATOM     26  H   UNL     1      12.327  10.426  17.247  0.00  0.00    +0.210 HD
ENDBRANCH  11   1
BRANCH   4  13
ATOM     13  C   UNL     1      13.938   8.253  21.467  0.00  0.00    +0.159 C 
BRANCH  13  15
ATOM      6  N   UNL     1      12.493   6.208  21.393  0.00  0.00    -0.347 N 
ATOM      7  N   UNL     1      11.461   8.102  21.918  0.00  0.00    -0.239 NA
ATOM     15  C   UNL     1      12.613   7.554  21.602  0.00  0.00    +0.121 A 
ATOM     17  C   UNL     1      11.181   5.877  21.588  0.00  0.00    +0.104 A 
ATOM     19  C   UNL     1      10.565   7.063  21.912  0.00  0.00    +0.130 A 
ATOM     27  H   UNL     1      13.237   5.573  21.138  0.00  0.00    +0.167 HD
ENDBRANCH  13  15
ENDBRANCH   4  13
TORSDOF 6
ENDMDL
MODEL 3
REMARK VINA RESULT:      -6.7      2.087      3.473
REMARK  Name = 26744180
REMARK  7 active torsions:
REMARK  status: ('A' for Active; 'I' for Inactive)
REMARK    1  A    between atoms: O_1  and  C_11
REMARK    2  A    between atoms: O_3  and  C_24
REMARK    3  A    between atoms: O_3  and  C_25
REMARK    4  A    between atoms: N_4  and  C_13
REMARK    5  A    between atoms: C_9  and  C_14
REMARK    6  A    between atoms: C_13  and  C_15
REMARK    7  A    between atoms: C_16  and  C_18
REMARK                            x       y       z     vdW  Elec       q    Type
REMARK                         _______ _______ _______ _____ _____    ______ ____
ROOT
ATOM      4  N   UNL     1      12.250   8.374  20.104  0.00  0.00    -0.282 NA
ATOM      9  C   UNL     1      13.107   7.271  19.627  0.00  0.00    +0.149 C 
ATOM     10  C   UNL     1      12.824   7.176  18.116  0.00  0.00    +0.061 C 
ATOM     11  C   UNL     1      11.762   8.235  17.847  0.00  0.00    +0.130 C 
ATOM     12  C   UNL     1      11.103   8.428  19.199  0.00  0.00    +0.117 C 
ENDROOT
BRANCH   9  14
ATOM      2  O   UNL     1      14.975   8.789  20.051  0.00  0.00    -0.336 OA
ATOM      5  N   UNL     1      15.528   6.619  20.113  0.00  0.00    -0.190 NA
ATOM      8  N   UNL     1      16.346   8.744  20.334  0.00  0.00    -0.056 NA
ATOM     14  C   UNL     1      14.573   7.497  19.936  0.00  0.00    +0.245 A 
ATOM     16  C   UNL     1      16.598   7.432  20.354  0.00  0.00    +0.202 A 
BRANCH  16  18
ATOM     18  C   UNL     1      17.905   6.901  20.612  0.00  0.00    +0.023 A 
ATOM     20  C   UNL     1      18.361   5.792  19.899  0.00  0.00    +0.015 A 
ATOM     21  C   UNL     1      18.719   7.491  21.578  0.00  0.00    +0.015 A 
ATOM     22  C   UNL     1      19.631   5.275  20.153  0.00  0.00    +0.046 A 
ATOM     23  C   UNL     1      19.988   6.974  21.833  0.00  0.00    +0.046 A 
ATOM     24  C   UNL     1      20.445   5.866  21.120  0.00  0.00    +0.120 A 
BRANCH  24   3
ATOM      3  O   UNL     1      21.685   5.361  21.367  0.00  0.00    -0.495 OA
ATOM     25  C   UNL     1      21.752   4.074  21.979  0.00  0.00    +0.277 C 
ENDBRANCH  24   3
ENDBRANCH  16  18
ENDBRANCH   9  14
BRANCH  11   1
ATOM      1  O   UNL     1      10.841   7.786  16.873  0.00  0.00    -0.390 OA
ATOM     26  H   UNL     1      11.129   8.140  16.014  0.00  0.00    +0.210 HD
ENDBRANCH  11   1
BRANCH   4  13
ATOM     13  C   UNL     1      11.844   8.226  21.496  0.00  0.00    +0.159 C 
BRANCH  13  15
ATOM      6  N   UNL     1      11.138   9.643  23.439  0.00  0.00    -0.347 N 
ATOM      7  N   UNL     1      11.658  10.741  21.581  0.00  0.00    -0.239 NA
ATOM     15  C   UNL     1      11.556   9.556  22.140  0.00  0.00    +0.121 A 
ATOM     17  C   UNL     1      10.963  10.967  23.726  0.00  0.00    +0.104 A 
ATOM     19  C   UNL     1      11.291  11.625  22.564  0.00  0.00    +0.130 A 
ATOM     27  H   UNL     1      10.984   8.869  24.071  0.00  0.00    +0.167 HD
ENDBRANCH  13  15
ENDBRANCH   4  13
TORSDOF 6
ENDMDL
MODEL 4
REMARK VINA RESULT:      -6.0      1.421      2.339
REMARK  Name = 26744180
REMARK  7 active torsions:
REMARK  status: ('A' for Active; 'I' for Inactive)
REMARK    1  A    between atoms: O_1  and  C_11
REMARK    2  A    between atoms: O_3  and  C_24
REMARK    3  A    between atoms: O_3  and  C_25
REMARK    4  A    between atoms: N_4  and  C_13
REMARK    5  A    between atoms: C_9  and  C_14
REMARK    6  A    between atoms: C_13  and  C_15
REMARK    7  A    between atoms: C_16  and  C_18
REMARK                            x       y       z     vdW  Elec       q    Type
REMARK                         _______ _______ _______ _____ _____    ______ ____
ROOT
ATOM      4  N   UNL     1      12.341   8.573  19.819  0.00  0.00    -0.282 NA
ATOM      9  C   UNL     1      13.154   8.176  20.986  0.00  0.00    +0.149 C 
ATOM     10  C   UNL     1      12.231   7.268  21.819  0.00  0.00    +0.061 C 
ATOM     11  C   UNL     1      10.907   7.252  21.064  0.00  0.00    +0.130 C 
ATOM     12  C   UNL     1      10.946   8.534  20.254  0.00  0.00    +0.117 C 
ENDROOT
BRANCH   9  14
ATOM      2  O   UNL     1      14.406   6.721  19.472  0.00  0.00    -0.336 OA
ATOM      5  N   UNL     1      15.618   7.533  21.171  0.00  0.00    -0.190 NA
ATOM      8  N   UNL     1      15.697   6.204  19.311  0.00  0.00    -0.056 NA
ATOM     14  C   UNL     1      14.446   7.493  20.589  0.00  0.00    +0.245 A 
ATOM     16  C   UNL     1      16.354   6.726  20.351  0.00  0.00    +0.202 A 
BRANCH  16  18
ATOM     18  C   UNL     1      17.742   6.465  20.598  0.00  0.00    +0.023 A 
ATOM     20  C   UNL     1      18.416   5.502  19.847  0.00  0.00    +0.015 A 
ATOM     21  C   UNL     1      18.418   7.174  21.591  0.00  0.00    +0.015 A 
ATOM     22  C   UNL     1      19.766   5.249  20.090  0.00  0.00    +0.046 A 
ATOM     23  C   UNL     1      19.767   6.921  21.834  0.00  0.00    +0.046 A 
ATOM     24  C   UNL     1      20.441   5.958  21.083  0.00  0.00    +0.120 A 
BRANCH  24   3
ATOM      3  O   UNL     1      21.759   5.711  21.320  0.00  0.00    -0.495 OA
ATOM     25  C   UNL     1      22.070   4.598  22.158  0.00  0.00    +0.277 C 
ENDBRANCH  24   3
ENDBRANCH  16  18
ENDBRANCH   9  14
BRANCH  11   1
ATOM      1  O   UNL     1       9.816   7.232  21.964  0.00  0.00    -0.390 OA
ATOM     26  H   UNL     1       9.763   6.336  22.337  0.00  0.00    +0.210 HD
ENDBRANCH  11   1
BRANCH   4  13
ATOM     13  C   UNL     1      12.710   9.875  19.277  0.00  0.00    +0.159 C 
BRANCH  13  15
ATOM      6  N   UNL     1      14.151  11.456  20.583  0.00  0.00    -0.347 N 
ATOM      7  N   UNL     1      12.022  11.355  21.201  0.00  0.00    -0.239 NA
ATOM     15  C   UNL     1      12.924  10.894  20.365  0.00  0.00    +0.121 A 
ATOM     17  C   UNL     1      14.023  12.331  21.624  0.00  0.00    +0.104 A 
ATOM     19  C   UNL     1      12.700  12.251  21.989  0.00  0.00    +0.130 A 
ATOM     27  H   UNL     1      15.000  11.259  20.069  0.00  0.00    +0.167 HD
ENDBRANCH  13  15
ENDBRANCH   4  13
TORSDOF 6
ENDMDL
MODEL 5
REMARK VINA RESULT:      -6.0     14.308     17.887
REMARK  Name = 26744180
REMARK  7 active torsions:
REMARK  status: ('A' for Active; 'I' for Inactive)
REMARK    1  A    between atoms: O_1  and  C_11
REMARK    2  A    between atoms: O_3  and  C_24
REMARK    3  A    between atoms: O_3  and  C_25
REMARK    4  A    between atoms: N_4  and  C_13
REMARK    5  A    between atoms: C_9  and  C_14
REMARK    6  A    between atoms: C_13  and  C_15
REMARK    7  A    between atoms: C_16  and  C_18
REMARK                            x       y       z     vdW  Elec       q    Type
REMARK                         _______ _______ _______ _____ _____    ______ ____
ROOT
ATOM      4  N   UNL     1      10.183   7.568   5.744  0.00  0.00    -0.282 NA
ATOM      9  C   UNL     1       9.285   6.482   5.300  0.00  0.00    +0.149 C 
ATOM     10  C   UNL     1       8.082   7.202   4.662  0.00  0.00    +0.061 C 
ATOM     11  C   UNL     1       8.374   8.687   4.837  0.00  0.00    +0.130 C 
ATOM     12  C   UNL     1       9.332   8.726   6.012  0.00  0.00    +0.117 C 
ENDROOT
BRANCH   9  14
ATOM      2  O   UNL     1      10.266   4.290   4.846  0.00  0.00    -0.336 OA
ATOM      5  N   UNL     1      10.309   5.692   3.099  0.00  0.00    -0.190 NA
ATOM      8  N   UNL     1      10.876   3.588   3.798  0.00  0.00    -0.056 NA
ATOM     14  C   UNL     1       9.963   5.518   4.350  0.00  0.00    +0.245 A 
ATOM     16  C   UNL     1      10.866   4.480   2.804  0.00  0.00    +0.202 A 
BRANCH  16  18
ATOM     18  C   UNL     1      11.401   4.194   1.504  0.00  0.00    +0.023 A 
ATOM     20  C   UNL     1      10.675   4.529   0.361  0.00  0.00    +0.015 A 
ATOM     21  C   UNL     1      12.647   3.580   1.383  0.00  0.00    +0.015 A 
ATOM     22  C   UNL     1      11.195   4.249  -0.902  0.00  0.00    +0.046 A 
ATOM     23  C   UNL     1      13.168   3.299   0.121  0.00  0.00    +0.046 A 
ATOM     24  C   UNL     1      12.442   3.634  -1.022  0.00  0.00    +0.120 A 
BRANCH  24   3
ATOM      3  O   UNL     1      12.951   3.361  -2.255  0.00  0.00    -0.495 OA
ATOM     25  C   UNL     1      12.138   2.585  -3.135  0.00  0.00    +0.277 C 
ENDBRANCH  24   3
ENDBRANCH  16  18
ENDBRANCH   9  14
BRANCH  11   1
ATOM      1  O   UNL     1       7.185   9.404   5.105  0.00  0.00    -0.390 OA
ATOM     26  H   UNL     1       6.609   8.827   5.634  0.00  0.00    +0.210 HD
ENDBRANCH  11   1
BRANCH   4  13
ATOM     13  C   UNL     1      10.996   7.205   6.899  0.00  0.00    +0.159 C 
BRANCH  13  15
ATOM      6  N   UNL     1      10.671   4.913   7.857  0.00  0.00    -0.347 N 
ATOM      7  N   UNL     1       9.274   6.474   8.591  0.00  0.00    -0.239 NA
ATOM     15  C   UNL     1      10.289   6.224   7.795  0.00  0.00    +0.121 A 
ATOM     17  C   UNL     1       9.847   4.286   8.748  0.00  0.00    +0.104 A 
ATOM     19  C   UNL     1       8.993   5.270   9.189  0.00  0.00    +0.130 A 
ATOM     27  H   UNL     1      11.424   4.483   7.336  0.00  0.00    +0.167 HD
ENDBRANCH  13  15
ENDBRANCH   4  13
TORSDOF 6
ENDMDL
MODEL 6
REMARK VINA RESULT:      -5.9      3.470      7.213
REMARK  Name = 26744180
REMARK  7 active torsions:
REMARK  status: ('A' for Active; 'I' for Inactive)
REMARK    1  A    between atoms: O_1  and  C_11
REMARK    2  A    between atoms: O_3  and  C_24
REMARK    3  A    between atoms: O_3  and  C_25
REMARK    4  A    between atoms: N_4  and  C_13
REMARK    5  A    between atoms: C_9  and  C_14
REMARK    6  A    between atoms: C_13  and  C_15
REMARK    7  A    between atoms: C_16  and  C_18
REMARK                            x       y       z     vdW  Elec       q    Type
REMARK                         _______ _______ _______ _____ _____    ______ ____
ROOT
ATOM      4  N   UNL     1      15.400   7.078  19.555  0.00  0.00    -0.282 NA
ATOM      9  C   UNL     1      15.608   7.082  21.017  0.00  0.00    +0.149 C 
ATOM     10  C   UNL     1      17.113   6.812  21.202  0.00  0.00    +0.061 C 
ATOM     11  C   UNL     1      17.656   6.624  19.791  0.00  0.00    +0.130 C 
ATOM     12  C   UNL     1      16.434   6.211  18.992  0.00  0.00    +0.117 C 
ENDROOT
BRANCH   9  14
ATOM      2  O   UNL     1      16.115   9.326  21.843  0.00  0.00    -0.336 OA
ATOM      5  N   UNL     1      13.972   8.724  22.087  0.00  0.00    -0.190 NA
ATOM      8  N   UNL     1      15.472  10.413  22.448  0.00  0.00    -0.056 NA
ATOM     14  C   UNL     1      15.161   8.376  21.665  0.00  0.00    +0.245 A 
ATOM     16  C   UNL     1      14.212   9.982  22.561  0.00  0.00    +0.202 A 
BRANCH  16  18
ATOM     18  C   UNL     1      13.171  10.782  23.137  0.00  0.00    +0.023 A 
ATOM     20  C   UNL     1      11.846  10.348  23.083  0.00  0.00    +0.015 A 
ATOM     21  C   UNL     1      13.483  11.994  23.752  0.00  0.00    +0.015 A 
ATOM     22  C   UNL     1      10.834  11.128  23.643  0.00  0.00    +0.046 A 
ATOM     23  C   UNL     1      12.472  12.774  24.312  0.00  0.00    +0.046 A 
ATOM     24  C   UNL     1      11.147  12.341  24.257  0.00  0.00    +0.120 A 
BRANCH  24   3
ATOM      3  O   UNL     1      10.159  13.102  24.804  0.00  0.00    -0.495 OA
ATOM     25  C   UNL     1      10.532  13.991  25.856  0.00  0.00    +0.277 C 
ENDBRANCH  24   3
ENDBRANCH  16  18
ENDBRANCH   9  14
BRANCH  11   1
ATOM      1  O   UNL     1      18.659   5.628  19.768  0.00  0.00    -0.390 OA
ATOM     26  H   UNL     1      19.486   6.040  20.071  0.00  0.00    +0.210 HD
ENDBRANCH  11   1
BRANCH   4  13
ATOM     13  C   UNL     1      14.060   6.656  19.166  0.00  0.00    +0.159 C 
BRANCH  13  15
ATOM      6  N   UNL     1      12.083   7.522  17.893  0.00  0.00    -0.347 N 
ATOM      7  N   UNL     1      13.766   8.946  18.151  0.00  0.00    -0.239 NA
ATOM     15  C   UNL     1      13.332   7.733  18.408  0.00  0.00    +0.121 A 
ATOM     17  C   UNL     1      11.696   8.673  17.269  0.00  0.00    +0.104 A 
ATOM     19  C   UNL     1      12.751   9.538  17.442  0.00  0.00    +0.130 A 
ATOM     27  H   UNL     1      11.544   6.668  17.960  0.00  0.00    +0.167 HD
ENDBRANCH  13  15
ENDBRANCH   4  13
TORSDOF 6
ENDMDL
MODEL 7
REMARK VINA RESULT:      -5.9      1.574      2.210
REMARK  Name = 26744180
REMARK  7 active torsions:
REMARK  status: ('A' for Active; 'I' for Inactive)
REMARK    1  A    between atoms: O_1  and  C_11
REMARK    2  A    between atoms: O_3  and  C_24
REMARK    3  A    between atoms: O_3  and  C_25
REMARK    4  A    between atoms: N_4  and  C_13
REMARK    5  A    between atoms: C_9  and  C_14
REMARK    6  A    between atoms: C_13  and  C_15
REMARK    7  A    between atoms: C_16  and  C_18
REMARK                            x       y       z     vdW  Elec       q    Type
REMARK                         _______ _______ _______ _____ _____    ______ ____
ROOT
ATOM      4  N   UNL     1      13.404   7.258  20.258  0.00  0.00    -0.282 NA
ATOM      9  C   UNL     1      14.598   8.105  20.066  0.00  0.00    +0.149 C 
ATOM     10  C   UNL     1      14.590   9.075  21.263  0.00  0.00    +0.061 C 
ATOM     11  C   UNL     1      13.329   8.725  22.044  0.00  0.00    +0.130 C 
ATOM     12  C   UNL     1      12.441   8.063  21.008  0.00  0.00    +0.117 C 
ENDROOT
BRANCH   9  14
ATOM      2  O   UNL     1      16.002   6.483  18.896  0.00  0.00    -0.336 OA
ATOM      5  N   UNL     1      16.896   7.263  20.795  0.00  0.00    -0.190 NA
ATOM      8  N   UNL     1      17.245   5.850  19.031  0.00  0.00    -0.056 NA
ATOM     14  C   UNL     1      15.876   7.297  19.976  0.00  0.00    +0.245 A 
ATOM     16  C   UNL     1      17.711   6.361  20.174  0.00  0.00    +0.202 A 
BRANCH  16  18
ATOM     18  C   UNL     1      18.984   5.994  20.721  0.00  0.00    +0.023 A 
ATOM     20  C   UNL     1      19.452   6.617  21.878  0.00  0.00    +0.015 A 
ATOM     21  C   UNL     1      19.756   5.015  20.096  0.00  0.00    +0.015 A 
ATOM     22  C   UNL     1      20.692   6.260  22.409  0.00  0.00    +0.046 A 
ATOM     23  C   UNL     1      20.996   4.659  20.625  0.00  0.00    +0.046 A 
ATOM     24  C   UNL     1      21.464   5.281  21.783  0.00  0.00    +0.120 A 
BRANCH  24   3
ATOM      3  O   UNL     1      22.674   4.933  22.300  0.00  0.00    -0.495 OA
ATOM     25  C   UNL     1      23.279   3.745  21.792  0.00  0.00    +0.277 C 
ENDBRANCH  24   3
ENDBRANCH  16  18
ENDBRANCH   9  14
BRANCH  11   1
ATOM      1  O   UNL     1      12.731   9.890  22.579  0.00  0.00    -0.390 OA
ATOM     26  H   UNL     1      11.789   9.870  22.342  0.00  0.00    +0.210 HD
ENDBRANCH  11   1
BRANCH   4  13
ATOM     13  C   UNL     1      12.845   6.761  19.006  0.00  0.00    +0.159 C 
BRANCH  13  15
ATOM      6  N   UNL     1      12.165   8.888  17.871  0.00  0.00    -0.347 N 
ATOM      7  N   UNL     1      13.781   7.736  16.876  0.00  0.00    -0.239 NA
ATOM     15  C   UNL     1      12.958   7.775  17.900  0.00  0.00    +0.121 A 
ATOM     17  C   UNL     1      12.503   9.604  16.757  0.00  0.00    +0.104 A 
ATOM     19  C   UNL     1      13.503   8.874  16.160  0.00  0.00    +0.130 A 
ATOM     27  H   UNL     1      11.455   9.136  18.548  0.00  0.00    +0.167 HD
ENDBRANCH  13  15
ENDBRANCH   4  13
TORSDOF 6
ENDMDL
MODEL 8
REMARK VINA RESULT:      -5.9      3.265      8.926
REMARK  Name = 26744180
REMARK  7 active torsions:
REMARK  status: ('A' for Active; 'I' for Inactive)
REMARK    1  A    between atoms: O_1  and  C_11
REMARK    2  A    between atoms: O_3  and  C_24
REMARK    3  A    between atoms: O_3  and  C_25
REMARK    4  A    between atoms: N_4  and  C_13
REMARK    5  A    between atoms: C_9  and  C_14
REMARK    6  A    between atoms: C_13  and  C_15
REMARK    7  A    between atoms: C_16  and  C_18
REMARK                            x       y       z     vdW  Elec       q    Type
REMARK                         _______ _______ _______ _____ _____    ______ ____
ROOT
ATOM      4  N   UNL     1      21.328   5.377  22.621  0.00  0.00    -0.282 NA
ATOM      9  C   UNL     1      20.905   5.927  21.317  0.00  0.00    +0.149 C 
ATOM     10  C   UNL     1      20.830   4.706  20.381  0.00  0.00    +0.061 C 
ATOM     11  C   UNL     1      21.272   3.525  21.237  0.00  0.00    +0.130 C 
ATOM     12  C   UNL     1      22.100   4.170  22.331  0.00  0.00    +0.117 C 
ENDROOT
BRANCH   9  14
ATOM      2  O   UNL     1      19.658   7.949  21.890  0.00  0.00    -0.336 OA
ATOM      5  N   UNL     1      18.391   6.295  21.067  0.00  0.00    -0.190 NA
ATOM      8  N   UNL     1      18.345   8.437  21.870  0.00  0.00    -0.056 NA
ATOM     14  C   UNL     1      19.596   6.683  21.400  0.00  0.00    +0.245 A 
ATOM     16  C   UNL     1      17.657   7.405  21.374  0.00  0.00    +0.202 A 
BRANCH  16  18
ATOM     18  C   UNL     1      16.239   7.449  21.170  0.00  0.00    +0.023 A 
ATOM     20  C   UNL     1      15.449   8.308  21.935  0.00  0.00    +0.015 A 
ATOM     21  C   UNL     1      15.647   6.633  20.206  0.00  0.00    +0.015 A 
ATOM     22  C   UNL     1      14.069   8.349  21.737  0.00  0.00    +0.046 A 
ATOM     23  C   UNL     1      14.268   6.673  20.007  0.00  0.00    +0.046 A 
ATOM     24  C   UNL     1      13.479   7.532  20.773  0.00  0.00    +0.120 A 
BRANCH  24   3
ATOM      3  O   UNL     1      12.132   7.571  20.578  0.00  0.00    -0.495 OA
ATOM     25  C   UNL     1      11.328   6.759  21.433  0.00  0.00    +0.277 C 
ENDBRANCH  24   3
ENDBRANCH  16  18
ENDBRANCH   9  14
BRANCH  11   1
ATOM      1  O   UNL     1      22.032   2.609  20.474  0.00  0.00    -0.390 OA
ATOM     26  H   UNL     1      21.825   2.767  19.537  0.00  0.00    +0.210 HD
ENDBRANCH  11   1
BRANCH   4  13
ATOM     13  C   UNL     1      22.081   6.329  23.429  0.00  0.00    +0.159 C 
BRANCH  13  15
ATOM      6  N   UNL     1      20.633   7.703  24.944  0.00  0.00    -0.347 N 
ATOM      7  N   UNL     1      21.474   5.850  25.830  0.00  0.00    -0.239 NA
ATOM     15  C   UNL     1      21.410   6.595  24.750  0.00  0.00    +0.121 A 
ATOM     17  C   UNL     1      20.172   7.662  26.229  0.00  0.00    +0.104 A 
ATOM     19  C   UNL     1      20.704   6.508  26.756  0.00  0.00    +0.130 A 
ATOM     27  H   UNL     1      20.437   8.424  24.262  0.00  0.00    +0.167 HD
ENDBRANCH  13  15
ENDBRANCH   4  13
TORSDOF 6
ENDMDL
MODEL 9
REMARK VINA RESULT:      -5.9     25.309     28.684
REMARK  Name = 26744180
REMARK  7 active torsions:
REMARK  status: ('A' for Active; 'I' for Inactive)
REMARK    1  A    between atoms: O_1  and  C_11
REMARK    2  A    between atoms: O_3  and  C_24
REMARK    3  A    between atoms: O_3  and  C_25
REMARK    4  A    between atoms: N_4  and  C_13
REMARK    5  A    between atoms: C_9  and  C_14
REMARK    6  A    between atoms: C_13  and  C_15
REMARK    7  A    between atoms: C_16  and  C_18
REMARK                            x       y       z     vdW  Elec       q    Type
REMARK                         _______ _______ _______ _____ _____    ______ ____
ROOT
ATOM      4  N   UNL     1      -3.152 -10.569  14.049  0.00  0.00    -0.282 NA
ATOM      9  C   UNL     1      -3.496 -11.314  15.277  0.00  0.00    +0.149 C 
ATOM     10  C   UNL     1      -2.393 -10.942  16.286  0.00  0.00    +0.061 C 
ATOM     11  C   UNL     1      -1.452 -10.021  15.519  0.00  0.00    +0.130 C 
ATOM     12  C   UNL     1      -1.701 -10.386  14.068  0.00  0.00    +0.117 C 
ENDROOT
BRANCH   9  14
ATOM      2  O   UNL     1      -5.309 -11.682  16.874  0.00  0.00    -0.336 OA
ATOM      5  N   UNL     1      -5.759 -10.133  15.319  0.00  0.00    -0.190 NA
ATOM      8  N   UNL     1      -6.602 -11.218  17.149  0.00  0.00    -0.056 NA
ATOM     14  C   UNL     1      -4.886 -10.991  15.783  0.00  0.00    +0.245 A 
ATOM     16  C   UNL     1      -6.797 -10.309  16.190  0.00  0.00    +0.202 A 
BRANCH  16  18
ATOM     18  C   UNL     1      -8.012  -9.557  16.074  0.00  0.00    +0.023 A 
ATOM     20  C   UNL     1      -8.474  -8.804  17.155  0.00  0.00    +0.015 A 
ATOM     21  C   UNL     1      -8.734  -9.579  14.881  0.00  0.00    +0.015 A 
ATOM     22  C   UNL     1      -9.657  -8.075  17.041  0.00  0.00    +0.046 A 
ATOM     23  C   UNL     1      -9.917  -8.850  14.768  0.00  0.00    +0.046 A 
ATOM     24  C   UNL     1     -10.379  -8.097  15.848  0.00  0.00    +0.120 A 
BRANCH  24   3
ATOM      3  O   UNL     1     -11.534  -7.385  15.737  0.00  0.00    -0.495 OA
ATOM     25  C   UNL     1     -11.511  -6.035  16.197  0.00  0.00    +0.277 C 
ENDBRANCH  24   3
ENDBRANCH  16  18
ENDBRANCH   9  14
BRANCH  11   1
ATOM      1  O   UNL     1      -0.108 -10.251  15.895  0.00  0.00    -0.390 OA
ATOM     26  H   UNL     1      -0.035 -10.066  16.846  0.00  0.00    +0.210 HD
ENDBRANCH  11   1
BRANCH   4  13
ATOM     13  C   UNL     1      -3.605 -11.228  12.830  0.00  0.00    +0.159 C 
BRANCH  13  15
ATOM      6  N   UNL     1      -3.022 -10.100  10.670  0.00  0.00    -0.347 N 
ATOM      7  N   UNL     1      -4.906  -9.429  11.632  0.00  0.00    -0.239 NA
ATOM     15  C   UNL     1      -3.877 -10.240  11.728  0.00  0.00    +0.121 A 
ATOM     17  C   UNL     1      -3.538  -9.138   9.849  0.00  0.00    +0.104 A 
ATOM     19  C   UNL     1      -4.702  -8.739  10.464  0.00  0.00    +0.130 A 
ATOM     27  H   UNL     1      -2.162 -10.612  10.523  0.00  0.00    +0.167 HD
ENDBRANCH  13  15
ENDBRANCH   4  13
TORSDOF 6
ENDMDL
MODEL 10
REMARK VINA RESULT:      -5.8      3.600      7.660
REMARK  Name = 26744180
REMARK  7 active torsions:
REMARK  status: ('A' for Active; 'I' for Inactive)
REMARK    1  A    between atoms: O_1  and  C_11
REMARK    2  A    between atoms: O_3  and  C_24
REMARK    3  A    between atoms: O_3  and  C_25
REMARK    4  A    between atoms: N_4  and  C_13
REMARK    5  A    between atoms: C_9  and  C_14
REMARK    6  A    between atoms: C_13  and  C_15
REMARK    7  A    between atoms: C_16  and  C_18
REMARK                            x       y       z     vdW  Elec       q    Type
REMARK                         _______ _______ _______ _____ _____    ______ ____
ROOT
ATOM      4  N   UNL     1      12.818   7.657  18.908  0.00  0.00    -0.282 NA
ATOM      9  C   UNL     1      13.881   8.674  18.783  0.00  0.00    +0.149 C 
ATOM     10  C   UNL     1      15.136   8.007  19.376  0.00  0.00    +0.061 C 
ATOM     11  C   UNL     1      14.668   6.636  19.847  0.00  0.00    +0.130 C 
ATOM     12  C   UNL     1      13.177   6.821  20.052  0.00  0.00    +0.117 C 
ENDROOT
BRANCH   9  14
ATOM      2  O   UNL     1      13.808   8.228  16.381  0.00  0.00    -0.336 OA
ATOM      5  N   UNL     1      14.485  10.298  16.907  0.00  0.00    -0.190 NA
ATOM      8  N   UNL     1      14.064   8.876  15.165  0.00  0.00    -0.056 NA
ATOM     14  C   UNL     1      14.081   9.136  17.354  0.00  0.00    +0.245 A 
ATOM     16  C   UNL     1      14.459  10.090  15.558  0.00  0.00    +0.202 A 
BRANCH  16  18
ATOM     18  C   UNL     1      14.832  11.118  14.630  0.00  0.00    +0.023 A 
ATOM     20  C   UNL     1      16.164  11.256  14.240  0.00  0.00    +0.015 A 
ATOM     21  C   UNL     1      13.863  11.980  14.119  0.00  0.00    +0.015 A 
ATOM     22  C   UNL     1      16.526  12.258  13.339  0.00  0.00    +0.046 A 
ATOM     23  C   UNL     1      14.224  12.982  13.218  0.00  0.00    +0.046 A 
ATOM     24  C   UNL     1      15.556  13.120  12.828  0.00  0.00    +0.120 A 
BRANCH  24   3
ATOM      3  O   UNL     1      15.908  14.098  11.948  0.00  0.00    -0.495 OA
ATOM     25  C   UNL     1      15.017  15.205  11.817  0.00  0.00    +0.277 C 
ENDBRANCH  24   3
ENDBRANCH  16  18
ENDBRANCH   9  14
BRANCH  11   1
ATOM      1  O   UNL     1      15.321   6.268  21.047  0.00  0.00    -0.390 OA
ATOM     26  H   UNL     1      16.278   6.337  20.891  0.00  0.00    +0.210 HD
ENDBRANCH  11   1
BRANCH   4  13
ATOM     13  C   UNL     1      11.485   8.232  19.045  0.00  0.00    +0.159 C 
BRANCH  13  15
ATOM      6  N   UNL     1      10.376   7.475  21.161  0.00  0.00    -0.347 N 
ATOM      7  N   UNL     1      11.392   9.446  21.255  0.00  0.00    -0.239 NA
ATOM     15  C   UNL     1      11.102   8.419  20.489  0.00  0.00    +0.121 A 
ATOM     17  C   UNL     1      10.192   7.930  22.436  0.00  0.00    +0.104 A 
ATOM     19  C   UNL     1      10.828   9.148  22.470  0.00  0.00    +0.130 A 
ATOM     27  H   UNL     1      10.035   6.601  20.783  0.00  0.00    +0.167 HD
ENDBRANCH  13  15
ENDBRANCH   4  13
TORSDOF 6
ENDMDL
