REMARK  Name = 9423851
REMARK  4 active torsions:
REMARK  status: ('A' for Active; 'I' for Inactive)
REMARK    1  A    between atoms: N_9  and  C_22
REMARK    2  A    between atoms: C_11  and  C_15
REMARK    3  A    between atoms: C_12  and  C_21
REMARK    4  A    between atoms: C_24  and  C_28
REMARK                            x       y       z     vdW  Elec       q    Type
REMARK                         _______ _______ _______ _____ _____    ______ ____
ROOT
ATOM      2  O   UNL     1      -3.739   0.895   0.607  0.00  0.00    -0.275 OA
ATOM      4  O   UNL     1       2.913  -0.399   1.567  0.00  0.00    -0.270 OA
ATOM      6  N   UNL     1      -1.827  -0.394   0.289  0.00  0.00    -0.287 N 
ATOM      7  N   UNL     1       0.752  -1.198   1.177  0.00  0.00    -0.294 N 
ATOM     12  C   UNL     1      -0.967   0.569   0.993  0.00  0.00    +0.179 C 
ATOM     13  C   UNL     1       0.091  -0.096   1.873  0.00  0.00    +0.140 C 
ATOM     14  C   UNL     1      -1.155  -1.556  -0.320  0.00  0.00    +0.127 C 
ATOM     15  C   UNL     1      -3.177  -0.077   0.096  0.00  0.00    +0.219 C 
ATOM     18  C   UNL     1      -0.168  -2.204   0.642  0.00  0.00    +0.127 C 
ATOM     24  C   UNL     1       2.145  -1.248   1.116  0.00  0.00    +0.247 C 
ENDROOT
BRANCH  24  28
ATOM      1  F   UNL     1       3.892  -3.381  -2.872  0.00  0.00    -0.205 F 
ATOM     28  C   UNL     1       2.768  -2.396   0.445  0.00  0.00    +0.040 A 
ATOM     29  C   UNL     1       3.039  -2.342  -0.922  0.00  0.00    +0.051 A 
ATOM     30  C   UNL     1       3.088  -3.540   1.175  0.00  0.00    +0.013 A 
ATOM     31  C   UNL     1       3.631  -3.432  -1.560  0.00  0.00    +0.124 A 
ATOM     32  C   UNL     1       3.680  -4.631   0.537  0.00  0.00    +0.004 A 
ATOM     33  C   UNL     1       3.951  -4.577  -0.830  0.00  0.00    +0.038 A 
ENDBRANCH  24  28
BRANCH  15  11
ATOM      8  N   UNL     1      -6.779  -1.058   0.038  0.00  0.00    -0.316 NA
ATOM     11  C   UNL     1      -3.966  -0.999  -0.790  0.00  0.00    +0.078 C 
ATOM     16  C   UNL     1      -4.562  -2.154   0.018  0.00  0.00    +0.028 C 
ATOM     17  C   UNL     1      -5.059  -0.233  -1.537  0.00  0.00    +0.028 C 
ATOM     19  C   UNL     1      -5.762  -1.716   0.858  0.00  0.00    +0.081 C 
ATOM     20  C   UNL     1      -6.239   0.125  -0.632  0.00  0.00    +0.081 C 
ATOM     34  H   UNL     1      -7.563  -0.782   0.629  0.00  0.00    +0.122 HD
ENDBRANCH  15  11
BRANCH  12  21
ATOM      3  O   UNL     1      -0.541   1.237  -1.261  0.00  0.00    -0.274 OA
ATOM      9  N   UNL     1       0.467   2.418   0.473  0.00  0.00    -0.302 N 
ATOM     21  C   UNL     1      -0.343   1.433  -0.065  0.00  0.00    +0.236 C 
ATOM     35  H   UNL     1       0.500   2.538   1.482  0.00  0.00    +0.150 HD
BRANCH   9  22
ATOM      5  O   UNL     1       3.127   2.768   0.993  0.00  0.00    -0.274 OA
ATOM     10  N   UNL     1       3.073   4.891   0.151  0.00  0.00    -0.314 N 
ATOM     22  C   UNL     1       1.198   3.363  -0.330  0.00  0.00    +0.159 C 
ATOM     23  C   UNL     1       0.360   4.604  -0.604  0.00  0.00    +0.033 C 
ATOM     25  C   UNL     1       1.214   5.652  -1.300  0.00  0.00    +0.021 C 
ATOM     26  C   UNL     1       2.526   3.642   0.365  0.00  0.00    +0.233 C 
ATOM     27  C   UNL     1       2.366   6.036  -0.391  0.00  0.00    +0.104 C 
ATOM     36  H   UNL     1       3.985   5.068   0.562  0.00  0.00    +0.149 HD
ENDBRANCH   9  22
ENDBRANCH  12  21
TORSDOF 4
