MODEL 1
REMARK VINA RESULT:      -6.7      0.000      0.000
REMARK  Name = 45784185
REMARK  3 active torsions:
REMARK  status: ('A' for Active; 'I' for Inactive)
REMARK    1  A    between atoms: N_2  and  C_4
REMARK    2  A    between atoms: C_9  and  C_12
REMARK    3  A    between atoms: C_17  and  C_19
REMARK                            x       y       z     vdW  Elec       q    Type
REMARK                         _______ _______ _______ _____ _____    ______ ____
ROOT
ATOM      1  O   UNL     1      15.974   6.054  19.378  0.00  0.00    -0.439 OA
ATOM      3  N   UNL     1      15.537   7.838  20.707  0.00  0.00    -0.213 NA
ATOM     12  C   UNL     1      15.063   6.941  19.871  0.00  0.00    +0.201 A 
ATOM     13  C   UNL     1      16.874   7.527  20.782  0.00  0.00    +0.110 A 
ATOM     14  C   UNL     1      17.144   6.436  19.970  0.00  0.00    +0.155 A 
ATOM     15  C   UNL     1      17.922   8.110  21.507  0.00  0.00    +0.035 A 
ATOM     16  C   UNL     1      18.399   5.860  19.811  0.00  0.00    +0.049 A 
ATOM     17  C   UNL     1      19.204   7.557  21.372  0.00  0.00    -0.048 A 
ATOM     18  C   UNL     1      19.434   6.454  20.541  0.00  0.00    +0.007 A 
ATOM     19  C   UNL     1      20.342   8.156  22.131  0.00  0.00    +0.044 C 
ENDROOT
BRANCH  12   9
ATOM      2  N   UNL     1      11.880   7.884  18.317  0.00  0.00    -0.299 NA
ATOM      8  C   UNL     1      13.317   7.636  18.164  0.00  0.00    +0.097 C 
ATOM      9  C   UNL     1      13.643   6.765  19.385  0.00  0.00    +0.090 C 
ATOM     10  C   UNL     1      11.700   8.181  19.739  0.00  0.00    +0.085 C 
ATOM     11  C   UNL     1      12.559   7.120  20.417  0.00  0.00    +0.029 C 
BRANCH   2   4
ATOM      4  C   UNL     1      11.457   9.021  17.491  0.00  0.00    +0.057 C 
ATOM      5  C   UNL     1      10.452   8.538  16.424  0.00  0.00    +0.019 C 
ATOM      6  C   UNL     1      12.463   9.227  16.340  0.00  0.00    +0.019 C 
ATOM      7  C   UNL     1      11.245   9.384  15.405  0.00  0.00    +0.003 C 
ENDBRANCH   2   4
ENDBRANCH  12   9
TORSDOF 2
ENDMDL
MODEL 2
REMARK VINA RESULT:      -6.6     12.806     16.537
REMARK  Name = 45784185
REMARK  3 active torsions:
REMARK  status: ('A' for Active; 'I' for Inactive)
REMARK    1  A    between atoms: N_2  and  C_4
REMARK    2  A    between atoms: C_9  and  C_12
REMARK    3  A    between atoms: C_17  and  C_19
REMARK                            x       y       z     vdW  Elec       q    Type
REMARK                         _______ _______ _______ _____ _____    ______ ____
ROOT
ATOM      1  O   UNL     1       9.628   6.728   4.880  0.00  0.00    -0.439 OA
ATOM      3  N   UNL     1      10.196   4.542   5.072  0.00  0.00    -0.213 NA
ATOM     12  C   UNL     1      10.041   5.578   4.277  0.00  0.00    +0.201 A 
ATOM     13  C   UNL     1       9.861   5.039   6.309  0.00  0.00    +0.110 A 
ATOM     14  C   UNL     1       9.514   6.377   6.195  0.00  0.00    +0.155 A 
ATOM     15  C   UNL     1       9.825   4.435   7.573  0.00  0.00    +0.035 A 
ATOM     16  C   UNL     1       9.121   7.187   7.254  0.00  0.00    +0.049 A 
ATOM     17  C   UNL     1       9.433   5.219   8.668  0.00  0.00    -0.048 A 
ATOM     18  C   UNL     1       9.090   6.567   8.509  0.00  0.00    +0.007 A 
ATOM     19  C   UNL     1       9.384   4.604  10.028  0.00  0.00    +0.044 C 
ENDROOT
BRANCH  12   9
ATOM      2  N   UNL     1      11.804   5.163   1.089  0.00  0.00    -0.299 NA
ATOM      8  C   UNL     1      11.162   4.537   2.250  0.00  0.00    +0.097 C 
ATOM      9  C   UNL     1      10.259   5.657   2.784  0.00  0.00    +0.090 C 
ATOM     10  C   UNL     1      12.165   6.508   1.541  0.00  0.00    +0.085 C 
ATOM     11  C   UNL     1      10.921   6.958   2.296  0.00  0.00    +0.029 C 
BRANCH   2   4
ATOM      4  C   UNL     1      12.997   4.411   0.686  0.00  0.00    +0.057 C 
ATOM      5  C   UNL     1      13.138   3.153   1.569  0.00  0.00    +0.019 C 
ATOM      6  C   UNL     1      14.234   4.971   1.419  0.00  0.00    +0.019 C 
ATOM      7  C   UNL     1      14.635   3.507   1.700  0.00  0.00    +0.003 C 
ENDBRANCH   2   4
ENDBRANCH  12   9
TORSDOF 2
ENDMDL
MODEL 3
REMARK VINA RESULT:      -6.5      4.506      7.187
REMARK  Name = 45784185
REMARK  3 active torsions:
REMARK  status: ('A' for Active; 'I' for Inactive)
REMARK    1  A    between atoms: N_2  and  C_4
REMARK    2  A    between atoms: C_9  and  C_12
REMARK    3  A    between atoms: C_17  and  C_19
REMARK                            x       y       z     vdW  Elec       q    Type
REMARK                         _______ _______ _______ _____ _____    ______ ____
ROOT
ATOM      1  O   UNL     1      11.261  10.821  21.377  0.00  0.00    -0.439 OA
ATOM      3  N   UNL     1      11.063   9.754  23.366  0.00  0.00    -0.213 NA
ATOM     12  C   UNL     1      11.227   9.647  22.067  0.00  0.00    +0.201 A 
ATOM     13  C   UNL     1      10.981  11.112  23.565  0.00  0.00    +0.110 A 
ATOM     14  C   UNL     1      11.102  11.768  22.349  0.00  0.00    +0.155 A 
ATOM     15  C   UNL     1      10.806  11.870  24.730  0.00  0.00    +0.035 A 
ATOM     16  C   UNL     1      11.063  13.148  22.186  0.00  0.00    +0.049 A 
ATOM     17  C   UNL     1      10.761  13.266  24.607  0.00  0.00    -0.048 A 
ATOM     18  C   UNL     1      10.887  13.889  23.359  0.00  0.00    +0.007 A 
ATOM     19  C   UNL     1      10.576  14.102  25.831  0.00  0.00    +0.044 C 
ENDROOT
BRANCH  12   9
ATOM      2  N   UNL     1      12.971   7.051  20.152  0.00  0.00    -0.299 NA
ATOM      8  C   UNL     1      12.737   7.702  21.445  0.00  0.00    +0.097 C 
ATOM      9  C   UNL     1      11.382   8.392  21.239  0.00  0.00    +0.090 C 
ATOM     10  C   UNL     1      12.583   8.050  19.155  0.00  0.00    +0.085 C 
ATOM     11  C   UNL     1      11.281   8.604  19.718  0.00  0.00    +0.029 C 
BRANCH   2   4
ATOM      4  C   UNL     1      14.384   6.685  20.001  0.00  0.00    +0.057 C 
ATOM      5  C   UNL     1      15.202   7.299  21.157  0.00  0.00    +0.019 C 
ATOM      6  C   UNL     1      15.083   7.697  19.071  0.00  0.00    +0.019 C 
ATOM      7  C   UNL     1      16.237   7.725  20.095  0.00  0.00    +0.003 C 
ENDBRANCH   2   4
ENDBRANCH  12   9
TORSDOF 2
ENDMDL
MODEL 4
REMARK VINA RESULT:      -6.5      2.145      3.248
REMARK  Name = 45784185
REMARK  3 active torsions:
REMARK  status: ('A' for Active; 'I' for Inactive)
REMARK    1  A    between atoms: N_2  and  C_4
REMARK    2  A    between atoms: C_9  and  C_12
REMARK    3  A    between atoms: C_17  and  C_19
REMARK                            x       y       z     vdW  Elec       q    Type
REMARK                         _______ _______ _______ _____ _____    ______ ____
ROOT
ATOM      1  O   UNL     1      16.127   8.004  20.354  0.00  0.00    -0.439 OA
ATOM      3  N   UNL     1      16.131   6.205  18.975  0.00  0.00    -0.213 NA
ATOM     12  C   UNL     1      15.477   7.256  19.420  0.00  0.00    +0.201 A 
ATOM     13  C   UNL     1      17.317   6.254  19.667  0.00  0.00    +0.110 A 
ATOM     14  C   UNL     1      17.319   7.354  20.512  0.00  0.00    +0.155 A 
ATOM     15  C   UNL     1      18.440   5.416  19.642  0.00  0.00    +0.035 A 
ATOM     16  C   UNL     1      18.366   7.702  21.357  0.00  0.00    +0.049 A 
ATOM     17  C   UNL     1      19.518   5.734  20.482  0.00  0.00    -0.048 A 
ATOM     18  C   UNL     1      19.479   6.855  21.320  0.00  0.00    +0.007 A 
ATOM     19  C   UNL     1      20.729   4.861  20.479  0.00  0.00    +0.044 C 
ENDROOT
BRANCH  12   9
ATOM      2  N   UNL     1      12.278   9.009  19.790  0.00  0.00    -0.299 NA
ATOM      8  C   UNL     1      13.737   9.089  19.665  0.00  0.00    +0.097 C 
ATOM      9  C   UNL     1      14.099   7.739  19.031  0.00  0.00    +0.090 C 
ATOM     10  C   UNL     1      12.018   7.655  20.284  0.00  0.00    +0.085 C 
ATOM     11  C   UNL     1      12.948   6.799  19.432  0.00  0.00    +0.029 C 
BRANCH   2   4
ATOM      4  C   UNL     1      11.781  10.013  20.737  0.00  0.00    +0.057 C 
ATOM      5  C   UNL     1      12.817  10.218  21.862  0.00  0.00    +0.019 C 
ATOM      6  C   UNL     1      10.884   9.332  21.790  0.00  0.00    +0.019 C 
ATOM      7  C   UNL     1      11.635  10.159  22.854  0.00  0.00    +0.003 C 
ENDBRANCH   2   4
ENDBRANCH  12   9
TORSDOF 2
ENDMDL
MODEL 5
REMARK VINA RESULT:      -6.4      1.567      2.284
REMARK  Name = 45784185
REMARK  3 active torsions:
REMARK  status: ('A' for Active; 'I' for Inactive)
REMARK    1  A    between atoms: N_2  and  C_4
REMARK    2  A    between atoms: C_9  and  C_12
REMARK    3  A    between atoms: C_17  and  C_19
REMARK                            x       y       z     vdW  Elec       q    Type
REMARK                         _______ _______ _______ _____ _____    ______ ____
ROOT
ATOM      1  O   UNL     1      16.216   7.554  20.472  0.00  0.00    -0.439 OA
ATOM      3  N   UNL     1      16.454   5.869  18.975  0.00  0.00    -0.213 NA
ATOM     12  C   UNL     1      15.676   6.806  19.469  0.00  0.00    +0.201 A 
ATOM     13  C   UNL     1      17.610   5.998  19.707  0.00  0.00    +0.110 A 
ATOM     14  C   UNL     1      17.468   7.029  20.624  0.00  0.00    +0.155 A 
ATOM     15  C   UNL     1      18.821   5.293  19.662  0.00  0.00    +0.035 A 
ATOM     16  C   UNL     1      18.449   7.429  21.524  0.00  0.00    +0.049 A 
ATOM     17  C   UNL     1      19.835   5.667  20.555  0.00  0.00    -0.048 A 
ATOM     18  C   UNL     1      19.650   6.714  21.466  0.00  0.00    +0.007 A 
ATOM     19  C   UNL     1      21.136   4.934  20.532  0.00  0.00    +0.044 C 
ENDROOT
BRANCH  12   9
ATOM      2  N   UNL     1      13.004   8.660  17.776  0.00  0.00    -0.299 NA
ATOM      8  C   UNL     1      14.174   7.783  17.669  0.00  0.00    +0.097 C 
ATOM      9  C   UNL     1      14.263   7.162  19.070  0.00  0.00    +0.090 C 
ATOM     10  C   UNL     1      13.149   9.322  19.074  0.00  0.00    +0.085 C 
ATOM     11  C   UNL     1      13.568   8.179  19.992  0.00  0.00    +0.029 C 
BRANCH   2   4
ATOM      4  C   UNL     1      12.992   9.646  16.689  0.00  0.00    +0.057 C 
ATOM      5  C   UNL     1      14.129   9.332  15.695  0.00  0.00    +0.019 C 
ATOM      6  C   UNL     1      13.803  10.889  17.107  0.00  0.00    +0.019 C 
ATOM      7  C   UNL     1      14.453  10.841  15.709  0.00  0.00    +0.003 C 
ENDBRANCH   2   4
ENDBRANCH  12   9
TORSDOF 2
ENDMDL
MODEL 6
REMARK VINA RESULT:      -6.3      4.049      5.508
REMARK  Name = 45784185
REMARK  3 active torsions:
REMARK  status: ('A' for Active; 'I' for Inactive)
REMARK    1  A    between atoms: N_2  and  C_4
REMARK    2  A    between atoms: C_9  and  C_12
REMARK    3  A    between atoms: C_17  and  C_19
REMARK                            x       y       z     vdW  Elec       q    Type
REMARK                         _______ _______ _______ _____ _____    ______ ____
ROOT
ATOM      1  O   UNL     1      14.144   9.353  21.623  0.00  0.00    -0.439 OA
ATOM      3  N   UNL     1      13.168   8.350  19.840  0.00  0.00    -0.213 NA
ATOM     12  C   UNL     1      13.043   9.202  20.833  0.00  0.00    +0.201 A 
ATOM     13  C   UNL     1      14.457   7.892  19.975  0.00  0.00    +0.110 A 
ATOM     14  C   UNL     1      15.057   8.505  21.065  0.00  0.00    +0.155 A 
ATOM     15  C   UNL     1      15.195   6.967  19.225  0.00  0.00    +0.035 A 
ATOM     16  C   UNL     1      16.361   8.271  21.486  0.00  0.00    +0.049 A 
ATOM     17  C   UNL     1      16.516   6.704  19.619  0.00  0.00    -0.048 A 
ATOM     18  C   UNL     1      17.084   7.344  20.727  0.00  0.00    +0.007 A 
ATOM     19  C   UNL     1      17.329   5.722  18.840  0.00  0.00    +0.044 C 
ENDROOT
BRANCH  12   9
ATOM      2  N   UNL     1      11.086  11.642  22.745  0.00  0.00    -0.299 NA
ATOM      8  C   UNL     1      12.219  11.377  21.853  0.00  0.00    +0.097 C 
ATOM      9  C   UNL     1      11.841  10.035  21.213  0.00  0.00    +0.090 C 
ATOM     10  C   UNL     1      10.805  10.357  23.388  0.00  0.00    +0.085 C 
ATOM     11  C   UNL     1      10.892   9.373  22.228  0.00  0.00    +0.029 C 
BRANCH   2   4
ATOM      4  C   UNL     1      11.437  12.658  23.744  0.00  0.00    +0.057 C 
ATOM      5  C   UNL     1      11.233  12.080  25.161  0.00  0.00    +0.019 C 
ATOM      6  C   UNL     1      10.214  13.558  24.018  0.00  0.00    +0.019 C 
ATOM      7  C   UNL     1      10.539  13.412  25.520  0.00  0.00    +0.003 C 
ENDBRANCH   2   4
ENDBRANCH  12   9
TORSDOF 2
ENDMDL
MODEL 7
REMARK VINA RESULT:      -6.1     28.752     30.782
REMARK  Name = 45784185
REMARK  3 active torsions:
REMARK  status: ('A' for Active; 'I' for Inactive)
REMARK    1  A    between atoms: N_2  and  C_4
REMARK    2  A    between atoms: C_9  and  C_12
REMARK    3  A    between atoms: C_17  and  C_19
REMARK                            x       y       z     vdW  Elec       q    Type
REMARK                         _______ _______ _______ _____ _____    ______ ____
ROOT
ATOM      1  O   UNL     1      -0.090   1.992  -6.834  0.00  0.00    -0.439 OA
ATOM      3  N   UNL     1       0.530   0.308  -5.449  0.00  0.00    -0.213 NA
ATOM     12  C   UNL     1       0.757   1.533  -5.869  0.00  0.00    +0.201 A 
ATOM     13  C   UNL     1      -0.557  -0.087  -6.192  0.00  0.00    +0.110 A 
ATOM     14  C   UNL     1      -0.939   0.942  -7.040  0.00  0.00    +0.155 A 
ATOM     15  C   UNL     1      -1.280  -1.287  -6.212  0.00  0.00    +0.035 A 
ATOM     16  C   UNL     1      -2.004   0.879  -7.931  0.00  0.00    +0.049 A 
ATOM     17  C   UNL     1      -2.362  -1.389  -7.099  0.00  0.00    -0.048 A 
ATOM     18  C   UNL     1      -2.715  -0.326  -7.939  0.00  0.00    +0.007 A 
ATOM     19  C   UNL     1      -3.152  -2.656  -7.145  0.00  0.00    +0.044 C 
ENDROOT
BRANCH  12   9
ATOM      2  N   UNL     1       2.577   4.708  -5.657  0.00  0.00    -0.299 NA
ATOM      8  C   UNL     1       1.351   3.953  -5.380  0.00  0.00    +0.097 C 
ATOM      9  C   UNL     1       1.832   2.496  -5.423  0.00  0.00    +0.090 C 
ATOM     10  C   UNL     1       3.227   3.980  -6.748  0.00  0.00    +0.085 C 
ATOM     11  C   UNL     1       3.084   2.525  -6.318  0.00  0.00    +0.029 C 
BRANCH   2   4
ATOM      4  C   UNL     1       2.261   6.082  -6.064  0.00  0.00    +0.057 C 
ATOM      5  C   UNL     1       0.752   6.342  -5.875  0.00  0.00    +0.019 C 
ATOM      6  C   UNL     1       2.001   6.125  -7.583  0.00  0.00    +0.019 C 
ATOM      7  C   UNL     1       0.770   7.001  -7.270  0.00  0.00    +0.003 C 
ENDBRANCH   2   4
ENDBRANCH  12   9
TORSDOF 2
ENDMDL
MODEL 8
REMARK VINA RESULT:      -6.1     26.141     27.904
REMARK  Name = 45784185
REMARK  3 active torsions:
REMARK  status: ('A' for Active; 'I' for Inactive)
REMARK    1  A    between atoms: N_2  and  C_4
REMARK    2  A    between atoms: C_9  and  C_12
REMARK    3  A    between atoms: C_17  and  C_19
REMARK                            x       y       z     vdW  Elec       q    Type
REMARK                         _______ _______ _______ _____ _____    ______ ____
ROOT
ATOM      1  O   UNL     1     -12.631   9.288  21.985  0.00  0.00    -0.439 OA
ATOM      3  N   UNL     1     -11.931  11.037  20.724  0.00  0.00    -0.213 NA
ATOM     12  C   UNL     1     -12.468  10.635  21.855  0.00  0.00    +0.201 A 
ATOM     13  C   UNL     1     -11.716   9.864  20.041  0.00  0.00    +0.110 A 
ATOM     14  C   UNL     1     -12.142   8.792  20.810  0.00  0.00    +0.155 A 
ATOM     15  C   UNL     1     -11.167   9.616  18.775  0.00  0.00    +0.035 A 
ATOM     16  C   UNL     1     -12.071   7.459  20.420  0.00  0.00    +0.049 A 
ATOM     17  C   UNL     1     -11.079   8.283  18.346  0.00  0.00    -0.048 A 
ATOM     18  C   UNL     1     -11.521   7.229  19.154  0.00  0.00    +0.007 A 
ATOM     19  C   UNL     1     -10.499   7.986  17.001  0.00  0.00    +0.044 C 
ENDROOT
BRANCH  12   9
ATOM      2  N   UNL     1     -12.706  11.721  25.348  0.00  0.00    -0.299 NA
ATOM      8  C   UNL     1     -11.882  11.560  24.146  0.00  0.00    +0.097 C 
ATOM      9  C   UNL     1     -12.928  11.470  23.027  0.00  0.00    +0.090 C 
ATOM     10  C   UNL     1     -13.803  10.766  25.182  0.00  0.00    +0.085 C 
ATOM     11  C   UNL     1     -14.202  10.959  23.724  0.00  0.00    +0.029 C 
BRANCH   2   4
ATOM      4  C   UNL     1     -11.930  11.416  26.556  0.00  0.00    +0.057 C 
ATOM      5  C   UNL     1     -10.651  10.645  26.166  0.00  0.00    +0.019 C 
ATOM      6  C   UNL     1     -12.440  10.102  27.181  0.00  0.00    +0.019 C 
ATOM      7  C   UNL     1     -10.961   9.692  27.340  0.00  0.00    +0.003 C 
ENDBRANCH   2   4
ENDBRANCH  12   9
TORSDOF 2
ENDMDL
MODEL 9
REMARK VINA RESULT:      -5.9     26.736     27.530
REMARK  Name = 45784185
REMARK  3 active torsions:
REMARK  status: ('A' for Active; 'I' for Inactive)
REMARK    1  A    between atoms: N_2  and  C_4
REMARK    2  A    between atoms: C_9  and  C_12
REMARK    3  A    between atoms: C_17  and  C_19
REMARK                            x       y       z     vdW  Elec       q    Type
REMARK                         _______ _______ _______ _____ _____    ______ ____
ROOT
ATOM      1  O   UNL     1      -4.696 -10.302  14.419  0.00  0.00    -0.439 OA
ATOM      3  N   UNL     1      -3.111 -11.431  15.582  0.00  0.00    -0.213 NA
ATOM     12  C   UNL     1      -3.492 -10.941  14.423  0.00  0.00    +0.201 A 
ATOM     13  C   UNL     1      -4.142 -11.092  16.425  0.00  0.00    +0.110 A 
ATOM     14  C   UNL     1      -5.114 -10.400  15.716  0.00  0.00    +0.155 A 
ATOM     15  C   UNL     1      -4.338 -11.325  17.793  0.00  0.00    +0.035 A 
ATOM     16  C   UNL     1      -6.294  -9.910  16.263  0.00  0.00    +0.049 A 
ATOM     17  C   UNL     1      -5.517 -10.846  18.381  0.00  0.00    -0.048 A 
ATOM     18  C   UNL     1      -6.473 -10.152  17.629  0.00  0.00    +0.007 A 
ATOM     19  C   UNL     1      -5.755 -11.079  19.837  0.00  0.00    +0.044 C 
ENDROOT
BRANCH  12   9
ATOM      2  N   UNL     1      -3.105 -10.865  10.778  0.00  0.00    -0.299 NA
ATOM      8  C   UNL     1      -3.449 -10.149  12.011  0.00  0.00    +0.097 C 
ATOM      9  C   UNL     1      -2.771 -10.996  13.096  0.00  0.00    +0.090 C 
ATOM     10  C   UNL     1      -3.296 -12.280  11.101  0.00  0.00    +0.085 C 
ATOM     11  C   UNL     1      -2.659 -12.402  12.480  0.00  0.00    +0.029 C 
BRANCH   2   4
ATOM      4  C   UNL     1      -3.986 -10.459   9.678  0.00  0.00    +0.057 C 
ATOM      5  C   UNL     1      -3.890  -8.932   9.476  0.00  0.00    +0.019 C 
ATOM      6  C   UNL     1      -5.411 -10.221  10.217  0.00  0.00    +0.019 C 
ATOM      7  C   UNL     1      -5.430  -8.925   9.379  0.00  0.00    +0.003 C 
ENDBRANCH   2   4
ENDBRANCH  12   9
TORSDOF 2
ENDMDL
MODEL 10
REMARK VINA RESULT:      -5.9      4.007      9.155
REMARK  Name = 45784185
REMARK  3 active torsions:
REMARK  status: ('A' for Active; 'I' for Inactive)
REMARK    1  A    between atoms: N_2  and  C_4
REMARK    2  A    between atoms: C_9  and  C_12
REMARK    3  A    between atoms: C_17  and  C_19
REMARK                            x       y       z     vdW  Elec       q    Type
REMARK                         _______ _______ _______ _____ _____    ______ ____
ROOT
ATOM      1  O   UNL     1      19.348   7.387  21.472  0.00  0.00    -0.439 OA
ATOM      3  N   UNL     1      18.996   5.661  20.045  0.00  0.00    -0.213 NA
ATOM     12  C   UNL     1      19.836   6.278  20.848  0.00  0.00    +0.201 A 
ATOM     13  C   UNL     1      17.853   6.418  20.140  0.00  0.00    +0.110 A 
ATOM     14  C   UNL     1      18.065   7.474  21.013  0.00  0.00    +0.155 A 
ATOM     15  C   UNL     1      16.599   6.283  19.529  0.00  0.00    +0.035 A 
ATOM     16  C   UNL     1      17.114   8.435  21.338  0.00  0.00    +0.049 A 
ATOM     17  C   UNL     1      15.613   7.234  19.831  0.00  0.00    -0.048 A 
ATOM     18  C   UNL     1      15.869   8.287  20.718  0.00  0.00    +0.007 A 
ATOM     19  C   UNL     1      14.267   7.119  19.195  0.00  0.00    +0.044 C 
ENDROOT
BRANCH  12   9
ATOM      2  N   UNL     1      22.740   4.104  21.376  0.00  0.00    -0.299 NA
ATOM      8  C   UNL     1      21.740   4.646  20.450  0.00  0.00    +0.097 C 
ATOM      9  C   UNL     1      21.268   5.919  21.166  0.00  0.00    +0.090 C 
ATOM     10  C   UNL     1      22.141   4.252  22.703  0.00  0.00    +0.085 C 
ATOM     11  C   UNL     1      21.552   5.656  22.656  0.00  0.00    +0.029 C 
BRANCH   2   4
ATOM      4  C   UNL     1      23.012   2.693  21.081  0.00  0.00    +0.057 C 
ATOM      5  C   UNL     1      23.641   2.019  22.319  0.00  0.00    +0.019 C 
ATOM      6  C   UNL     1      24.391   2.562  20.403  0.00  0.00    +0.019 C 
ATOM      7  C   UNL     1      24.661   1.377  21.354  0.00  0.00    +0.003 C 
ENDBRANCH   2   4
ENDBRANCH  12   9
TORSDOF 2
ENDMDL
