MODEL 1
REMARK VINA RESULT:      -7.9      0.000      0.000
REMARK  Name = 11941477
REMARK  3 active torsions:
REMARK  status: ('A' for Active; 'I' for Inactive)
REMARK    1  A    between atoms: N_7  and  C_10
REMARK    2  A    between atoms: C_19  and  C_21
REMARK    3  A    between atoms: C_24  and  C_27
REMARK                            x       y       z     vdW  Elec       q    Type
REMARK                         _______ _______ _______ _____ _____    ______ ____
ROOT
ATOM      4  O   UNL     1     -11.128  -9.058  18.541  0.00  0.00    -0.273 OA
ATOM      5  O   UNL     1      -8.611 -10.063  14.025  0.00  0.00    -0.270 OA
ATOM      6  N   UNL     1      -9.782  -8.795  15.547  0.00  0.00    -0.284 N 
ATOM      8  N   UNL     1      -9.024  -9.856  18.183  0.00  0.00    -0.283 N 
ATOM      9  C   UNL     1      -9.859  -8.019  16.771  0.00  0.00    +0.179 C 
ATOM     10  C   UNL     1     -11.042  -7.057  16.555  0.00  0.00    +0.082 C 
ATOM     11  C   UNL     1     -11.925  -7.821  15.561  0.00  0.00    +0.040 C 
ATOM     12  C   UNL     1     -10.927  -8.555  14.680  0.00  0.00    +0.110 C 
ATOM     13  C   UNL     1     -10.089  -9.033  17.878  0.00  0.00    +0.239 C 
ATOM     14  C   UNL     1      -8.703  -9.552  15.141  0.00  0.00    +0.249 C 
ATOM     15  C   UNL     1      -7.606  -9.784  16.117  0.00  0.00    +0.059 A 
ATOM     16  C   UNL     1      -7.802 -10.006  17.491  0.00  0.00    +0.046 A 
ATOM     17  C   UNL     1      -6.322  -9.951  15.566  0.00  0.00    +0.023 A 
ATOM     18  C   UNL     1      -6.720 -10.456  18.266  0.00  0.00    +0.024 A 
ATOM     19  C   UNL     1      -5.250 -10.352  16.361  0.00  0.00    -0.017 A 
ATOM     20  C   UNL     1      -5.451 -10.617  17.709  0.00  0.00    +0.010 A 
ATOM     30  H   UNL     1      -9.099 -10.356  19.065  0.00  0.00    +0.155 HD
ENDROOT
BRANCH  19  21
ATOM     21  C   UNL     1      -3.935 -10.514  15.779  0.00  0.00    -0.017 A 
ATOM     22  C   UNL     1      -3.780 -10.514  14.393  0.00  0.00    +0.021 A 
ATOM     23  C   UNL     1      -2.822 -10.672  16.606  0.00  0.00    +0.008 A 
ATOM     24  C   UNL     1      -2.513 -10.672  13.833  0.00  0.00    +0.055 A 
ATOM     25  C   UNL     1      -1.554 -10.829  16.045  0.00  0.00    +0.001 A 
ATOM     26  C   UNL     1      -1.399 -10.829  14.659  0.00  0.00    +0.012 A 
BRANCH  24  27
ATOM      1  F   UNL     1      -3.399 -10.119  11.680  0.00  0.00    -0.166 F 
ATOM      2  F   UNL     1      -1.249  -9.979  11.924  0.00  0.00    -0.166 F 
ATOM      3  F   UNL     1      -2.207 -11.931  11.839  0.00  0.00    -0.166 F 
ATOM     27  C   UNL     1      -2.346 -10.672  12.351  0.00  0.00    +0.417 C 
ENDBRANCH  24  27
ENDBRANCH  19  21
BRANCH  10   7
ATOM      7  N   UNL     1     -10.583  -5.797  15.964  0.00  0.00    -0.325 NA
ATOM     28  H   UNL     1     -10.218  -5.974  15.029  0.00  0.00    +0.119 HD
ATOM     29  H   UNL     1      -9.807  -5.427  16.511  0.00  0.00    +0.119 HD
ENDBRANCH  10   7
TORSDOF 3
ENDMDL
MODEL 2
REMARK VINA RESULT:      -7.8      4.209      5.482
REMARK  Name = 11941477
REMARK  3 active torsions:
REMARK  status: ('A' for Active; 'I' for Inactive)
REMARK    1  A    between atoms: N_7  and  C_10
REMARK    2  A    between atoms: C_19  and  C_21
REMARK    3  A    between atoms: C_24  and  C_27
REMARK                            x       y       z     vdW  Elec       q    Type
REMARK                         _______ _______ _______ _____ _____    ______ ____
ROOT
ATOM      4  O   UNL     1      -3.570 -12.127  19.843  0.00  0.00    -0.273 OA
ATOM      5  O   UNL     1      -6.541 -12.775  15.543  0.00  0.00    -0.270 OA
ATOM      6  N   UNL     1      -6.021 -12.002  17.646  0.00  0.00    -0.284 N 
ATOM      8  N   UNL     1      -3.096 -11.696  17.657  0.00  0.00    -0.283 N 
ATOM      9  C   UNL     1      -5.316 -11.096  18.536  0.00  0.00    +0.179 C 
ATOM     10  C   UNL     1      -6.176 -11.048  19.812  0.00  0.00    +0.082 C 
ATOM     11  C   UNL     1      -6.880 -12.410  19.799  0.00  0.00    +0.040 C 
ATOM     12  C   UNL     1      -7.117 -12.681  18.323  0.00  0.00    +0.110 C 
ATOM     13  C   UNL     1      -3.946 -11.717  18.743  0.00  0.00    +0.239 C 
ATOM     14  C   UNL     1      -5.815 -12.115  16.288  0.00  0.00    +0.249 C 
ATOM     15  C   UNL     1      -4.638 -11.427  15.699  0.00  0.00    +0.059 A 
ATOM     16  C   UNL     1      -3.382 -11.332  16.323  0.00  0.00    +0.046 A 
ATOM     17  C   UNL     1      -4.781 -11.003  14.365  0.00  0.00    +0.023 A 
ATOM     18  C   UNL     1      -2.284 -10.878  15.571  0.00  0.00    +0.024 A 
ATOM     19  C   UNL     1      -3.690 -10.511  13.650  0.00  0.00    -0.017 A 
ATOM     20  C   UNL     1      -2.438 -10.460  14.250  0.00  0.00    +0.010 A 
ATOM     30  H   UNL     1      -2.119 -11.889  17.865  0.00  0.00    +0.155 HD
ENDROOT
BRANCH  19  21
ATOM     21  C   UNL     1      -3.856 -10.074  12.281  0.00  0.00    -0.017 A 
ATOM     22  C   UNL     1      -5.128  -9.776  11.793  0.00  0.00    +0.021 A 
ATOM     23  C   UNL     1      -2.743  -9.953  11.448  0.00  0.00    +0.008 A 
ATOM     24  C   UNL     1      -5.288  -9.357  10.472  0.00  0.00    +0.055 A 
ATOM     25  C   UNL     1      -2.903  -9.534  10.127  0.00  0.00    +0.001 A 
ATOM     26  C   UNL     1      -4.175  -9.235   9.639  0.00  0.00    +0.012 A 
BRANCH  24  27
ATOM      1  F   UNL     1      -7.541  -8.687  10.920  0.00  0.00    -0.166 F 
ATOM      2  F   UNL     1      -6.662  -8.001   9.060  0.00  0.00    -0.166 F 
ATOM      3  F   UNL     1      -7.218 -10.092   9.293  0.00  0.00    -0.166 F 
ATOM     27  C   UNL     1      -6.648  -9.039   9.949  0.00  0.00    +0.417 C 
ENDBRANCH  24  27
ENDBRANCH  19  21
BRANCH  10   7
ATOM      7  N   UNL     1      -7.159  -9.964  19.734  0.00  0.00    -0.325 NA
ATOM     28  H   UNL     1      -6.727  -9.144  19.312  0.00  0.00    +0.119 HD
ATOM     29  H   UNL     1      -7.440  -9.691  20.674  0.00  0.00    +0.119 HD
ENDBRANCH  10   7
TORSDOF 3
ENDMDL
MODEL 3
REMARK VINA RESULT:      -7.7     21.664     24.592
REMARK  Name = 11941477
REMARK  3 active torsions:
REMARK  status: ('A' for Active; 'I' for Inactive)
REMARK    1  A    between atoms: N_7  and  C_10
REMARK    2  A    between atoms: C_19  and  C_21
REMARK    3  A    between atoms: C_24  and  C_27
REMARK                            x       y       z     vdW  Elec       q    Type
REMARK                         _______ _______ _______ _____ _____    ______ ____
ROOT
ATOM      4  O   UNL     1     -16.965   1.433  29.089  0.00  0.00    -0.273 OA
ATOM      5  O   UNL     1     -14.895   2.510  33.809  0.00  0.00    -0.270 OA
ATOM      6  N   UNL     1     -14.985   1.559  31.717  0.00  0.00    -0.284 N 
ATOM      8  N   UNL     1     -16.540   3.441  30.077  0.00  0.00    -0.283 N 
ATOM      9  C   UNL     1     -14.873   1.638  30.272  0.00  0.00    +0.179 C 
ATOM     10  C   UNL     1     -14.534   0.206  29.822  0.00  0.00    +0.082 C 
ATOM     11  C   UNL     1     -15.152  -0.654  30.931  0.00  0.00    +0.040 C 
ATOM     12  C   UNL     1     -14.957   0.180  32.187  0.00  0.00    +0.110 C 
ATOM     13  C   UNL     1     -16.227   2.129  29.788  0.00  0.00    +0.239 C 
ATOM     14  C   UNL     1     -14.960   2.629  32.586  0.00  0.00    +0.249 C 
ATOM     15  C   UNL     1     -15.046   3.997  32.012  0.00  0.00    +0.059 A 
ATOM     16  C   UNL     1     -15.850   4.346  30.914  0.00  0.00    +0.046 A 
ATOM     17  C   UNL     1     -14.398   5.009  32.744  0.00  0.00    +0.023 A 
ATOM     18  C   UNL     1     -16.039   5.707  30.617  0.00  0.00    +0.024 A 
ATOM     19  C   UNL     1     -14.559   6.351  32.405  0.00  0.00    -0.017 A 
ATOM     20  C   UNL     1     -15.390   6.701  31.349  0.00  0.00    +0.010 A 
ATOM     30  H   UNL     1     -17.322   3.827  29.555  0.00  0.00    +0.155 HD
ENDROOT
BRANCH  19  21
ATOM     21  C   UNL     1     -13.881   7.379  33.165  0.00  0.00    -0.017 A 
ATOM     22  C   UNL     1     -13.398   7.098  34.443  0.00  0.00    +0.021 A 
ATOM     23  C   UNL     1     -13.712   8.652  32.619  0.00  0.00    +0.008 A 
ATOM     24  C   UNL     1     -12.746   8.089  35.175  0.00  0.00    +0.055 A 
ATOM     25  C   UNL     1     -13.059   9.644  33.352  0.00  0.00    +0.001 A 
ATOM     26  C   UNL     1     -12.576   9.362  34.630  0.00  0.00    +0.012 A 
BRANCH  24  27
ATOM      1  F   UNL     1     -10.869   7.867  36.643  0.00  0.00    -0.166 F 
ATOM      2  F   UNL     1     -12.705   8.636  37.503  0.00  0.00    -0.166 F 
ATOM      3  F   UNL     1     -12.556   6.533  36.964  0.00  0.00    -0.166 F 
ATOM     27  C   UNL     1     -12.229   7.790  36.542  0.00  0.00    +0.417 C 
ENDBRANCH  24  27
ENDBRANCH  19  21
BRANCH  10   7
ATOM      7  N   UNL     1     -13.082   0.008  29.772  0.00  0.00    -0.325 NA
ATOM     28  H   UNL     1     -12.700   0.070  30.715  0.00  0.00    +0.119 HD
ATOM     29  H   UNL     1     -12.655   0.762  29.237  0.00  0.00    +0.119 HD
ENDBRANCH  10   7
TORSDOF 3
ENDMDL
MODEL 4
REMARK VINA RESULT:      -7.6     28.634     31.390
REMARK  Name = 11941477
REMARK  3 active torsions:
REMARK  status: ('A' for Active; 'I' for Inactive)
REMARK    1  A    between atoms: N_7  and  C_10
REMARK    2  A    between atoms: C_19  and  C_21
REMARK    3  A    between atoms: C_24  and  C_27
REMARK                            x       y       z     vdW  Elec       q    Type
REMARK                         _______ _______ _______ _____ _____    ______ ____
ROOT
ATOM      4  O   UNL     1      23.182   4.610  20.009  0.00  0.00    -0.273 OA
ATOM      5  O   UNL     1      20.117   6.542  23.831  0.00  0.00    -0.270 OA
ATOM      6  N   UNL     1      21.886   6.517  22.361  0.00  0.00    -0.284 N 
ATOM      8  N   UNL     1      20.936   4.991  20.033  0.00  0.00    -0.283 N 
ATOM      9  C   UNL     1      22.441   6.668  21.028  0.00  0.00    +0.179 C 
ATOM     10  C   UNL     1      23.920   7.031  21.254  0.00  0.00    +0.082 C 
ATOM     11  C   UNL     1      24.223   6.391  22.614  0.00  0.00    +0.040 C 
ATOM     12  C   UNL     1      22.922   6.544  23.384  0.00  0.00    +0.110 C 
ATOM     13  C   UNL     1      22.237   5.324  20.351  0.00  0.00    +0.239 C 
ATOM     14  C   UNL     1      20.544   6.509  22.677  0.00  0.00    +0.249 C 
ATOM     15  C   UNL     1      19.564   6.427  21.563  0.00  0.00    +0.059 A 
ATOM     16  C   UNL     1      19.744   5.650  20.406  0.00  0.00    +0.046 A 
ATOM     17  C   UNL     1      18.322   7.046  21.794  0.00  0.00    +0.023 A 
ATOM     18  C   UNL     1      18.651   5.457  19.542  0.00  0.00    +0.024 A 
ATOM     19  C   UNL     1      17.265   6.882  20.901  0.00  0.00    -0.017 A 
ATOM     20  C   UNL     1      17.425   6.077  19.781  0.00  0.00    +0.010 A 
ATOM     30  H   UNL     1      20.832   4.220  19.379  0.00  0.00    +0.155 HD
ENDROOT
BRANCH  19  21
ATOM     21  C   UNL     1      15.996   7.531  21.152  0.00  0.00    -0.017 A 
ATOM     22  C   UNL     1      14.808   6.917  20.754  0.00  0.00    +0.021 A 
ATOM     23  C   UNL     1      15.961   8.772  21.789  0.00  0.00    +0.008 A 
ATOM     24  C   UNL     1      13.585   7.544  20.994  0.00  0.00    +0.055 A 
ATOM     25  C   UNL     1      14.738   9.399  22.028  0.00  0.00    +0.001 A 
ATOM     26  C   UNL     1      13.550   8.785  21.631  0.00  0.00    +0.012 A 
BRANCH  24  27
ATOM      1  F   UNL     1      12.406   6.240  19.371  0.00  0.00    -0.166 F 
ATOM      2  F   UNL     1      11.863   5.949  21.450  0.00  0.00    -0.166 F 
ATOM      3  F   UNL     1      11.288   7.779  20.425  0.00  0.00    -0.166 F 
ATOM     27  C   UNL     1      12.314   6.889  20.569  0.00  0.00    +0.417 C 
ENDBRANCH  24  27
ENDBRANCH  19  21
BRANCH  10   7
ATOM      7  N   UNL     1      24.091   8.485  21.326  0.00  0.00    -0.325 NA
ATOM     28  H   UNL     1      24.818   8.708  22.004  0.00  0.00    +0.119 HD
ATOM     29  H   UNL     1      23.233   8.912  21.672  0.00  0.00    +0.119 HD
ENDBRANCH  10   7
TORSDOF 3
ENDMDL
MODEL 5
REMARK VINA RESULT:      -7.5     24.610     27.375
REMARK  Name = 11941477
REMARK  3 active torsions:
REMARK  status: ('A' for Active; 'I' for Inactive)
REMARK    1  A    between atoms: N_7  and  C_10
REMARK    2  A    between atoms: C_19  and  C_21
REMARK    3  A    between atoms: C_24  and  C_27
REMARK                            x       y       z     vdW  Elec       q    Type
REMARK                         _______ _______ _______ _____ _____    ______ ____
ROOT
ATOM      4  O   UNL     1      13.546   3.578  -2.575  0.00  0.00    -0.273 OA
ATOM      5  O   UNL     1       9.275   6.209  -0.973  0.00  0.00    -0.270 OA
ATOM      6  N   UNL     1      10.446   4.455  -1.889  0.00  0.00    -0.284 N 
ATOM      8  N   UNL     1      13.060   4.480  -0.541  0.00  0.00    -0.283 N 
ATOM      9  C   UNL     1      11.293   3.281  -1.767  0.00  0.00    +0.179 C 
ATOM     10  C   UNL     1      11.001   2.451  -3.030  0.00  0.00    +0.082 C 
ATOM     11  C   UNL     1      10.567   3.515  -4.044  0.00  0.00    +0.040 C 
ATOM     12  C   UNL     1       9.819   4.535  -3.201  0.00  0.00    +0.110 C 
ATOM     13  C   UNL     1      12.714   3.813  -1.697  0.00  0.00    +0.239 C 
ATOM     14  C   UNL     1      10.122   5.322  -0.868  0.00  0.00    +0.249 C 
ATOM     15  C   UNL     1      10.856   5.194   0.417  0.00  0.00    +0.059 A 
ATOM     16  C   UNL     1      12.224   4.891   0.521  0.00  0.00    +0.046 A 
ATOM     17  C   UNL     1      10.141   5.569   1.570  0.00  0.00    +0.023 A 
ATOM     18  C   UNL     1      12.859   5.039   1.767  0.00  0.00    +0.024 A 
ATOM     19  C   UNL     1      10.778   5.664   2.806  0.00  0.00    -0.017 A 
ATOM     20  C   UNL     1      12.139   5.411   2.903  0.00  0.00    +0.010 A 
ATOM     30  H   UNL     1      14.057   4.619  -0.400  0.00  0.00    +0.155 HD
ENDROOT
BRANCH  19  21
ATOM     21  C   UNL     1      10.026   6.046   3.982  0.00  0.00    -0.017 A 
ATOM     22  C   UNL     1      10.307   5.453   5.213  0.00  0.00    +0.021 A 
ATOM     23  C   UNL     1       9.019   7.006   3.884  0.00  0.00    +0.008 A 
ATOM     24  C   UNL     1       9.581   5.820   6.346  0.00  0.00    +0.055 A 
ATOM     25  C   UNL     1       8.293   7.373   5.018  0.00  0.00    +0.001 A 
ATOM     26  C   UNL     1       8.574   6.781   6.248  0.00  0.00    +0.012 A 
BRANCH  24  27
ATOM      1  F   UNL     1       9.043   5.584   8.665  0.00  0.00    -0.166 F 
ATOM      2  F   UNL     1       9.793   3.823   7.645  0.00  0.00    -0.166 F 
ATOM      3  F   UNL     1      11.141   5.467   8.106  0.00  0.00    -0.166 F 
ATOM     27  C   UNL     1       9.880   5.186   7.663  0.00  0.00    +0.417 C 
ENDBRANCH  24  27
ENDBRANCH  19  21
BRANCH  10   7
ATOM      7  N   UNL     1       9.910   1.503  -2.786  0.00  0.00    -0.325 NA
ATOM     28  H   UNL     1       9.396   1.347  -3.653  0.00  0.00    +0.119 HD
ATOM     29  H   UNL     1       9.248   1.908  -2.127  0.00  0.00    +0.119 HD
ENDBRANCH  10   7
TORSDOF 3
ENDMDL
MODEL 6
REMARK VINA RESULT:      -7.3     24.156     27.248
REMARK  Name = 11941477
REMARK  3 active torsions:
REMARK  status: ('A' for Active; 'I' for Inactive)
REMARK    1  A    between atoms: N_7  and  C_10
REMARK    2  A    between atoms: C_19  and  C_21
REMARK    3  A    between atoms: C_24  and  C_27
REMARK                            x       y       z     vdW  Elec       q    Type
REMARK                         _______ _______ _______ _____ _____    ______ ____
ROOT
ATOM      4  O   UNL     1      11.635   5.851  -2.043  0.00  0.00    -0.273 OA
ATOM      5  O   UNL     1      11.405   3.357   2.589  0.00  0.00    -0.270 OA
ATOM      6  N   UNL     1      12.421   4.369   0.791  0.00  0.00    -0.284 N 
ATOM      8  N   UNL     1      10.505   6.395  -0.142  0.00  0.00    -0.283 N 
ATOM      9  C   UNL     1      12.810   5.551   0.042  0.00  0.00    +0.179 C 
ATOM     10  C   UNL     1      14.042   5.114  -0.771  0.00  0.00    +0.082 C 
ATOM     11  C   UNL     1      13.822   3.606  -0.940  0.00  0.00    +0.040 C 
ATOM     12  C   UNL     1      13.160   3.189   0.363  0.00  0.00    +0.110 C 
ATOM     13  C   UNL     1      11.605   5.903  -0.812  0.00  0.00    +0.239 C 
ATOM     14  C   UNL     1      11.582   4.351   1.885  0.00  0.00    +0.249 C 
ATOM     15  C   UNL     1      10.831   5.591   2.210  0.00  0.00    +0.059 A 
ATOM     16  C   UNL     1      10.277   6.456   1.251  0.00  0.00    +0.046 A 
ATOM     17  C   UNL     1      10.533   5.786   3.572  0.00  0.00    +0.023 A 
ATOM     18  C   UNL     1       9.384   7.456   1.675  0.00  0.00    +0.024 A 
ATOM     19  C   UNL     1       9.683   6.813   3.977  0.00  0.00    -0.017 A 
ATOM     20  C   UNL     1       9.098   7.641   3.027  0.00  0.00    +0.010 A 
ATOM     30  H   UNL     1       9.805   6.846  -0.726  0.00  0.00    +0.155 HD
ENDROOT
BRANCH  19  21
ATOM     21  C   UNL     1       9.392   7.004   5.381  0.00  0.00    -0.017 A 
ATOM     22  C   UNL     1       9.652   5.981   6.293  0.00  0.00    +0.021 A 
ATOM     23  C   UNL     1       8.850   8.211   5.823  0.00  0.00    +0.008 A 
ATOM     24  C   UNL     1       9.369   6.164   7.646  0.00  0.00    +0.055 A 
ATOM     25  C   UNL     1       8.567   8.395   7.177  0.00  0.00    +0.001 A 
ATOM     26  C   UNL     1       8.828   7.372   8.089  0.00  0.00    +0.012 A 
BRANCH  24  27
ATOM      1  F   UNL     1      10.823   5.223   9.298  0.00  0.00    -0.166 F 
ATOM      2  F   UNL     1       8.692   4.950   9.592  0.00  0.00    -0.166 F 
ATOM      3  F   UNL     1       9.723   3.843   8.028  0.00  0.00    -0.166 F 
ATOM     27  C   UNL     1       9.646   5.070   8.622  0.00  0.00    +0.417 C 
ENDBRANCH  24  27
ENDBRANCH  19  21
BRANCH  10   7
ATOM      7  N   UNL     1      15.275   5.369  -0.021  0.00  0.00    -0.325 NA
ATOM     28  H   UNL     1      16.002   4.727  -0.335  0.00  0.00    +0.119 HD
ATOM     29  H   UNL     1      15.120   5.169   0.966  0.00  0.00    +0.119 HD
ENDBRANCH  10   7
TORSDOF 3
ENDMDL
MODEL 7
REMARK VINA RESULT:      -7.2      3.485      4.476
REMARK  Name = 11941477
REMARK  3 active torsions:
REMARK  status: ('A' for Active; 'I' for Inactive)
REMARK    1  A    between atoms: N_7  and  C_10
REMARK    2  A    between atoms: C_19  and  C_21
REMARK    3  A    between atoms: C_24  and  C_27
REMARK                            x       y       z     vdW  Elec       q    Type
REMARK                         _______ _______ _______ _____ _____    ______ ____
ROOT
ATOM      4  O   UNL     1      -6.032 -11.143  20.675  0.00  0.00    -0.273 OA
ATOM      5  O   UNL     1      -6.805 -14.146  16.418  0.00  0.00    -0.270 OA
ATOM      6  N   UNL     1      -7.377 -12.663  18.081  0.00  0.00    -0.284 N 
ATOM      8  N   UNL     1      -4.902 -11.199  18.698  0.00  0.00    -0.283 N 
ATOM      9  C   UNL     1      -7.361 -11.336  18.671  0.00  0.00    +0.179 C 
ATOM     10  C   UNL     1      -8.618 -11.283  19.557  0.00  0.00    +0.082 C 
ATOM     11  C   UNL     1      -8.839 -12.755  19.924  0.00  0.00    +0.040 C 
ATOM     12  C   UNL     1      -8.403 -13.508  18.678  0.00  0.00    +0.110 C 
ATOM     13  C   UNL     1      -6.059 -11.255  19.448  0.00  0.00    +0.239 C 
ATOM     14  C   UNL     1      -6.643 -13.065  16.985  0.00  0.00    +0.249 C 
ATOM     15  C   UNL     1      -5.583 -12.154  16.483  0.00  0.00    +0.059 A 
ATOM     16  C   UNL     1      -4.747 -11.381  17.306  0.00  0.00    +0.046 A 
ATOM     17  C   UNL     1      -5.319 -12.226  15.102  0.00  0.00    +0.023 A 
ATOM     18  C   UNL     1      -3.626 -10.752  16.736  0.00  0.00    +0.024 A 
ATOM     19  C   UNL     1      -4.229 -11.556  14.547  0.00  0.00    -0.017 A 
ATOM     20  C   UNL     1      -3.376 -10.829  15.366  0.00  0.00    +0.010 A 
ATOM     30  H   UNL     1      -4.069 -10.908  19.204  0.00  0.00    +0.155 HD
ENDROOT
BRANCH  19  21
ATOM     21  C   UNL     1      -3.976 -11.636  13.125  0.00  0.00    -0.017 A 
ATOM     22  C   UNL     1      -3.830 -10.469  12.376  0.00  0.00    +0.021 A 
ATOM     23  C   UNL     1      -3.882 -12.881  12.503  0.00  0.00    +0.008 A 
ATOM     24  C   UNL     1      -3.588 -10.546  11.005  0.00  0.00    +0.055 A 
ATOM     25  C   UNL     1      -3.639 -12.958  11.130  0.00  0.00    +0.001 A 
ATOM     26  C   UNL     1      -3.492 -11.791  10.381  0.00  0.00    +0.012 A 
BRANCH  24  27
ATOM      1  F   UNL     1      -2.165  -8.787  10.225  0.00  0.00    -0.166 F 
ATOM      2  F   UNL     1      -3.726  -9.460   8.878  0.00  0.00    -0.166 F 
ATOM      3  F   UNL     1      -4.240  -8.288  10.638  0.00  0.00    -0.166 F 
ATOM     27  C   UNL     1      -3.431  -9.298  10.202  0.00  0.00    +0.417 C 
ENDBRANCH  24  27
ENDBRANCH  19  21
BRANCH  10   7
ATOM      7  N   UNL     1      -9.764 -10.768  18.802  0.00  0.00    -0.325 NA
ATOM     28  H   UNL     1      -9.653  -9.765  18.660  0.00  0.00    +0.119 HD
ATOM     29  H   UNL     1     -10.614 -10.890  19.348  0.00  0.00    +0.119 HD
ENDBRANCH  10   7
TORSDOF 3
ENDMDL
MODEL 8
REMARK VINA RESULT:      -7.2     24.085     26.818
REMARK  Name = 11941477
REMARK  3 active torsions:
REMARK  status: ('A' for Active; 'I' for Inactive)
REMARK    1  A    between atoms: N_7  and  C_10
REMARK    2  A    between atoms: C_19  and  C_21
REMARK    3  A    between atoms: C_24  and  C_27
REMARK                            x       y       z     vdW  Elec       q    Type
REMARK                         _______ _______ _______ _____ _____    ______ ____
ROOT
ATOM      4  O   UNL     1      12.634   7.512   7.292  0.00  0.00    -0.273 OA
ATOM      5  O   UNL     1      10.146   3.617   4.767  0.00  0.00    -0.270 OA
ATOM      6  N   UNL     1      10.331   5.476   6.109  0.00  0.00    -0.284 N 
ATOM      8  N   UNL     1      12.669   6.939   5.087  0.00  0.00    -0.283 N 
ATOM      9  C   UNL     1      10.523   6.904   6.295  0.00  0.00    +0.179 C 
ATOM     10  C   UNL     1       9.851   7.220   7.643  0.00  0.00    +0.082 C 
ATOM     11  C   UNL     1       9.953   5.888   8.396  0.00  0.00    +0.040 C 
ATOM     12  C   UNL     1       9.792   4.843   7.304  0.00  0.00    +0.110 C 
ATOM     13  C   UNL     1      12.027   7.112   6.296  0.00  0.00    +0.239 C 
ATOM     14  C   UNL     1      10.474   4.794   4.919  0.00  0.00    +0.249 C 
ATOM     15  C   UNL     1      11.082   5.513   3.770  0.00  0.00    +0.059 A 
ATOM     16  C   UNL     1      12.147   6.424   3.880  0.00  0.00    +0.046 A 
ATOM     17  C   UNL     1      10.651   5.104   2.495  0.00  0.00    +0.023 A 
ATOM     18  C   UNL     1      12.798   6.851   2.709  0.00  0.00    +0.024 A 
ATOM     19  C   UNL     1      11.279   5.575   1.343  0.00  0.00    -0.017 A 
ATOM     20  C   UNL     1      12.361   6.439   1.451  0.00  0.00    +0.010 A 
ATOM     30  H   UNL     1      13.616   7.307   5.040  0.00  0.00    +0.155 HD
ENDROOT
BRANCH  19  21
ATOM     21  C   UNL     1      10.819   5.148   0.039  0.00  0.00    -0.017 A 
ATOM     22  C   UNL     1      11.338   3.990  -0.539  0.00  0.00    +0.021 A 
ATOM     23  C   UNL     1       9.858   5.897  -0.640  0.00  0.00    +0.008 A 
ATOM     24  C   UNL     1      10.897   3.580  -1.797  0.00  0.00    +0.055 A 
ATOM     25  C   UNL     1       9.416   5.487  -1.899  0.00  0.00    +0.001 A 
ATOM     26  C   UNL     1       9.934   4.329  -2.477  0.00  0.00    +0.012 A 
BRANCH  24  27
ATOM      1  F   UNL     1      12.029   2.551  -3.636  0.00  0.00    -0.166 F 
ATOM      2  F   UNL     1      12.418   1.740  -1.663  0.00  0.00    -0.166 F 
ATOM      3  F   UNL     1      10.498   1.386  -2.624  0.00  0.00    -0.166 F 
ATOM     27  C   UNL     1      11.451   2.342  -2.417  0.00  0.00    +0.417 C 
ENDBRANCH  24  27
ENDBRANCH  19  21
BRANCH  10   7
ATOM      7  N   UNL     1       8.445   7.588   7.447  0.00  0.00    -0.325 NA
ATOM     28  H   UNL     1       7.852   6.790   7.668  0.00  0.00    +0.119 HD
ATOM     29  H   UNL     1       8.284   7.805   6.465  0.00  0.00    +0.119 HD
ENDBRANCH  10   7
TORSDOF 3
ENDMDL
MODEL 9
REMARK VINA RESULT:      -7.0      5.392      8.073
REMARK  Name = 11941477
REMARK  3 active torsions:
REMARK  status: ('A' for Active; 'I' for Inactive)
REMARK    1  A    between atoms: N_7  and  C_10
REMARK    2  A    between atoms: C_19  and  C_21
REMARK    3  A    between atoms: C_24  and  C_27
REMARK                            x       y       z     vdW  Elec       q    Type
REMARK                         _______ _______ _______ _____ _____    ______ ____
ROOT
ATOM      4  O   UNL     1      -1.488 -11.152  14.691  0.00  0.00    -0.273 OA
ATOM      5  O   UNL     1      -6.086 -12.331  12.410  0.00  0.00    -0.270 OA
ATOM      6  N   UNL     1      -4.699 -11.510  14.051  0.00  0.00    -0.284 N 
ATOM      8  N   UNL     1      -2.293 -10.581  12.638  0.00  0.00    -0.283 N 
ATOM      9  C   UNL     1      -3.806 -10.494  14.579  0.00  0.00    +0.179 C 
ATOM     10  C   UNL     1      -3.877 -10.660  16.107  0.00  0.00    +0.082 C 
ATOM     11  C   UNL     1      -4.238 -12.141  16.272  0.00  0.00    +0.040 C 
ATOM     12  C   UNL     1      -5.152 -12.425  15.090  0.00  0.00    +0.110 C 
ATOM     13  C   UNL     1      -2.442 -10.809  13.990  0.00  0.00    +0.239 C 
ATOM     14  C   UNL     1      -5.208 -11.547  12.770  0.00  0.00    +0.249 C 
ATOM     15  C   UNL     1      -4.644 -10.608  11.767  0.00  0.00    +0.059 A 
ATOM     16  C   UNL     1      -3.285 -10.258  11.685  0.00  0.00    +0.046 A 
ATOM     17  C   UNL     1      -5.526 -10.196  10.751  0.00  0.00    +0.023 A 
ATOM     18  C   UNL     1      -2.831  -9.561  10.552  0.00  0.00    +0.024 A 
ATOM     19  C   UNL     1      -5.065  -9.464   9.658  0.00  0.00    -0.017 A 
ATOM     20  C   UNL     1      -3.715  -9.157   9.552  0.00  0.00    +0.010 A 
ATOM     30  H   UNL     1      -1.333 -10.563  12.302  0.00  0.00    +0.155 HD
ENDROOT
BRANCH  19  21
ATOM     21  C   UNL     1      -5.987  -9.043   8.625  0.00  0.00    -0.017 A 
ATOM     22  C   UNL     1      -6.891  -8.012   8.875  0.00  0.00    +0.021 A 
ATOM     23  C   UNL     1      -5.971  -9.672   7.379  0.00  0.00    +0.008 A 
ATOM     24  C   UNL     1      -7.781  -7.608   7.880  0.00  0.00    +0.055 A 
ATOM     25  C   UNL     1      -6.862  -9.268   6.383  0.00  0.00    +0.001 A 
ATOM     26  C   UNL     1      -7.766  -8.236   6.633  0.00  0.00    +0.012 A 
BRANCH  24  27
ATOM      1  F   UNL     1      -9.597  -6.257   7.104  0.00  0.00    -0.166 F 
ATOM      2  F   UNL     1      -9.563  -6.740   9.218  0.00  0.00    -0.166 F 
ATOM      3  F   UNL     1      -8.132  -5.316   8.407  0.00  0.00    -0.166 F 
ATOM     27  C   UNL     1      -8.750  -6.506   8.146  0.00  0.00    +0.417 C 
ENDBRANCH  24  27
ENDBRANCH  19  21
BRANCH  10   7
ATOM      7  N   UNL     1      -4.931  -9.813  16.673  0.00  0.00    -0.325 NA
ATOM     28  H   UNL     1      -4.798  -8.852  16.360  0.00  0.00    +0.119 HD
ATOM     29  H   UNL     1      -4.849  -9.800  17.688  0.00  0.00    +0.119 HD
ENDBRANCH  10   7
TORSDOF 3
ENDMDL
MODEL 10
REMARK VINA RESULT:      -7.0     26.985     29.421
REMARK  Name = 11941477
REMARK  3 active torsions:
REMARK  status: ('A' for Active; 'I' for Inactive)
REMARK    1  A    between atoms: N_7  and  C_10
REMARK    2  A    between atoms: C_19  and  C_21
REMARK    3  A    between atoms: C_24  and  C_27
REMARK                            x       y       z     vdW  Elec       q    Type
REMARK                         _______ _______ _______ _____ _____    ______ ____
ROOT
ATOM      4  O   UNL     1       9.590   9.476   7.779  0.00  0.00    -0.273 OA
ATOM      5  O   UNL     1      13.511   5.960   7.796  0.00  0.00    -0.270 OA
ATOM      6  N   UNL     1      11.475   6.841   7.186  0.00  0.00    -0.284 N 
ATOM      8  N   UNL     1      11.811   9.758   7.360  0.00  0.00    -0.283 N 
ATOM      9  C   UNL     1      10.664   7.784   6.437  0.00  0.00    +0.179 C 
ATOM     10  C   UNL     1       9.294   7.098   6.292  0.00  0.00    +0.082 C 
ATOM     11  C   UNL     1       9.240   6.182   7.520  0.00  0.00    +0.040 C 
ATOM     12  C   UNL     1      10.682   5.734   7.701  0.00  0.00    +0.110 C 
ATOM     13  C   UNL     1      10.631   9.048   7.278  0.00  0.00    +0.239 C 
ATOM     14  C   UNL     1      12.850   6.866   7.287  0.00  0.00    +0.249 C 
ATOM     15  C   UNL     1      13.566   8.065   6.780  0.00  0.00    +0.059 A 
ATOM     16  C   UNL     1      13.097   9.383   6.911  0.00  0.00    +0.046 A 
ATOM     17  C   UNL     1      14.868   7.840   6.295  0.00  0.00    +0.023 A 
ATOM     18  C   UNL     1      13.968  10.446   6.616  0.00  0.00    +0.024 A 
ATOM     19  C   UNL     1      15.701   8.906   5.963  0.00  0.00    -0.017 A 
ATOM     20  C   UNL     1      15.256  10.210   6.135  0.00  0.00    +0.010 A 
ATOM     30  H   UNL     1      11.724  10.707   7.715  0.00  0.00    +0.155 HD
ENDROOT
BRANCH  19  21
ATOM     21  C   UNL     1      17.035   8.657   5.460  0.00  0.00    -0.017 A 
ATOM     22  C   UNL     1      18.124   8.672   6.332  0.00  0.00    +0.021 A 
ATOM     23  C   UNL     1      17.232   8.404   4.102  0.00  0.00    +0.008 A 
ATOM     24  C   UNL     1      19.409   8.433   5.847  0.00  0.00    +0.055 A 
ATOM     25  C   UNL     1      18.518   8.166   3.616  0.00  0.00    +0.001 A 
ATOM     26  C   UNL     1      19.606   8.179   4.488  0.00  0.00    +0.012 A 
BRANCH  24  27
ATOM      1  F   UNL     1      21.604   9.239   6.354  0.00  0.00    -0.166 F 
ATOM      2  F   UNL     1      20.268   8.904   8.029  0.00  0.00    -0.166 F 
ATOM      3  F   UNL     1      21.117   7.209   6.960  0.00  0.00    -0.166 F 
ATOM     27  C   UNL     1      20.574   8.449   6.778  0.00  0.00    +0.417 C 
ENDBRANCH  24  27
ENDBRANCH  19  21
BRANCH  10   7
ATOM      7  N   UNL     1       9.239   6.304   5.061  0.00  0.00    -0.325 NA
ATOM     28  H   UNL     1       8.269   6.199   4.768  0.00  0.00    +0.119 HD
ATOM     29  H   UNL     1       9.588   5.365   5.246  0.00  0.00    +0.119 HD
ENDBRANCH  10   7
TORSDOF 3
ENDMDL
