REMARK  Name = 11867500
REMARK  8 active torsions:
REMARK  status: ('A' for Active; 'I' for Inactive)
REMARK    1  A    between atoms: O_3  and  C_14
REMARK    2  A    between atoms: O_3  and  C_24
REMARK    3  A    between atoms: N_5  and  C_13
REMARK    4  A    between atoms: N_6  and  C_17
REMARK    5  A    between atoms: N_10  and  C_30
REMARK    6  A    between atoms: N_10  and  C_31
REMARK    7  A    between atoms: N_10  and  C_32
REMARK    8  A    between atoms: C_20  and  C_25
REMARK                            x       y       z     vdW  Elec       q    Type
REMARK                         _______ _______ _______ _____ _____    ______ ____
ROOT
ATOM      1  O   UNL     1      -1.390   0.486   0.824  0.00  0.00    -0.368 OA
ATOM      2  O   UNL     1       0.560  -1.806   0.117  0.00  0.00    -0.368 OA
ATOM     11  C   UNL     1       0.447  -0.447  -0.360  0.00  0.00    +0.177 C 
ATOM     12  C   UNL     1      -1.033  -0.127  -0.425  0.00  0.00    +0.192 C 
ATOM     13  C   UNL     1       0.996   0.505   0.686  0.00  0.00    +0.168 C 
ATOM     14  C   UNL     1      -1.662  -1.492  -0.577  0.00  0.00    +0.235 C 
ATOM     15  C   UNL     1      -0.206   0.733   1.596  0.00  0.00    +0.190 C 
ATOM     16  C   UNL     1      -0.756  -2.354   0.272  0.00  0.00    +0.207 C 
ENDROOT
BRANCH  13   5
ATOM      5  N   UNL     1       1.575   1.714   0.096  0.00  0.00    -0.217 N 
ATOM      7  N   UNL     1       0.809   2.781  -0.154  0.00  0.00    -0.043 NA
ATOM      8  N   UNL     1       2.919   3.178  -0.757  0.00  0.00    -0.108 NA
ATOM      9  N   UNL     1       1.638   3.677  -0.676  0.00  0.00    -0.023 NA
ATOM     20  C   UNL     1       2.855   1.959  -0.272  0.00  0.00    +0.182 A 
BRANCH  20  25
ATOM     25  C   UNL     1       3.940   1.021  -0.141  0.00  0.00    +0.021 A 
ATOM     26  C   UNL     1       4.704   0.993   1.027  0.00  0.00    +0.013 A 
ATOM     27  C   UNL     1       4.231   0.138  -1.183  0.00  0.00    +0.013 A 
ATOM     28  C   UNL     1       5.754   0.084   1.153  0.00  0.00    +0.024 A 
ATOM     29  C   UNL     1       5.281  -0.771  -1.057  0.00  0.00    +0.024 A 
ATOM     30  C   UNL     1       6.043  -0.798   0.111  0.00  0.00    +0.029 A 
BRANCH  30  10
ATOM     10  N   UNL     1       7.105  -1.717   0.239  0.00  0.00    -0.336 N 
ATOM     31  C   UNL     1       7.047  -3.003  -0.427  0.00  0.00    +0.129 C 
ATOM     32  C   UNL     1       8.263  -1.393   1.049  0.00  0.00    +0.129 C 
ENDBRANCH  30  10
ENDBRANCH  20  25
ENDBRANCH  13   5
BRANCH  14   3
ATOM      3  O   UNL     1      -3.003  -1.545  -0.146  0.00  0.00    -0.442 OA
BRANCH   3  24
ATOM      4  O   UNL     1      -3.577  -0.036  -1.780  0.00  0.00    -0.226 OA
ATOM      6  N   UNL     1      -5.149  -0.909  -0.314  0.00  0.00    -0.278 N 
ATOM     24  C   UNL     1      -3.882  -0.760  -0.838  0.00  0.00    +0.401 C 
ATOM     33  H   UNL     1      -5.251  -1.510   0.499  0.00  0.00    +0.152 HD
BRANCH   6  17
ATOM     17  C   UNL     1      -6.313  -0.216  -0.819  0.00  0.00    +0.076 C 
ATOM     18  C   UNL     1      -6.478   1.149  -0.141  0.00  0.00    +0.022 C 
ATOM     19  C   UNL     1      -7.575  -1.070  -0.660  0.00  0.00    +0.022 C 
ATOM     21  C   UNL     1      -6.928   1.029   1.315  0.00  0.00    +0.002 C 
ATOM     22  C   UNL     1      -8.024  -1.187   0.797  0.00  0.00    +0.002 C 
ATOM     23  C   UNL     1      -8.192   0.184   1.445  0.00  0.00    +0.000 C 
ENDBRANCH   6  17
ENDBRANCH   3  24
ENDBRANCH  14   3
TORSDOF 6
