MODEL 1
REMARK VINA RESULT:      -5.8      0.000      0.000
REMARK  Name = 25390419
REMARK  10 active torsions:
REMARK  status: ('A' for Active; 'I' for Inactive)
REMARK    1  A    between atoms: O_2  and  C_12
REMARK    2  A    between atoms: O_3  and  C_13
REMARK    3  A    between atoms: N_6  and  C_15
REMARK    4  A    between atoms: N_7  and  C_19
REMARK    5  A    between atoms: C_8  and  C_16
REMARK    6  A    between atoms: C_9  and  C_15
REMARK    7  A    between atoms: C_14  and  C_17
REMARK    8  A    between atoms: C_17  and  C_18
REMARK    9  A    between atoms: C_19  and  C_20
REMARK   10  A    between atoms: C_19  and  C_21
REMARK                            x       y       z     vdW  Elec       q    Type
REMARK                         _______ _______ _______ _____ _____    ______ ____
ROOT
ATOM      1  O   UNL     1      12.845   8.247  22.094  0.00  0.00    -0.366 OA
ATOM      9  C   UNL     1      13.326   7.696  20.855  0.00  0.00    +0.167 C 
ATOM     12  C   UNL     1      12.086   7.266  20.089  0.00  0.00    +0.176 C 
ATOM     13  C   UNL     1      11.186   6.790  21.211  0.00  0.00    +0.175 C 
ATOM     14  C   UNL     1      11.487   7.803  22.311  0.00  0.00    +0.158 C 
ENDROOT
BRANCH  12   2
ATOM      2  O   UNL     1      12.371   6.263  19.138  0.00  0.00    -0.387 OA
ATOM     23  H   UNL     1      12.255   6.654  18.256  0.00  0.00    +0.210 HD
ENDBRANCH  12   2
BRANCH  13   3
ATOM      3  O   UNL     1      11.602   5.503  21.668  0.00  0.00    -0.387 OA
ATOM     24  H   UNL     1      11.076   4.841  21.189  0.00  0.00    +0.210 HD
ENDBRANCH  13   3
BRANCH   9  15
ATOM     15  C   UNL     1      14.155   8.734  20.121  0.00  0.00    +0.138 C 
BRANCH  15   6
ATOM      4  O   UNL     1      13.274  11.012  18.543  0.00  0.00    -0.276 OA
ATOM      6  N   UNL     1      13.839   8.758  18.723  0.00  0.00    -0.313 N 
ATOM     16  C   UNL     1      13.423   9.899  18.052  0.00  0.00    +0.216 C 
ATOM     22  H   UNL     1      13.925   7.889  18.205  0.00  0.00    +0.149 HD
BRANCH  16   8
ATOM      8  C   UNL     1      13.150   9.694  16.598  0.00  0.00    +0.075 C 
ATOM     10  C   UNL     1      14.135  10.209  15.590  0.00  0.00    +0.013 C 
ATOM     11  C   UNL     1      14.002   8.733  15.823  0.00  0.00    +0.013 C 
ENDBRANCH  16   8
ENDBRANCH  15   6
ENDBRANCH   9  15
BRANCH  14  17
ATOM     17  C   UNL     1      10.582   9.026  22.258  0.00  0.00    +0.130 C 
BRANCH  17  18
ATOM      5  O   UNL     1      11.479  11.079  21.343  0.00  0.00    -0.276 OA
ATOM      7  N   UNL     1      11.912  10.548  23.560  0.00  0.00    -0.313 N 
ATOM     18  C   UNL     1      11.361  10.327  22.306  0.00  0.00    +0.216 C 
ATOM     25  H   UNL     1      11.736   9.881  24.305  0.00  0.00    +0.149 HD
BRANCH   7  19
ATOM     19  C   UNL     1      12.694  11.711  23.864  0.00  0.00    +0.067 C 
ATOM     20  C   UNL     1      14.178  11.410  23.689  0.00  0.00    +0.027 C 
ATOM     21  C   UNL     1      12.395  12.205  25.275  0.00  0.00    +0.027 C 
ENDBRANCH   7  19
ENDBRANCH  17  18
ENDBRANCH  14  17
TORSDOF 8
ENDMDL
MODEL 2
REMARK VINA RESULT:      -5.8     14.389     16.945
REMARK  Name = 25390419
REMARK  10 active torsions:
REMARK  status: ('A' for Active; 'I' for Inactive)
REMARK    1  A    between atoms: O_2  and  C_12
REMARK    2  A    between atoms: O_3  and  C_13
REMARK    3  A    between atoms: N_6  and  C_15
REMARK    4  A    between atoms: N_7  and  C_19
REMARK    5  A    between atoms: C_8  and  C_16
REMARK    6  A    between atoms: C_9  and  C_15
REMARK    7  A    between atoms: C_14  and  C_17
REMARK    8  A    between atoms: C_17  and  C_18
REMARK    9  A    between atoms: C_19  and  C_20
REMARK   10  A    between atoms: C_19  and  C_21
REMARK                            x       y       z     vdW  Elec       q    Type
REMARK                         _______ _______ _______ _____ _____    ______ ____
ROOT
ATOM      1  O   UNL     1      10.510   6.896   6.009  0.00  0.00    -0.366 OA
ATOM      9  C   UNL     1      10.763   5.591   5.459  0.00  0.00    +0.167 C 
ATOM     12  C   UNL     1       9.762   4.664   6.127  0.00  0.00    +0.176 C 
ATOM     13  C   UNL     1       9.679   5.257   7.518  0.00  0.00    +0.175 C 
ATOM     14  C   UNL     1       9.750   6.753   7.230  0.00  0.00    +0.158 C 
ENDROOT
BRANCH  12   2
ATOM      2  O   UNL     1      10.194   3.320   6.118  0.00  0.00    -0.387 OA
ATOM     23  H   UNL     1      10.798   3.202   6.870  0.00  0.00    +0.210 HD
ENDBRANCH  12   2
BRANCH  13   3
ATOM      3  O   UNL     1      10.831   4.897   8.280  0.00  0.00    -0.387 OA
ATOM     24  H   UNL     1      11.341   5.710   8.438  0.00  0.00    +0.210 HD
ENDBRANCH  13   3
BRANCH   9  15
ATOM     15  C   UNL     1      10.626   5.637   3.948  0.00  0.00    +0.138 C 
BRANCH  15   6
ATOM      4  O   UNL     1      10.187   3.924   1.640  0.00  0.00    -0.276 OA
ATOM      6  N   UNL     1      11.571   4.765   3.315  0.00  0.00    -0.313 N 
ATOM     16  C   UNL     1      11.269   3.980   2.211  0.00  0.00    +0.216 C 
ATOM     22  H   UNL     1      12.509   4.726   3.702  0.00  0.00    +0.149 HD
BRANCH  16   8
ATOM      8  C   UNL     1      12.407   3.150   1.714  0.00  0.00    +0.075 C 
ATOM     10  C   UNL     1      13.056   3.507   0.408  0.00  0.00    +0.013 C 
ATOM     11  C   UNL     1      13.788   3.738   1.698  0.00  0.00    +0.013 C 
ENDBRANCH  16   8
ENDBRANCH  15   6
ENDBRANCH   9  15
BRANCH  14  17
ATOM     17  C   UNL     1       8.382   7.382   7.004  0.00  0.00    +0.130 C 
BRANCH  17  18
ATOM      5  O   UNL     1       8.850   9.669   6.367  0.00  0.00    -0.276 OA
ATOM      7  N   UNL     1       7.955   8.219   4.791  0.00  0.00    -0.313 N 
ATOM     18  C   UNL     1       8.434   8.559   6.049  0.00  0.00    +0.216 C 
ATOM     25  H   UNL     1       7.657   7.265   4.613  0.00  0.00    +0.149 HD
BRANCH   7  19
ATOM     19  C   UNL     1       7.900   9.158   3.708  0.00  0.00    +0.067 C 
ATOM     20  C   UNL     1       6.495   9.731   3.576  0.00  0.00    +0.027 C 
ATOM     21  C   UNL     1       8.353   8.503   2.408  0.00  0.00    +0.027 C 
ENDBRANCH   7  19
ENDBRANCH  17  18
ENDBRANCH  14  17
TORSDOF 8
ENDMDL
MODEL 3
REMARK VINA RESULT:      -5.4     13.568     15.770
REMARK  Name = 25390419
REMARK  10 active torsions:
REMARK  status: ('A' for Active; 'I' for Inactive)
REMARK    1  A    between atoms: O_2  and  C_12
REMARK    2  A    between atoms: O_3  and  C_13
REMARK    3  A    between atoms: N_6  and  C_15
REMARK    4  A    between atoms: N_7  and  C_19
REMARK    5  A    between atoms: C_8  and  C_16
REMARK    6  A    between atoms: C_9  and  C_15
REMARK    7  A    between atoms: C_14  and  C_17
REMARK    8  A    between atoms: C_17  and  C_18
REMARK    9  A    between atoms: C_19  and  C_20
REMARK   10  A    between atoms: C_19  and  C_21
REMARK                            x       y       z     vdW  Elec       q    Type
REMARK                         _______ _______ _______ _____ _____    ______ ____
ROOT
ATOM      1  O   UNL     1      11.008   6.901   7.137  0.00  0.00    -0.366 OA
ATOM      9  C   UNL     1      11.167   5.920   6.097  0.00  0.00    +0.167 C 
ATOM     12  C   UNL     1       9.933   5.037   6.175  0.00  0.00    +0.176 C 
ATOM     13  C   UNL     1       9.676   5.004   7.668  0.00  0.00    +0.175 C 
ATOM     14  C   UNL     1      10.018   6.432   8.080  0.00  0.00    +0.158 C 
ENDROOT
BRANCH  12   2
ATOM      2  O   UNL     1      10.158   3.759   5.619  0.00  0.00    -0.387 OA
ATOM     23  H   UNL     1       9.360   3.227   5.775  0.00  0.00    +0.210 HD
ENDBRANCH  12   2
BRANCH  13   3
ATOM      3  O   UNL     1      10.599   4.124   8.310  0.00  0.00    -0.387 OA
ATOM     24  H   UNL     1      10.453   3.234   7.947  0.00  0.00    +0.210 HD
ENDBRANCH  13   3
BRANCH   9  15
ATOM     15  C   UNL     1      11.325   6.615   4.757  0.00  0.00    +0.138 C 
BRANCH  15   6
ATOM      4  O   UNL     1      13.173   6.709   2.514  0.00  0.00    -0.276 OA
ATOM      6  N   UNL     1      11.455   5.665   3.692  0.00  0.00    -0.313 N 
ATOM     16  C   UNL     1      12.370   5.794   2.657  0.00  0.00    +0.216 C 
ATOM     22  H   UNL     1      10.838   4.858   3.702  0.00  0.00    +0.149 HD
BRANCH  16   8
ATOM      8  C   UNL     1      12.332   4.686   1.657  0.00  0.00    +0.075 C 
ATOM     10  C   UNL     1      13.394   3.625   1.701  0.00  0.00    +0.013 C 
ATOM     11  C   UNL     1      11.988   3.299   2.116  0.00  0.00    +0.013 C 
ENDBRANCH  16   8
ENDBRANCH  15   6
ENDBRANCH   9  15
BRANCH  14  17
ATOM     17  C   UNL     1       8.825   7.374   8.012  0.00  0.00    +0.130 C 
BRANCH  17  18
ATOM      5  O   UNL     1       9.643   9.608   8.458  0.00  0.00    -0.276 OA
ATOM      7  N   UNL     1       9.050   9.035   6.288  0.00  0.00    -0.313 N 
ATOM     18  C   UNL     1       9.223   8.791   7.643  0.00  0.00    +0.216 C 
ATOM     25  H   UNL     1       8.722   8.287   5.685  0.00  0.00    +0.149 HD
BRANCH   7  19
ATOM     19  C   UNL     1       9.356  10.301   5.688  0.00  0.00    +0.067 C 
ATOM     20  C   UNL     1       8.296  10.668   4.658  0.00  0.00    +0.027 C 
ATOM     21  C   UNL     1      10.746  10.276   5.064  0.00  0.00    +0.027 C 
ENDBRANCH   7  19
ENDBRANCH  17  18
ENDBRANCH  14  17
TORSDOF 8
ENDMDL
MODEL 4
REMARK VINA RESULT:      -5.3     12.373     15.286
REMARK  Name = 25390419
REMARK  10 active torsions:
REMARK  status: ('A' for Active; 'I' for Inactive)
REMARK    1  A    between atoms: O_2  and  C_12
REMARK    2  A    between atoms: O_3  and  C_13
REMARK    3  A    between atoms: N_6  and  C_15
REMARK    4  A    between atoms: N_7  and  C_19
REMARK    5  A    between atoms: C_8  and  C_16
REMARK    6  A    between atoms: C_9  and  C_15
REMARK    7  A    between atoms: C_14  and  C_17
REMARK    8  A    between atoms: C_17  and  C_18
REMARK    9  A    between atoms: C_19  and  C_20
REMARK   10  A    between atoms: C_19  and  C_21
REMARK                            x       y       z     vdW  Elec       q    Type
REMARK                         _______ _______ _______ _____ _____    ______ ____
ROOT
ATOM      1  O   UNL     1      10.975   6.875   6.995  0.00  0.00    -0.366 OA
ATOM      9  C   UNL     1      11.106   5.794   6.054  0.00  0.00    +0.167 C 
ATOM     12  C   UNL     1       9.875   4.926   6.251  0.00  0.00    +0.176 C 
ATOM     13  C   UNL     1       9.658   5.043   7.746  0.00  0.00    +0.175 C 
ATOM     14  C   UNL     1      10.010   6.503   8.006  0.00  0.00    +0.158 C 
ENDROOT
BRANCH  12   2
ATOM      2  O   UNL     1      10.086   3.599   5.819  0.00  0.00    -0.387 OA
ATOM     23  H   UNL     1      10.265   3.060   6.608  0.00  0.00    +0.210 HD
ENDBRANCH  12   2
BRANCH  13   3
ATOM      3  O   UNL     1      10.597   4.229   8.448  0.00  0.00    -0.387 OA
ATOM     24  H   UNL     1      11.208   4.825   8.913  0.00  0.00    +0.210 HD
ENDBRANCH  13   3
BRANCH   9  15
ATOM     15  C   UNL     1      11.230   6.352   4.648  0.00  0.00    +0.138 C 
BRANCH  15   6
ATOM      4  O   UNL     1       9.971   5.996   2.051  0.00  0.00    -0.276 OA
ATOM      6  N   UNL     1      11.472   5.309   3.695  0.00  0.00    -0.313 N 
ATOM     16  C   UNL     1      10.819   5.220   2.474  0.00  0.00    +0.216 C 
ATOM     22  H   UNL     1      12.159   4.601   3.936  0.00  0.00    +0.149 HD
BRANCH  16   8
ATOM      8  C   UNL     1      11.230   4.053   1.638  0.00  0.00    +0.075 C 
ATOM     10  C   UNL     1      12.262   4.248   0.566  0.00  0.00    +0.013 C 
ATOM     11  C   UNL     1      12.607   3.480   1.809  0.00  0.00    +0.013 C 
ENDBRANCH  16   8
ENDBRANCH  15   6
ENDBRANCH   9  15
BRANCH  14  17
ATOM     17  C   UNL     1       8.815   7.437   7.875  0.00  0.00    +0.130 C 
BRANCH  17  18
ATOM      5  O   UNL     1       8.762   9.465   6.554  0.00  0.00    -0.276 OA
ATOM      7  N   UNL     1      10.163   9.357   8.402  0.00  0.00    -0.313 N 
ATOM     18  C   UNL     1       9.221   8.854   7.515  0.00  0.00    +0.216 C 
ATOM     25  H   UNL     1      10.463   8.787   9.186  0.00  0.00    +0.149 HD
BRANCH   7  19
ATOM     19  C   UNL     1      10.708  10.679   8.279  0.00  0.00    +0.067 C 
ATOM     20  C   UNL     1      12.152  10.612   7.797  0.00  0.00    +0.027 C 
ATOM     21  C   UNL     1      10.602  11.426   9.603  0.00  0.00    +0.027 C 
ENDBRANCH   7  19
ENDBRANCH  17  18
ENDBRANCH  14  17
TORSDOF 8
ENDMDL
MODEL 5
REMARK VINA RESULT:      -5.3     25.705     28.296
REMARK  Name = 25390419
REMARK  10 active torsions:
REMARK  status: ('A' for Active; 'I' for Inactive)
REMARK    1  A    between atoms: O_2  and  C_12
REMARK    2  A    between atoms: O_3  and  C_13
REMARK    3  A    between atoms: N_6  and  C_15
REMARK    4  A    between atoms: N_7  and  C_19
REMARK    5  A    between atoms: C_8  and  C_16
REMARK    6  A    between atoms: C_9  and  C_15
REMARK    7  A    between atoms: C_14  and  C_17
REMARK    8  A    between atoms: C_17  and  C_18
REMARK    9  A    between atoms: C_19  and  C_20
REMARK   10  A    between atoms: C_19  and  C_21
REMARK                            x       y       z     vdW  Elec       q    Type
REMARK                         _______ _______ _______ _____ _____    ______ ____
ROOT
ATOM      1  O   UNL     1      -6.452 -11.649  17.263  0.00  0.00    -0.366 OA
ATOM      9  C   UNL     1      -7.515 -10.832  17.785  0.00  0.00    +0.167 C 
ATOM     12  C   UNL     1      -7.260 -10.733  19.279  0.00  0.00    +0.176 C 
ATOM     13  C   UNL     1      -6.698 -12.106  19.584  0.00  0.00    +0.175 C 
ATOM     14  C   UNL     1      -5.843 -12.380  18.351  0.00  0.00    +0.158 C 
ENDROOT
BRANCH  12   2
ATOM      2  O   UNL     1      -8.437 -10.438  20.000  0.00  0.00    -0.387 OA
ATOM     23  H   UNL     1      -8.171 -10.029  20.840  0.00  0.00    +0.210 HD
ENDBRANCH  12   2
BRANCH  13   3
ATOM      3  O   UNL     1      -7.747 -13.074  19.619  0.00  0.00    -0.387 OA
ATOM     24  H   UNL     1      -8.340 -12.887  18.872  0.00  0.00    +0.210 HD
ENDBRANCH  13   3
BRANCH   9  15
ATOM     15  C   UNL     1      -7.517  -9.486  17.084  0.00  0.00    +0.138 C 
BRANCH  15   6
ATOM      4  O   UNL     1      -9.629  -8.622  15.282  0.00  0.00    -0.276 OA
ATOM      6  N   UNL     1      -8.691  -8.732  17.412  0.00  0.00    -0.313 N 
ATOM     16  C   UNL     1      -9.650  -8.362  16.479  0.00  0.00    +0.216 C 
ATOM     22  H   UNL     1      -8.819  -8.456  18.381  0.00  0.00    +0.149 HD
BRANCH  16   8
ATOM      8  C   UNL     1     -10.790  -7.581  17.043  0.00  0.00    +0.075 C 
ATOM     10  C   UNL     1     -11.147  -6.259  16.426  0.00  0.00    +0.013 C 
ATOM     11  C   UNL     1     -12.050  -7.443  16.239  0.00  0.00    +0.013 C 
ENDBRANCH  16   8
ENDBRANCH  15   6
ENDBRANCH   9  15
BRANCH  14  17
ATOM     17  C   UNL     1      -4.410 -11.887  18.499  0.00  0.00    +0.130 C 
BRANCH  17  18
ATOM      5  O   UNL     1      -3.988  -9.989  17.056  0.00  0.00    -0.276 OA
ATOM      7  N   UNL     1      -3.331 -12.104  16.361  0.00  0.00    -0.313 N 
ATOM     18  C   UNL     1      -3.900 -11.199  17.246  0.00  0.00    +0.216 C 
ATOM     25  H   UNL     1      -3.278 -13.085  16.617  0.00  0.00    +0.149 HD
BRANCH   7  19
ATOM     19  C   UNL     1      -2.774 -11.703  15.101  0.00  0.00    +0.067 C 
ATOM     20  C   UNL     1      -2.684 -12.897  14.159  0.00  0.00    +0.027 C 
ATOM     21  C   UNL     1      -1.409 -11.055  15.301  0.00  0.00    +0.027 C 
ENDBRANCH   7  19
ENDBRANCH  17  18
ENDBRANCH  14  17
TORSDOF 8
ENDMDL
MODEL 6
REMARK VINA RESULT:      -5.1     26.671     27.949
REMARK  Name = 25390419
REMARK  10 active torsions:
REMARK  status: ('A' for Active; 'I' for Inactive)
REMARK    1  A    between atoms: O_2  and  C_12
REMARK    2  A    between atoms: O_3  and  C_13
REMARK    3  A    between atoms: N_6  and  C_15
REMARK    4  A    between atoms: N_7  and  C_19
REMARK    5  A    between atoms: C_8  and  C_16
REMARK    6  A    between atoms: C_9  and  C_15
REMARK    7  A    between atoms: C_14  and  C_17
REMARK    8  A    between atoms: C_17  and  C_18
REMARK    9  A    between atoms: C_19  and  C_20
REMARK   10  A    between atoms: C_19  and  C_21
REMARK                            x       y       z     vdW  Elec       q    Type
REMARK                         _______ _______ _______ _____ _____    ______ ____
ROOT
ATOM      1  O   UNL     1      -5.741 -10.470  18.654  0.00  0.00    -0.366 OA
ATOM      9  C   UNL     1      -4.844 -10.452  17.530  0.00  0.00    +0.167 C 
ATOM     12  C   UNL     1      -4.574 -11.910  17.198  0.00  0.00    +0.176 C 
ATOM     13  C   UNL     1      -4.575 -12.541  18.575  0.00  0.00    +0.175 C 
ATOM     14  C   UNL     1      -5.693 -11.775  19.274  0.00  0.00    +0.158 C 
ENDROOT
BRANCH  12   2
ATOM      2  O   UNL     1      -3.355 -12.080  16.507  0.00  0.00    -0.387 OA
ATOM     23  H   UNL     1      -3.160 -13.032  16.485  0.00  0.00    +0.210 HD
ENDBRANCH  12   2
BRANCH  13   3
ATOM      3  O   UNL     1      -3.351 -12.255  19.253  0.00  0.00    -0.387 OA
ATOM     24  H   UNL     1      -2.698 -12.001  18.578  0.00  0.00    +0.210 HD
ENDBRANCH  13   3
BRANCH   9  15
ATOM     15  C   UNL     1      -5.473  -9.681  16.385  0.00  0.00    +0.138 C 
BRANCH  15   6
ATOM      4  O   UNL     1      -6.985 -10.093  13.935  0.00  0.00    -0.276 OA
ATOM      6  N   UNL     1      -4.978 -10.136  15.119  0.00  0.00    -0.313 N 
ATOM     16  C   UNL     1      -5.780 -10.304  13.999  0.00  0.00    +0.216 C 
ATOM     22  H   UNL     1      -3.987 -10.345  15.048  0.00  0.00    +0.149 HD
BRANCH  16   8
ATOM      8  C   UNL     1      -5.053 -10.786  12.787  0.00  0.00    +0.075 C 
ATOM     10  C   UNL     1      -4.622  -9.790  11.750  0.00  0.00    +0.013 C 
ATOM     11  C   UNL     1      -3.599 -10.452  12.626  0.00  0.00    +0.013 C 
ENDBRANCH  16   8
ENDBRANCH  15   6
ENDBRANCH   9  15
BRANCH  14  17
ATOM     17  C   UNL     1      -7.059 -12.425  19.101  0.00  0.00    +0.130 C 
BRANCH  17  18
ATOM      5  O   UNL     1      -8.743 -10.968  20.049  0.00  0.00    -0.276 OA
ATOM      7  N   UNL     1      -8.491 -11.051  17.743  0.00  0.00    -0.313 N 
ATOM     18  C   UNL     1      -8.184 -11.408  19.049  0.00  0.00    +0.216 C 
ATOM     25  H   UNL     1      -7.954 -11.449  16.979  0.00  0.00    +0.149 HD
BRANCH   7  19
ATOM     19  C   UNL     1      -9.520 -10.104  17.425  0.00  0.00    +0.067 C 
ATOM     20  C   UNL     1     -10.313 -10.572  16.211  0.00  0.00    +0.027 C 
ATOM     21  C   UNL     1      -8.922  -8.721  17.194  0.00  0.00    +0.027 C 
ENDBRANCH   7  19
ENDBRANCH  17  18
ENDBRANCH  14  17
TORSDOF 8
ENDMDL
MODEL 7
REMARK VINA RESULT:      -5.0     25.684     28.163
REMARK  Name = 25390419
REMARK  10 active torsions:
REMARK  status: ('A' for Active; 'I' for Inactive)
REMARK    1  A    between atoms: O_2  and  C_12
REMARK    2  A    between atoms: O_3  and  C_13
REMARK    3  A    between atoms: N_6  and  C_15
REMARK    4  A    between atoms: N_7  and  C_19
REMARK    5  A    between atoms: C_8  and  C_16
REMARK    6  A    between atoms: C_9  and  C_15
REMARK    7  A    between atoms: C_14  and  C_17
REMARK    8  A    between atoms: C_17  and  C_18
REMARK    9  A    between atoms: C_19  and  C_20
REMARK   10  A    between atoms: C_19  and  C_21
REMARK                            x       y       z     vdW  Elec       q    Type
REMARK                         _______ _______ _______ _____ _____    ______ ____
ROOT
ATOM      1  O   UNL     1      -5.464 -11.025  16.436  0.00  0.00    -0.366 OA
ATOM      9  C   UNL     1      -6.431 -10.692  17.448  0.00  0.00    +0.167 C 
ATOM     12  C   UNL     1      -5.657 -10.638  18.754  0.00  0.00    +0.176 C 
ATOM     13  C   UNL     1      -4.638 -11.740  18.549  0.00  0.00    +0.175 C 
ATOM     14  C   UNL     1      -4.291 -11.581  17.073  0.00  0.00    +0.158 C 
ENDROOT
BRANCH  12   2
ATOM      2  O   UNL     1      -6.490 -10.849  19.874  0.00  0.00    -0.387 OA
ATOM     23  H   UNL     1      -6.451 -11.795  20.093  0.00  0.00    +0.210 HD
ENDBRANCH  12   2
BRANCH  13   3
ATOM      3  O   UNL     1      -5.248 -13.019  18.725  0.00  0.00    -0.387 OA
ATOM     24  H   UNL     1      -6.165 -12.949  18.407  0.00  0.00    +0.210 HD
ENDBRANCH  13   3
BRANCH   9  15
ATOM     15  C   UNL     1      -7.109  -9.380  17.096  0.00  0.00    +0.138 C 
BRANCH  15   6
ATOM      4  O   UNL     1      -9.514  -8.170  15.999  0.00  0.00    -0.276 OA
ATOM      6  N   UNL     1      -8.397  -9.278  17.717  0.00  0.00    -0.313 N 
ATOM     16  C   UNL     1      -9.493  -8.678  17.113  0.00  0.00    +0.216 C 
ATOM     22  H   UNL     1      -8.503  -9.666  18.649  0.00  0.00    +0.149 HD
BRANCH  16   8
ATOM      8  C   UNL     1     -10.735  -8.686  17.942  0.00  0.00    +0.075 C 
ATOM     10  C   UNL     1     -11.819  -9.674  17.624  0.00  0.00    +0.013 C 
ATOM     11  C   UNL     1     -10.990  -9.842  18.865  0.00  0.00    +0.013 C 
ENDBRANCH  16   8
ENDBRANCH  15   6
ENDBRANCH   9  15
BRANCH  14  17
ATOM     17  C   UNL     1      -3.133 -10.622  16.833  0.00  0.00    +0.130 C 
BRANCH  17  18
ATOM      5  O   UNL     1      -1.018 -10.680  15.657  0.00  0.00    -0.276 OA
ATOM      7  N   UNL     1      -2.664 -12.217  15.096  0.00  0.00    -0.313 N 
ATOM     18  C   UNL     1      -2.141 -11.151  15.814  0.00  0.00    +0.216 C 
ATOM     25  H   UNL     1      -3.596 -12.555  15.316  0.00  0.00    +0.149 HD
BRANCH   7  19
ATOM     19  C   UNL     1      -1.923 -12.894  14.071  0.00  0.00    +0.067 C 
ATOM     20  C   UNL     1      -2.212 -12.272  12.711  0.00  0.00    +0.027 C 
ATOM     21  C   UNL     1      -2.242 -14.384  14.076  0.00  0.00    +0.027 C 
ENDBRANCH   7  19
ENDBRANCH  17  18
ENDBRANCH  14  17
TORSDOF 8
ENDMDL
MODEL 8
REMARK VINA RESULT:      -4.8     26.625     28.370
REMARK  Name = 25390419
REMARK  10 active torsions:
REMARK  status: ('A' for Active; 'I' for Inactive)
REMARK    1  A    between atoms: O_2  and  C_12
REMARK    2  A    between atoms: O_3  and  C_13
REMARK    3  A    between atoms: N_6  and  C_15
REMARK    4  A    between atoms: N_7  and  C_19
REMARK    5  A    between atoms: C_8  and  C_16
REMARK    6  A    between atoms: C_9  and  C_15
REMARK    7  A    between atoms: C_14  and  C_17
REMARK    8  A    between atoms: C_17  and  C_18
REMARK    9  A    between atoms: C_19  and  C_20
REMARK   10  A    between atoms: C_19  and  C_21
REMARK                            x       y       z     vdW  Elec       q    Type
REMARK                         _______ _______ _______ _____ _____    ______ ____
ROOT
ATOM      1  O   UNL     1     -14.768   4.324  24.024  0.00  0.00    -0.366 OA
ATOM      9  C   UNL     1     -15.127   4.750  22.698  0.00  0.00    +0.167 C 
ATOM     12  C   UNL     1     -16.633   4.571  22.603  0.00  0.00    +0.176 C 
ATOM     13  C   UNL     1     -16.843   3.322  23.435  0.00  0.00    +0.175 C 
ATOM     14  C   UNL     1     -15.842   3.523  24.568  0.00  0.00    +0.158 C 
ENDROOT
BRANCH  12   2
ATOM      2  O   UNL     1     -17.067   4.432  21.267  0.00  0.00    -0.387 OA
ATOM     23  H   UNL     1     -18.038   4.475  21.269  0.00  0.00    +0.210 HD
ENDBRANCH  12   2
BRANCH  13   3
ATOM      3  O   UNL     1     -16.451   2.164  22.697  0.00  0.00    -0.387 OA
ATOM     24  H   UNL     1     -15.491   2.220  22.557  0.00  0.00    +0.210 HD
ENDBRANCH  13   3
BRANCH   9  15
ATOM     15  C   UNL     1     -14.678   6.184  22.483  0.00  0.00    +0.138 C 
BRANCH  15   6
ATOM      4  O   UNL     1     -13.298   8.553  21.513  0.00  0.00    -0.276 OA
ATOM      6  N   UNL     1     -13.458   6.238  21.732  0.00  0.00    -0.313 N 
ATOM     16  C   UNL     1     -12.871   7.423  21.309  0.00  0.00    +0.216 C 
ATOM     22  H   UNL     1     -13.007   5.358  21.501  0.00  0.00    +0.149 HD
BRANCH  16   8
ATOM      8  C   UNL     1     -11.602   7.243  20.543  0.00  0.00    +0.075 C 
ATOM     10  C   UNL     1     -11.649   7.236  19.043  0.00  0.00    +0.013 C 
ATOM     11  C   UNL     1     -11.044   8.402  19.770  0.00  0.00    +0.013 C 
ENDBRANCH  16   8
ENDBRANCH  15   6
ENDBRANCH   9  15
BRANCH  14  17
ATOM     17  C   UNL     1     -16.429   4.274  25.755  0.00  0.00    +0.130 C 
BRANCH  17  18
ATOM      5  O   UNL     1     -17.437   2.437  26.965  0.00  0.00    -0.276 OA
ATOM      7  N   UNL     1     -15.855   3.759  28.032  0.00  0.00    -0.313 N 
ATOM     18  C   UNL     1     -16.649   3.378  26.959  0.00  0.00    +0.216 C 
ATOM     25  H   UNL     1     -15.211   4.536  27.923  0.00  0.00    +0.149 HD
BRANCH   7  19
ATOM     19  C   UNL     1     -15.877   3.069  29.289  0.00  0.00    +0.067 C 
ATOM     20  C   UNL     1     -16.944   3.664  30.200  0.00  0.00    +0.027 C 
ATOM     21  C   UNL     1     -14.503   3.114  29.948  0.00  0.00    +0.027 C 
ENDBRANCH   7  19
ENDBRANCH  17  18
ENDBRANCH  14  17
TORSDOF 8
ENDMDL
MODEL 9
REMARK VINA RESULT:      -4.8     13.506     15.005
REMARK  Name = 25390419
REMARK  10 active torsions:
REMARK  status: ('A' for Active; 'I' for Inactive)
REMARK    1  A    between atoms: O_2  and  C_12
REMARK    2  A    between atoms: O_3  and  C_13
REMARK    3  A    between atoms: N_6  and  C_15
REMARK    4  A    between atoms: N_7  and  C_19
REMARK    5  A    between atoms: C_8  and  C_16
REMARK    6  A    between atoms: C_9  and  C_15
REMARK    7  A    between atoms: C_14  and  C_17
REMARK    8  A    between atoms: C_17  and  C_18
REMARK    9  A    between atoms: C_19  and  C_20
REMARK   10  A    between atoms: C_19  and  C_21
REMARK                            x       y       z     vdW  Elec       q    Type
REMARK                         _______ _______ _______ _____ _____    ______ ____
ROOT
ATOM      1  O   UNL     1      10.986   6.876   7.236  0.00  0.00    -0.366 OA
ATOM      9  C   UNL     1      11.133   5.887   6.202  0.00  0.00    +0.167 C 
ATOM     12  C   UNL     1       9.886   5.023   6.280  0.00  0.00    +0.176 C 
ATOM     13  C   UNL     1       9.624   5.002   7.772  0.00  0.00    +0.175 C 
ATOM     14  C   UNL     1       9.986   6.426   8.179  0.00  0.00    +0.158 C 
ENDROOT
BRANCH  12   2
ATOM      2  O   UNL     1      10.094   3.740   5.731  0.00  0.00    -0.387 OA
ATOM     23  H   UNL     1       9.637   3.099   6.302  0.00  0.00    +0.210 HD
ENDBRANCH  12   2
BRANCH  13   3
ATOM      3  O   UNL     1      10.532   4.111   8.422  0.00  0.00    -0.387 OA
ATOM     24  H   UNL     1      11.405   4.238   8.014  0.00  0.00    +0.210 HD
ENDBRANCH  13   3
BRANCH   9  15
ATOM     15  C   UNL     1      11.306   6.573   4.860  0.00  0.00    +0.138 C 
BRANCH  15   6
ATOM      4  O   UNL     1      13.348   8.547   5.485  0.00  0.00    -0.276 OA
ATOM      6  N   UNL     1      12.680   6.570   4.449  0.00  0.00    -0.313 N 
ATOM     16  C   UNL     1      13.586   7.562   4.798  0.00  0.00    +0.216 C 
ATOM     22  H   UNL     1      12.997   5.798   3.870  0.00  0.00    +0.149 HD
BRANCH  16   8
ATOM      8  C   UNL     1      14.964   7.355   4.260  0.00  0.00    +0.075 C 
ATOM     10  C   UNL     1      15.670   8.503   3.599  0.00  0.00    +0.013 C 
ATOM     11  C   UNL     1      16.123   8.019   4.946  0.00  0.00    +0.013 C 
ENDBRANCH  16   8
ENDBRANCH  15   6
ENDBRANCH   9  15
BRANCH  14  17
ATOM     17  C   UNL     1       8.806   7.386   8.101  0.00  0.00    +0.130 C 
BRANCH  17  18
ATOM      5  O   UNL     1       9.698   9.609   8.445  0.00  0.00    -0.276 OA
ATOM      7  N   UNL     1       8.988   8.994   6.323  0.00  0.00    -0.313 N 
ATOM     18  C   UNL     1       9.220   8.782   7.675  0.00  0.00    +0.216 C 
ATOM     25  H   UNL     1       8.613   8.239   5.758  0.00  0.00    +0.149 HD
BRANCH   7  19
ATOM     19  C   UNL     1       9.295  10.236   5.674  0.00  0.00    +0.067 C 
ATOM     20  C   UNL     1       8.019  10.895   5.164  0.00  0.00    +0.027 C 
ATOM     21  C   UNL     1      10.293  10.017   4.543  0.00  0.00    +0.027 C 
ENDBRANCH   7  19
ENDBRANCH  17  18
ENDBRANCH  14  17
TORSDOF 8
ENDMDL
MODEL 10
REMARK VINA RESULT:      -4.8     26.039     27.700
REMARK  Name = 25390419
REMARK  10 active torsions:
REMARK  status: ('A' for Active; 'I' for Inactive)
REMARK    1  A    between atoms: O_2  and  C_12
REMARK    2  A    between atoms: O_3  and  C_13
REMARK    3  A    between atoms: N_6  and  C_15
REMARK    4  A    between atoms: N_7  and  C_19
REMARK    5  A    between atoms: C_8  and  C_16
REMARK    6  A    between atoms: C_9  and  C_15
REMARK    7  A    between atoms: C_14  and  C_17
REMARK    8  A    between atoms: C_17  and  C_18
REMARK    9  A    between atoms: C_19  and  C_20
REMARK   10  A    between atoms: C_19  and  C_21
REMARK                            x       y       z     vdW  Elec       q    Type
REMARK                         _______ _______ _______ _____ _____    ______ ____
ROOT
ATOM      1  O   UNL     1      -4.508 -11.402  13.753  0.00  0.00    -0.366 OA
ATOM      9  C   UNL     1      -3.073 -11.324  13.677  0.00  0.00    +0.167 C 
ATOM     12  C   UNL     1      -2.774 -10.366  12.537  0.00  0.00    +0.176 C 
ATOM     13  C   UNL     1      -3.895 -10.685  11.569  0.00  0.00    +0.175 C 
ATOM     14  C   UNL     1      -5.071 -10.919  12.512  0.00  0.00    +0.158 C 
ENDROOT
BRANCH  12   2
ATOM      2  O   UNL     1      -1.489 -10.575  11.991  0.00  0.00    -0.387 OA
ATOM     23  H   UNL     1      -1.390 -11.528  11.834  0.00  0.00    +0.210 HD
ENDBRANCH  12   2
BRANCH  13   3
ATOM      3  O   UNL     1      -3.626 -11.909  10.886  0.00  0.00    -0.387 OA
ATOM     24  H   UNL     1      -3.136 -11.688  10.076  0.00  0.00    +0.210 HD
ENDBRANCH  13   3
BRANCH   9  15
ATOM     15  C   UNL     1      -2.515 -10.863  15.012  0.00  0.00    +0.138 C 
BRANCH  15   6
ATOM      4  O   UNL     1      -4.513  -9.978  16.930  0.00  0.00    -0.276 OA
ATOM      6  N   UNL     1      -3.077 -11.613  16.096  0.00  0.00    -0.313 N 
ATOM     16  C   UNL     1      -4.031 -11.104  16.966  0.00  0.00    +0.216 C 
ATOM     22  H   UNL     1      -2.753 -12.566  16.229  0.00  0.00    +0.149 HD
BRANCH  16   8
ATOM      8  C   UNL     1      -4.477 -12.061  18.021  0.00  0.00    +0.075 C 
ATOM     10  C   UNL     1      -3.749 -12.094  19.334  0.00  0.00    +0.013 C 
ATOM     11  C   UNL     1      -5.137 -11.529  19.260  0.00  0.00    +0.013 C 
ENDBRANCH  16   8
ENDBRANCH  15   6
ENDBRANCH   9  15
BRANCH  14  17
ATOM     17  C   UNL     1      -5.851  -9.648  12.818  0.00  0.00    +0.130 C 
BRANCH  17  18
ATOM      5  O   UNL     1      -8.208 -10.137  13.074  0.00  0.00    -0.276 OA
ATOM      7  N   UNL     1      -6.893  -9.889  14.971  0.00  0.00    -0.313 N 
ATOM     18  C   UNL     1      -7.121  -9.920  13.603  0.00  0.00    +0.216 C 
ATOM     25  H   UNL     1      -5.952  -9.728  15.316  0.00  0.00    +0.149 HD
BRANCH   7  19
ATOM     19  C   UNL     1      -7.935 -10.116  15.931  0.00  0.00    +0.067 C 
ATOM     20  C   UNL     1      -7.848  -9.094  17.057  0.00  0.00    +0.027 C 
ATOM     21  C   UNL     1      -7.864 -11.540  16.471  0.00  0.00    +0.027 C 
ENDBRANCH   7  19
ENDBRANCH  17  18
ENDBRANCH  14  17
TORSDOF 8
ENDMDL
