MODEL 1
REMARK VINA RESULT:      -7.1      0.000      0.000
REMARK  Name = 9422045
REMARK  3 active torsions:
REMARK  status: ('A' for Active; 'I' for Inactive)
REMARK    1  A    between atoms: N_5  and  C_9
REMARK    2  A    between atoms: N_7  and  C_21
REMARK    3  A    between atoms: C_21  and  C_22
REMARK                            x       y       z     vdW  Elec       q    Type
REMARK                         _______ _______ _______ _____ _____    ______ ____
ROOT
ATOM      1  O   UNL     1      11.920   7.588  22.281  0.00  0.00    -0.273 OA
ATOM      2  O   UNL     1      12.863  12.528  20.551  0.00  0.00    -0.270 OA
ATOM      4  N   UNL     1      12.014  10.392  20.476  0.00  0.00    -0.284 N 
ATOM      6  N   UNL     1      11.626   9.602  23.293  0.00  0.00    -0.283 N 
ATOM      8  C   UNL     1      11.075   9.375  20.904  0.00  0.00    +0.164 C 
ATOM      9  C   UNL     1      12.345   8.566  19.008  0.00  0.00    +0.094 C 
ATOM     10  C   UNL     1      11.006   8.393  19.728  0.00  0.00    +0.056 C 
ATOM     11  C   UNL     1      12.653  10.043  19.213  0.00  0.00    +0.131 C 
ATOM     12  C   UNL     1      11.616   8.779  22.188  0.00  0.00    +0.238 C 
ATOM     13  C   UNL     1      12.170  11.638  21.045  0.00  0.00    +0.249 C 
ATOM     14  C   UNL     1      11.484  11.915  22.334  0.00  0.00    +0.058 A 
ATOM     15  C   UNL     1      11.335  10.980  23.372  0.00  0.00    +0.046 A 
ATOM     17  C   UNL     1      11.122  13.257  22.556  0.00  0.00    +0.015 A 
ATOM     18  C   UNL     1      10.889  11.431  24.628  0.00  0.00    +0.024 A 
ATOM     19  C   UNL     1      10.638  13.674  23.795  0.00  0.00    +0.001 A 
ATOM     20  C   UNL     1      10.534  12.762  24.836  0.00  0.00    +0.002 A 
ATOM     25  H   UNL     1      11.771   9.130  24.183  0.00  0.00    +0.155 HD
ENDROOT
BRANCH   9   5
ATOM      3  O   UNL     1      14.761   7.669  17.710  0.00  0.00    -0.253 OA
ATOM      5  N   UNL     1      13.371   7.725  19.569  0.00  0.00    -0.295 N 
ATOM      7  N   UNL     1      15.336   6.527  19.647  0.00  0.00    -0.296 N 
ATOM     16  C   UNL     1      14.512   7.338  18.868  0.00  0.00    +0.300 C 
ATOM     24  H   UNL     1      13.229   7.344  20.501  0.00  0.00    +0.151 HD
ATOM     26  H   UNL     1      15.057   6.323  20.602  0.00  0.00    +0.151 HD
BRANCH   7  21
ATOM     21  C   UNL     1      16.584   5.986  19.163  0.00  0.00    +0.132 C 
BRANCH  21  22
ATOM     22  C   UNL     1      17.708   6.583  19.941  0.00  0.00    -0.016 C 
ATOM     23  C   UNL     1      18.846   5.937  20.223  0.00  0.00    +0.005 C 
ENDBRANCH  21  22
ENDBRANCH   7  21
ENDBRANCH   9   5
TORSDOF 3
ENDMDL
MODEL 2
REMARK VINA RESULT:      -6.8     16.252     19.563
REMARK  Name = 9422045
REMARK  3 active torsions:
REMARK  status: ('A' for Active; 'I' for Inactive)
REMARK    1  A    between atoms: N_5  and  C_9
REMARK    2  A    between atoms: N_7  and  C_21
REMARK    3  A    between atoms: C_21  and  C_22
REMARK                            x       y       z     vdW  Elec       q    Type
REMARK                         _______ _______ _______ _____ _____    ______ ____
ROOT
ATOM      1  O   UNL     1      12.948   7.193   3.922  0.00  0.00    -0.273 OA
ATOM      2  O   UNL     1      13.222   2.605   1.245  0.00  0.00    -0.270 OA
ATOM      4  N   UNL     1      12.237   4.515   2.064  0.00  0.00    -0.284 N 
ATOM      6  N   UNL     1      14.433   6.465   2.361  0.00  0.00    -0.283 N 
ATOM      8  C   UNL     1      12.042   5.951   2.067  0.00  0.00    +0.164 C 
ATOM      9  C   UNL     1      10.410   4.903   3.516  0.00  0.00    +0.094 C 
ATOM     10  C   UNL     1      10.643   6.150   2.660  0.00  0.00    +0.056 C 
ATOM     11  C   UNL     1      11.154   3.820   2.748  0.00  0.00    +0.131 C 
ATOM     12  C   UNL     1      13.163   6.552   2.891  0.00  0.00    +0.238 C 
ATOM     13  C   UNL     1      13.196   3.832   1.346  0.00  0.00    +0.249 C 
ATOM     14  C   UNL     1      14.266   4.616   0.676  0.00  0.00    +0.058 A 
ATOM     15  C   UNL     1      14.867   5.765   1.217  0.00  0.00    +0.046 A 
ATOM     17  C   UNL     1      14.799   4.043  -0.494  0.00  0.00    +0.015 A 
ATOM     18  C   UNL     1      16.029   6.271   0.606  0.00  0.00    +0.024 A 
ATOM     19  C   UNL     1      15.924   4.588  -1.111  0.00  0.00    +0.001 A 
ATOM     20  C   UNL     1      16.548   5.695  -0.553  0.00  0.00    +0.002 A 
ATOM     25  H   UNL     1      15.127   7.063   2.803  0.00  0.00    +0.155 HD
ENDROOT
BRANCH   9   5
ATOM      3  O   UNL     1       8.927   5.621   5.885  0.00  0.00    -0.253 OA
ATOM      5  N   UNL     1      10.929   5.062   4.851  0.00  0.00    -0.295 N 
ATOM      7  N   UNL     1      10.893   5.497   7.111  0.00  0.00    -0.296 N 
ATOM     16  C   UNL     1      10.138   5.413   5.943  0.00  0.00    +0.300 C 
ATOM     24  H   UNL     1      11.932   4.973   4.993  0.00  0.00    +0.151 HD
ATOM     26  H   UNL     1      11.886   5.286   7.065  0.00  0.00    +0.151 HD
BRANCH   7  21
ATOM     21  C   UNL     1      10.321   5.844   8.390  0.00  0.00    +0.132 C 
BRANCH  21  22
ATOM     22  C   UNL     1       9.751   4.615   9.019  0.00  0.00    -0.016 C 
ATOM     23  C   UNL     1       8.998   4.625  10.125  0.00  0.00    +0.005 C 
ENDBRANCH  21  22
ENDBRANCH   7  21
ENDBRANCH   9   5
TORSDOF 3
ENDMDL
MODEL 3
REMARK VINA RESULT:      -6.7      2.051      7.413
REMARK  Name = 9422045
REMARK  3 active torsions:
REMARK  status: ('A' for Active; 'I' for Inactive)
REMARK    1  A    between atoms: N_5  and  C_9
REMARK    2  A    between atoms: N_7  and  C_21
REMARK    3  A    between atoms: C_21  and  C_22
REMARK                            x       y       z     vdW  Elec       q    Type
REMARK                         _______ _______ _______ _____ _____    ______ ____
ROOT
ATOM      1  O   UNL     1      15.433  10.485  22.835  0.00  0.00    -0.273 OA
ATOM      2  O   UNL     1      13.754   6.541  19.688  0.00  0.00    -0.270 OA
ATOM      4  N   UNL     1      14.066   8.718  20.358  0.00  0.00    -0.284 N 
ATOM      6  N   UNL     1      16.539   8.697  21.970  0.00  0.00    -0.283 N 
ATOM      8  C   UNL     1      14.902   9.883  20.563  0.00  0.00    +0.164 C 
ATOM      9  C   UNL     1      12.580  10.474  20.910  0.00  0.00    +0.094 C 
ATOM     10  C   UNL     1      13.932  11.069  20.511  0.00  0.00    +0.056 C 
ATOM     11  C   UNL     1      12.650   9.062  20.344  0.00  0.00    +0.131 C 
ATOM     12  C   UNL     1      15.600   9.703  21.897  0.00  0.00    +0.238 C 
ATOM     13  C   UNL     1      14.508   7.459  20.011  0.00  0.00    +0.249 C 
ATOM     14  C   UNL     1      15.969   7.190  20.049  0.00  0.00    +0.058 A 
ATOM     15  C   UNL     1      16.848   7.705  21.016  0.00  0.00    +0.046 A 
ATOM     17  C   UNL     1      16.433   6.219  19.141  0.00  0.00    +0.015 A 
ATOM     18  C   UNL     1      18.153   7.184  21.090  0.00  0.00    +0.024 A 
ATOM     19  C   UNL     1      17.745   5.749  19.202  0.00  0.00    +0.001 A 
ATOM     20  C   UNL     1      18.601   6.223  20.186  0.00  0.00    +0.002 A 
ATOM     25  H   UNL     1      17.152   8.736  22.781  0.00  0.00    +0.155 HD
ENDROOT
BRANCH   9   5
ATOM      3  O   UNL     1      10.947  12.277  22.462  0.00  0.00    -0.253 OA
ATOM      5  N   UNL     1      12.395  10.467  22.339  0.00  0.00    -0.295 N 
ATOM      7  N   UNL     1      11.585  11.146  24.384  0.00  0.00    -0.296 N 
ATOM     16  C   UNL     1      11.584  11.380  23.011  0.00  0.00    +0.300 C 
ATOM     24  H   UNL     1      12.929   9.802  22.892  0.00  0.00    +0.151 HD
ATOM     26  H   UNL     1      12.127  10.366  24.745  0.00  0.00    +0.151 HD
BRANCH   7  21
ATOM     21  C   UNL     1      10.827  11.948  25.315  0.00  0.00    +0.132 C 
BRANCH  21  22
ATOM     22  C   UNL     1      11.599  13.184  25.635  0.00  0.00    -0.016 C 
ATOM     23  C   UNL     1      11.034  14.354  25.953  0.00  0.00    +0.005 C 
ENDBRANCH  21  22
ENDBRANCH   7  21
ENDBRANCH   9   5
TORSDOF 3
ENDMDL
MODEL 4
REMARK VINA RESULT:      -6.1      2.846      6.600
REMARK  Name = 9422045
REMARK  3 active torsions:
REMARK  status: ('A' for Active; 'I' for Inactive)
REMARK    1  A    between atoms: N_5  and  C_9
REMARK    2  A    between atoms: N_7  and  C_21
REMARK    3  A    between atoms: C_21  and  C_22
REMARK                            x       y       z     vdW  Elec       q    Type
REMARK                         _______ _______ _______ _____ _____    ______ ____
ROOT
ATOM      1  O   UNL     1      14.063  11.905  21.949  0.00  0.00    -0.273 OA
ATOM      2  O   UNL     1      10.898   7.875  20.525  0.00  0.00    -0.270 OA
ATOM      4  N   UNL     1      11.420   9.967  21.323  0.00  0.00    -0.284 N 
ATOM      6  N   UNL     1      13.977  10.684  20.033  0.00  0.00    -0.283 N 
ATOM      8  C   UNL     1      11.870  11.331  21.132  0.00  0.00    +0.164 C 
ATOM      9  C   UNL     1      11.059  11.049  23.396  0.00  0.00    +0.094 C 
ATOM     10  C   UNL     1      11.265  12.106  22.309  0.00  0.00    +0.056 C 
ATOM     11  C   UNL     1      10.728   9.798  22.595  0.00  0.00    +0.131 C 
ATOM     12  C   UNL     1      13.385  11.304  21.113  0.00  0.00    +0.238 C 
ATOM     13  C   UNL     1      11.438   8.971  20.371  0.00  0.00    +0.249 C 
ATOM     14  C   UNL     1      12.164   9.224  19.099  0.00  0.00    +0.058 A 
ATOM     15  C   UNL     1      13.371   9.937  19.001  0.00  0.00    +0.046 A 
ATOM     17  C   UNL     1      11.668   8.547  17.969  0.00  0.00    +0.015 A 
ATOM     18  C   UNL     1      14.082   9.898  17.788  0.00  0.00    +0.024 A 
ATOM     19  C   UNL     1      12.366   8.559  16.762  0.00  0.00    +0.001 A 
ATOM     20  C   UNL     1      13.581   9.225  16.675  0.00  0.00    +0.002 A 
ATOM     25  H   UNL     1      14.970  10.872  19.917  0.00  0.00    +0.155 HD
ENDROOT
BRANCH   9   5
ATOM      3  O   UNL     1      12.106  12.868  25.377  0.00  0.00    -0.253 OA
ATOM      5  N   UNL     1      12.239  10.870  24.203  0.00  0.00    -0.295 N 
ATOM      7  N   UNL     1      13.839  11.379  25.778  0.00  0.00    -0.296 N 
ATOM     16  C   UNL     1      12.676  11.804  25.140  0.00  0.00    +0.300 C 
ATOM     24  H   UNL     1      12.817  10.050  24.038  0.00  0.00    +0.151 HD
ATOM     26  H   UNL     1      14.226  10.473  25.531  0.00  0.00    +0.151 HD
BRANCH   7  21
ATOM     21  C   UNL     1      14.503  12.158  26.795  0.00  0.00    +0.132 C 
BRANCH  21  22
ATOM     22  C   UNL     1      15.700  11.409  27.280  0.00  0.00    -0.016 C 
ATOM     23  C   UNL     1      15.816  10.908  28.515  0.00  0.00    +0.005 C 
ENDBRANCH  21  22
ENDBRANCH   7  21
ENDBRANCH   9   5
TORSDOF 3
ENDMDL
MODEL 5
REMARK VINA RESULT:      -6.0     26.581     28.971
REMARK  Name = 9422045
REMARK  3 active torsions:
REMARK  status: ('A' for Active; 'I' for Inactive)
REMARK    1  A    between atoms: N_5  and  C_9
REMARK    2  A    between atoms: N_7  and  C_21
REMARK    3  A    between atoms: C_21  and  C_22
REMARK                            x       y       z     vdW  Elec       q    Type
REMARK                         _______ _______ _______ _____ _____    ______ ____
ROOT
ATOM      1  O   UNL     1      -7.320 -11.446  15.566  0.00  0.00    -0.273 OA
ATOM      2  O   UNL     1      -2.184 -10.287  16.318  0.00  0.00    -0.270 OA
ATOM      4  N   UNL     1      -4.105 -11.544  16.451  0.00  0.00    -0.284 N 
ATOM      6  N   UNL     1      -5.717 -10.765  14.104  0.00  0.00    -0.283 N 
ATOM      8  C   UNL     1      -5.122 -12.389  15.858  0.00  0.00    +0.164 C 
ATOM      9  C   UNL     1      -5.388 -12.359  18.264  0.00  0.00    +0.094 C 
ATOM     10  C   UNL     1      -5.668 -13.215  17.028  0.00  0.00    +0.056 C 
ATOM     11  C   UNL     1      -4.085 -11.659  17.904  0.00  0.00    +0.131 C 
ATOM     12  C   UNL     1      -6.140 -11.472  15.209  0.00  0.00    +0.238 C 
ATOM     13  C   UNL     1      -3.124 -10.860  15.766  0.00  0.00    +0.249 C 
ATOM     14  C   UNL     1      -3.216 -10.791  14.285  0.00  0.00    +0.058 A 
ATOM     15  C   UNL     1      -4.417 -10.658  13.568  0.00  0.00    +0.046 A 
ATOM     17  C   UNL     1      -1.989 -10.688  13.602  0.00  0.00    +0.015 A 
ATOM     18  C   UNL     1      -4.355 -10.358  12.194  0.00  0.00    +0.024 A 
ATOM     19  C   UNL     1      -1.950 -10.436  12.231  0.00  0.00    +0.001 A 
ATOM     20  C   UNL     1      -3.135 -10.259  11.529  0.00  0.00    +0.002 A 
ATOM     25  H   UNL     1      -6.459 -10.341  13.552  0.00  0.00    +0.155 HD
ENDROOT
BRANCH   9   5
ATOM      3  O   UNL     1      -7.856 -12.855  19.675  0.00  0.00    -0.253 OA
ATOM      5  N   UNL     1      -6.447 -11.417  18.518  0.00  0.00    -0.295 N 
ATOM      7  N   UNL     1      -8.465 -10.646  19.314  0.00  0.00    -0.296 N 
ATOM     16  C   UNL     1      -7.612 -11.742  19.211  0.00  0.00    +0.300 C 
ATOM     24  H   UNL     1      -6.371 -10.484  18.121  0.00  0.00    +0.151 HD
ATOM     26  H   UNL     1      -8.169  -9.759  18.917  0.00  0.00    +0.151 HD
BRANCH   7  21
ATOM     21  C   UNL     1      -9.742 -10.708  19.984  0.00  0.00    +0.132 C 
BRANCH  21  22
ATOM     22  C   UNL     1     -10.799 -10.180  19.071  0.00  0.00    -0.016 C 
ATOM     23  C   UNL     1     -10.576  -9.257  18.128  0.00  0.00    +0.005 C 
ENDBRANCH  21  22
ENDBRANCH   7  21
ENDBRANCH   9   5
TORSDOF 3
ENDMDL
MODEL 6
REMARK VINA RESULT:      -6.0     27.191     28.358
REMARK  Name = 9422045
REMARK  3 active torsions:
REMARK  status: ('A' for Active; 'I' for Inactive)
REMARK    1  A    between atoms: N_5  and  C_9
REMARK    2  A    between atoms: N_7  and  C_21
REMARK    3  A    between atoms: C_21  and  C_22
REMARK                            x       y       z     vdW  Elec       q    Type
REMARK                         _______ _______ _______ _____ _____    ______ ____
ROOT
ATOM      1  O   UNL     1      -6.209 -10.725  14.964  0.00  0.00    -0.273 OA
ATOM      2  O   UNL     1      -1.688 -10.311  12.194  0.00  0.00    -0.270 OA
ATOM      4  N   UNL     1      -3.378 -11.383  13.327  0.00  0.00    -0.284 N 
ATOM      6  N   UNL     1      -5.753  -9.659  13.008  0.00  0.00    -0.283 N 
ATOM      8  C   UNL     1      -4.740 -11.864  13.431  0.00  0.00    +0.164 C 
ATOM      9  C   UNL     1      -3.427 -12.729  15.272  0.00  0.00    +0.094 C 
ATOM     10  C   UNL     1      -4.663 -13.031  14.423  0.00  0.00    +0.056 C 
ATOM     11  C   UNL     1      -2.496 -12.040  14.283  0.00  0.00    +0.131 C 
ATOM     12  C   UNL     1      -5.591 -10.700  13.898  0.00  0.00    +0.238 C 
ATOM     13  C   UNL     1      -2.886 -10.562  12.334  0.00  0.00    +0.249 C 
ATOM     14  C   UNL     1      -3.851  -9.932  11.397  0.00  0.00    +0.058 A 
ATOM     15  C   UNL     1      -5.119  -9.451  11.766  0.00  0.00    +0.046 A 
ATOM     17  C   UNL     1      -3.361  -9.666  10.104  0.00  0.00    +0.015 A 
ATOM     18  C   UNL     1      -5.835  -8.660  10.849  0.00  0.00    +0.024 A 
ATOM     19  C   UNL     1      -4.107  -8.919   9.194  0.00  0.00    +0.001 A 
ATOM     20  C   UNL     1      -5.340  -8.404   9.572  0.00  0.00    +0.002 A 
ATOM     25  H   UNL     1      -6.498  -9.006  13.239  0.00  0.00    +0.155 HD
ENDROOT
BRANCH   9   5
ATOM      3  O   UNL     1      -4.924 -13.442  17.633  0.00  0.00    -0.253 OA
ATOM      5  N   UNL     1      -3.737 -11.879  16.393  0.00  0.00    -0.295 N 
ATOM      7  N   UNL     1      -4.624 -11.284  18.432  0.00  0.00    -0.296 N 
ATOM     16  C   UNL     1      -4.471 -12.306  17.498  0.00  0.00    +0.300 C 
ATOM     24  H   UNL     1      -3.461 -10.901  16.350  0.00  0.00    +0.151 HD
ATOM     26  H   UNL     1      -4.195 -10.383  18.244  0.00  0.00    +0.151 HD
BRANCH   7  21
ATOM     21  C   UNL     1      -5.343 -11.459  19.672  0.00  0.00    +0.132 C 
BRANCH  21  22
ATOM     22  C   UNL     1      -6.595 -10.648  19.627  0.00  0.00    -0.016 C 
ATOM     23  C   UNL     1      -7.735 -11.066  19.063  0.00  0.00    +0.005 C 
ENDBRANCH  21  22
ENDBRANCH   7  21
ENDBRANCH   9   5
TORSDOF 3
ENDMDL
MODEL 7
REMARK VINA RESULT:      -6.0     17.749     20.059
REMARK  Name = 9422045
REMARK  3 active torsions:
REMARK  status: ('A' for Active; 'I' for Inactive)
REMARK    1  A    between atoms: N_5  and  C_9
REMARK    2  A    between atoms: N_7  and  C_21
REMARK    3  A    between atoms: C_21  and  C_22
REMARK                            x       y       z     vdW  Elec       q    Type
REMARK                         _______ _______ _______ _____ _____    ______ ____
ROOT
ATOM      1  O   UNL     1       9.654   6.997   0.927  0.00  0.00    -0.273 OA
ATOM      2  O   UNL     1       9.979   3.749   5.126  0.00  0.00    -0.270 OA
ATOM      4  N   UNL     1      10.747   4.939   3.314  0.00  0.00    -0.284 N 
ATOM      6  N   UNL     1       8.930   7.252   3.067  0.00  0.00    -0.283 N 
ATOM      8  C   UNL     1      11.111   6.181   2.664  0.00  0.00    +0.164 C 
ATOM      9  C   UNL     1      11.776   4.309   1.279  0.00  0.00    +0.094 C 
ATOM     10  C   UNL     1      12.116   5.770   1.581  0.00  0.00    +0.056 C 
ATOM     11  C   UNL     1      11.311   3.782   2.629  0.00  0.00    +0.131 C 
ATOM     12  C   UNL     1       9.833   6.797   2.130  0.00  0.00    +0.238 C 
ATOM     13  C   UNL     1      10.122   4.822   4.537  0.00  0.00    +0.249 C 
ATOM     14  C   UNL     1       9.576   6.049   5.170  0.00  0.00    +0.058 A 
ATOM     15  C   UNL     1       8.958   7.098   4.469  0.00  0.00    +0.046 A 
ATOM     17  C   UNL     1       9.543   6.047   6.578  0.00  0.00    +0.015 A 
ATOM     18  C   UNL     1       8.266   8.084   5.197  0.00  0.00    +0.024 A 
ATOM     19  C   UNL     1       8.892   7.059   7.282  0.00  0.00    +0.001 A 
ATOM     20  C   UNL     1       8.241   8.071   6.590  0.00  0.00    +0.002 A 
ATOM     25  H   UNL     1       8.200   7.860   2.704  0.00  0.00    +0.155 HD
ENDROOT
BRANCH   9   5
ATOM      3  O   UNL     1      12.087   4.584  -1.577  0.00  0.00    -0.253 OA
ATOM      5  N   UNL     1      10.746   4.192   0.278  0.00  0.00    -0.295 N 
ATOM      7  N   UNL     1       9.817   4.178  -1.828  0.00  0.00    -0.296 N 
ATOM     16  C   UNL     1      10.985   4.341  -1.087  0.00  0.00    +0.300 C 
ATOM     24  H   UNL     1       9.787   4.055   0.584  0.00  0.00    +0.151 HD
ATOM     26  H   UNL     1       8.955   3.958  -1.337  0.00  0.00    +0.151 HD
BRANCH   7  21
ATOM     21  C   UNL     1       9.782   4.280  -3.268  0.00  0.00    +0.132 C 
BRANCH  21  22
ATOM     22  C   UNL     1      10.063   2.939  -3.859  0.00  0.00    -0.016 C 
ATOM     23  C   UNL     1       9.312   1.854  -3.636  0.00  0.00    +0.005 C 
ENDBRANCH  21  22
ENDBRANCH   7  21
ENDBRANCH   9   5
TORSDOF 3
ENDMDL
MODEL 8
REMARK VINA RESULT:      -5.9     27.874     30.682
REMARK  Name = 9422045
REMARK  3 active torsions:
REMARK  status: ('A' for Active; 'I' for Inactive)
REMARK    1  A    between atoms: N_5  and  C_9
REMARK    2  A    between atoms: N_7  and  C_21
REMARK    3  A    between atoms: C_21  and  C_22
REMARK                            x       y       z     vdW  Elec       q    Type
REMARK                         _______ _______ _______ _____ _____    ______ ____
ROOT
ATOM      1  O   UNL     1     -16.079   6.411  31.263  0.00  0.00    -0.273 OA
ATOM      2  O   UNL     1     -13.574   1.987  32.825  0.00  0.00    -0.270 OA
ATOM      4  N   UNL     1     -15.026   3.763  32.996  0.00  0.00    -0.284 N 
ATOM      6  N   UNL     1     -15.807   4.407  30.224  0.00  0.00    -0.283 N 
ATOM      8  C   UNL     1     -16.254   4.446  32.645  0.00  0.00    +0.164 C 
ATOM      9  C   UNL     1     -15.177   5.596  34.484  0.00  0.00    +0.094 C 
ATOM     10  C   UNL     1     -16.546   5.356  33.844  0.00  0.00    +0.056 C 
ATOM     11  C   UNL     1     -14.448   4.284  34.229  0.00  0.00    +0.131 C 
ATOM     12  C   UNL     1     -16.000   5.184  31.346  0.00  0.00    +0.238 C 
ATOM     13  C   UNL     1     -14.533   2.626  32.391  0.00  0.00    +0.249 C 
ATOM     14  C   UNL     1     -15.180   2.158  31.138  0.00  0.00    +0.058 A 
ATOM     15  C   UNL     1     -15.670   3.006  30.131  0.00  0.00    +0.046 A 
ATOM     17  C   UNL     1     -15.129   0.770  30.907  0.00  0.00    +0.015 A 
ATOM     18  C   UNL     1     -16.033   2.446  28.892  0.00  0.00    +0.024 A 
ATOM     19  C   UNL     1     -15.538   0.230  29.689  0.00  0.00    +0.001 A 
ATOM     20  C   UNL     1     -15.979   1.071  28.676  0.00  0.00    +0.002 A 
ATOM     25  H   UNL     1     -15.868   4.905  29.339  0.00  0.00    +0.155 HD
ENDROOT
BRANCH   9   5
ATOM      3  O   UNL     1     -13.012   7.125  35.625  0.00  0.00    -0.253 OA
ATOM      5  N   UNL     1     -14.492   6.713  33.884  0.00  0.00    -0.295 N 
ATOM      7  N   UNL     1     -12.970   8.431  33.708  0.00  0.00    -0.296 N 
ATOM     16  C   UNL     1     -13.451   7.398  34.509  0.00  0.00    +0.300 C 
ATOM     24  H   UNL     1     -14.822   7.058  32.987  0.00  0.00    +0.151 HD
ATOM     26  H   UNL     1     -13.382   8.568  32.789  0.00  0.00    +0.151 HD
BRANCH   7  21
ATOM     21  C   UNL     1     -11.891   9.299  34.115  0.00  0.00    +0.132 C 
BRANCH  21  22
ATOM     22  C   UNL     1     -10.956   9.487  32.967  0.00  0.00    -0.016 C 
ATOM     23  C   UNL     1     -11.163   8.981  31.746  0.00  0.00    +0.005 C 
ENDBRANCH  21  22
ENDBRANCH   7  21
ENDBRANCH   9   5
TORSDOF 3
ENDMDL
MODEL 9
REMARK VINA RESULT:      -5.9      3.385      7.373
REMARK  Name = 9422045
REMARK  3 active torsions:
REMARK  status: ('A' for Active; 'I' for Inactive)
REMARK    1  A    between atoms: N_5  and  C_9
REMARK    2  A    between atoms: N_7  and  C_21
REMARK    3  A    between atoms: C_21  and  C_22
REMARK                            x       y       z     vdW  Elec       q    Type
REMARK                         _______ _______ _______ _____ _____    ______ ____
ROOT
ATOM      1  O   UNL     1      14.972  11.205  23.916  0.00  0.00    -0.273 OA
ATOM      2  O   UNL     1      10.513   8.571  22.703  0.00  0.00    -0.270 OA
ATOM      4  N   UNL     1      11.885  10.402  22.939  0.00  0.00    -0.284 N 
ATOM      6  N   UNL     1      14.632   9.371  22.616  0.00  0.00    -0.283 N 
ATOM      8  C   UNL     1      13.006  11.219  22.522  0.00  0.00    +0.164 C 
ATOM      9  C   UNL     1      11.750  12.373  24.240  0.00  0.00    +0.094 C 
ATOM     10  C   UNL     1      12.681  12.620  23.052  0.00  0.00    +0.056 C 
ATOM     11  C   UNL     1      10.976  11.133  23.813  0.00  0.00    +0.131 C 
ATOM     12  C   UNL     1      14.256  10.599  23.116  0.00  0.00    +0.238 C 
ATOM     13  C   UNL     1      11.563   9.158  22.439  0.00  0.00    +0.249 C 
ATOM     14  C   UNL     1      12.543   8.479  21.552  0.00  0.00    +0.058 A 
ATOM     15  C   UNL     1      13.937   8.530  21.721  0.00  0.00    +0.046 A 
ATOM     17  C   UNL     1      11.996   7.605  20.594  0.00  0.00    +0.015 A 
ATOM     18  C   UNL     1      14.742   7.653  20.971  0.00  0.00    +0.024 A 
ATOM     19  C   UNL     1      12.815   6.777  19.827  0.00  0.00    +0.001 A 
ATOM     20  C   UNL     1      14.189   6.792  20.025  0.00  0.00    +0.002 A 
ATOM     25  H   UNL     1      15.578   9.080  22.852  0.00  0.00    +0.155 HD
ENDROOT
BRANCH   9   5
ATOM      3  O   UNL     1      13.049  14.363  25.877  0.00  0.00    -0.253 OA
ATOM      5  N   UNL     1      12.481  12.150  25.461  0.00  0.00    -0.295 N 
ATOM      7  N   UNL     1      13.721  12.681  27.327  0.00  0.00    -0.296 N 
ATOM     16  C   UNL     1      13.081  13.174  26.192  0.00  0.00    +0.300 C 
ATOM     24  H   UNL     1      12.620  11.193  25.774  0.00  0.00    +0.151 HD
ATOM     26  H   UNL     1      13.676  11.684  27.517  0.00  0.00    +0.151 HD
BRANCH   7  21
ATOM     21  C   UNL     1      14.423  13.529  28.260  0.00  0.00    +0.132 C 
BRANCH  21  22
ATOM     22  C   UNL     1      14.943  12.694  29.383  0.00  0.00    -0.016 C 
ATOM     23  C   UNL     1      14.281  12.487  30.527  0.00  0.00    +0.005 C 
ENDBRANCH  21  22
ENDBRANCH   7  21
ENDBRANCH   9   5
TORSDOF 3
ENDMDL
MODEL 10
REMARK VINA RESULT:      -5.9     26.622     28.635
REMARK  Name = 9422045
REMARK  3 active torsions:
REMARK  status: ('A' for Active; 'I' for Inactive)
REMARK    1  A    between atoms: N_5  and  C_9
REMARK    2  A    between atoms: N_7  and  C_21
REMARK    3  A    between atoms: C_21  and  C_22
REMARK                            x       y       z     vdW  Elec       q    Type
REMARK                         _______ _______ _______ _____ _____    ______ ____
ROOT
ATOM      1  O   UNL     1      -5.672  -9.153  16.143  0.00  0.00    -0.273 OA
ATOM      2  O   UNL     1      -8.997 -13.035  17.616  0.00  0.00    -0.270 OA
ATOM      4  N   UNL     1      -7.113 -11.720  17.714  0.00  0.00    -0.284 N 
ATOM      6  N   UNL     1      -7.907  -9.122  16.560  0.00  0.00    -0.283 N 
ATOM      8  C   UNL     1      -6.442 -10.470  18.009  0.00  0.00    +0.164 C 
ATOM      9  C   UNL     1      -4.800 -12.184  17.525  0.00  0.00    +0.094 C 
ATOM     10  C   UNL     1      -4.987 -10.869  18.285  0.00  0.00    +0.056 C 
ATOM     11  C   UNL     1      -6.174 -12.832  17.625  0.00  0.00    +0.131 C 
ATOM     12  C   UNL     1      -6.627  -9.569  16.804  0.00  0.00    +0.238 C 
ATOM     13  C   UNL     1      -8.476 -11.923  17.711  0.00  0.00    +0.249 C 
ATOM     14  C   UNL     1      -9.366 -10.736  17.807  0.00  0.00    +0.058 A 
ATOM     15  C   UNL     1      -9.111  -9.500  17.191  0.00  0.00    +0.046 A 
ATOM     17  C   UNL     1     -10.612 -10.957  18.424  0.00  0.00    +0.015 A 
ATOM     18  C   UNL     1     -10.139  -8.540  17.151  0.00  0.00    +0.024 A 
ATOM     19  C   UNL     1     -11.601  -9.974  18.414  0.00  0.00    +0.001 A 
ATOM     20  C   UNL     1     -11.368  -8.769  17.765  0.00  0.00    +0.002 A 
ATOM     25  H   UNL     1      -7.977  -8.350  15.901  0.00  0.00    +0.155 HD
ENDROOT
BRANCH   9   5
ATOM      3  O   UNL     1      -2.370 -10.946  16.581  0.00  0.00    -0.253 OA
ATOM      5  N   UNL     1      -4.414 -11.963  16.154  0.00  0.00    -0.295 N 
ATOM      7  N   UNL     1      -3.095 -11.268  14.400  0.00  0.00    -0.296 N 
ATOM     16  C   UNL     1      -3.216 -11.354  15.785  0.00  0.00    +0.300 C 
ATOM     24  H   UNL     1      -5.073 -12.208  15.420  0.00  0.00    +0.151 HD
ATOM     26  H   UNL     1      -3.837 -11.652  13.822  0.00  0.00    +0.151 HD
BRANCH   7  21
ATOM     21  C   UNL     1      -1.949 -10.680  13.749  0.00  0.00    +0.132 C 
BRANCH  21  22
ATOM     22  C   UNL     1      -2.006 -10.986  12.290  0.00  0.00    -0.016 C 
ATOM     23  C   UNL     1      -2.681 -10.249  11.400  0.00  0.00    +0.005 C 
ENDBRANCH  21  22
ENDBRANCH   7  21
ENDBRANCH   9   5
TORSDOF 3
ENDMDL
