MODEL 1
REMARK VINA RESULT:      -6.5      0.000      0.000
REMARK  Name = 28961586
REMARK  7 active torsions:
REMARK  status: ('A' for Active; 'I' for Inactive)
REMARK    1  A    between atoms: O_2  and  C_13
REMARK    2  A    between atoms: O_3  and  C_20
REMARK    3  A    between atoms: N_6  and  C_11
REMARK    4  A    between atoms: N_8  and  C_17
REMARK    5  A    between atoms: C_12  and  C_17
REMARK    6  A    between atoms: C_14  and  C_20
REMARK    7  A    between atoms: C_22  and  C_23
REMARK                            x       y       z     vdW  Elec       q    Type
REMARK                         _______ _______ _______ _____ _____    ______ ____
ROOT
ATOM      1  O   UNL     1      12.519   9.471  21.702  0.00  0.00    -0.365 OA
ATOM     11  C   UNL     1      14.568   8.269  21.859  0.00  0.00    +0.118 C 
ATOM     12  C   UNL     1      13.950   9.650  21.607  0.00  0.00    +0.155 C 
ATOM     13  C   UNL     1      13.460   7.316  21.435  0.00  0.00    +0.165 C 
ATOM     14  C   UNL     1      12.233   8.076  21.923  0.00  0.00    +0.174 C 
ENDROOT
BRANCH  11   6
ATOM      6  N   UNL     1      15.863   8.023  21.249  0.00  0.00    -0.292 NA
ATOM      7  N   UNL     1      18.625   7.298  21.198  0.00  0.00    -0.297 N 
ATOM      9  N   UNL     1      20.862   7.909  21.483  0.00  0.00    -0.223 NA
ATOM     10  N   UNL     1      20.267   5.792  20.498  0.00  0.00    -0.223 NA
ATOM     15  C   UNL     1      16.877   8.922  21.816  0.00  0.00    +0.104 C 
ATOM     16  C   UNL     1      16.268   6.627  21.445  0.00  0.00    +0.104 C 
ATOM     18  C   UNL     1      18.234   8.712  21.141  0.00  0.00    +0.123 C 
ATOM     19  C   UNL     1      17.606   6.340  20.759  0.00  0.00    +0.123 C 
ATOM     21  C   UNL     1      19.982   6.985  21.054  0.00  0.00    +0.218 A 
ATOM     24  C   UNL     1      22.159   7.575  21.328  0.00  0.00    +0.116 A 
ATOM     25  C   UNL     1      21.583   5.521  20.374  0.00  0.00    +0.116 A 
ATOM     26  C   UNL     1      22.583   6.384  20.775  0.00  0.00    +0.039 A 
ENDBRANCH  11   6
BRANCH  13   2
ATOM      2  O   UNL     1      13.419   7.161  20.022  0.00  0.00    -0.388 OA
ATOM     30  H   UNL     1      13.977   7.856  19.634  0.00  0.00    +0.210 HD
ENDBRANCH  13   2
BRANCH  12  17
ATOM     17  C   UNL     1      14.236  10.290  20.253  0.00  0.00    +0.137 C 
BRANCH  17   8
ATOM      4  O   UNL     1      14.624  10.069  17.417  0.00  0.00    -0.267 OA
ATOM      8  N   UNL     1      13.256   9.902  19.283  0.00  0.00    -0.306 N 
ATOM     22  C   UNL     1      13.531   9.820  17.921  0.00  0.00    +0.279 C 
ATOM     31  H   UNL     1      12.317   9.692  19.609  0.00  0.00    +0.149 HD
BRANCH  22  23
ATOM      5  O   UNL     1      11.376   8.728  17.599  0.00  0.00    -0.458 OA
ATOM     23  C   UNL     1      12.399   9.429  17.043  0.00  0.00    +0.189 A 
ATOM     27  C   UNL     1      12.165   9.646  15.705  0.00  0.00    +0.054 A 
ATOM     28  C   UNL     1      10.918   9.039  15.421  0.00  0.00    +0.042 A 
ATOM     29  C   UNL     1      10.479   8.495  16.606  0.00  0.00    +0.196 A 
ENDBRANCH  22  23
ENDBRANCH  17   8
ENDBRANCH  12  17
BRANCH  14  20
ATOM     20  C   UNL     1      10.927   7.719  21.236  0.00  0.00    +0.190 C 
BRANCH  20   3
ATOM      3  O   UNL     1      10.672   8.668  20.214  0.00  0.00    -0.392 OA
ATOM     32  H   UNL     1      11.330   8.519  19.513  0.00  0.00    +0.210 HD
ENDBRANCH  20   3
ENDBRANCH  14  20
TORSDOF 7
ENDMDL
MODEL 2
REMARK VINA RESULT:      -6.4      2.690      3.678
REMARK  Name = 28961586
REMARK  7 active torsions:
REMARK  status: ('A' for Active; 'I' for Inactive)
REMARK    1  A    between atoms: O_2  and  C_13
REMARK    2  A    between atoms: O_3  and  C_20
REMARK    3  A    between atoms: N_6  and  C_11
REMARK    4  A    between atoms: N_8  and  C_17
REMARK    5  A    between atoms: C_12  and  C_17
REMARK    6  A    between atoms: C_14  and  C_20
REMARK    7  A    between atoms: C_22  and  C_23
REMARK                            x       y       z     vdW  Elec       q    Type
REMARK                         _______ _______ _______ _____ _____    ______ ____
ROOT
ATOM      1  O   UNL     1      10.907   7.613  20.410  0.00  0.00    -0.365 OA
ATOM     11  C   UNL     1      12.949   8.685  21.003  0.00  0.00    +0.118 C 
ATOM     12  C   UNL     1      11.855   8.593  19.931  0.00  0.00    +0.155 C 
ATOM     13  C   UNL     1      12.889   7.319  21.671  0.00  0.00    +0.165 C 
ATOM     14  C   UNL     1      11.386   7.062  21.652  0.00  0.00    +0.174 C 
ENDROOT
BRANCH  11   6
ATOM      6  N   UNL     1      14.265   9.092  20.544  0.00  0.00    -0.292 NA
ATOM      7  N   UNL     1      16.748  10.498  20.667  0.00  0.00    -0.297 N 
ATOM      9  N   UNL     1      17.963  12.456  20.282  0.00  0.00    -0.223 NA
ATOM     10  N   UNL     1      19.072  10.402  20.879  0.00  0.00    -0.223 NA
ATOM     15  C   UNL     1      14.308  10.545  20.329  0.00  0.00    +0.104 C 
ATOM     16  C   UNL     1      15.293   8.702  21.516  0.00  0.00    +0.104 C 
ATOM     18  C   UNL     1      15.673  10.979  19.791  0.00  0.00    +0.123 C 
ATOM     19  C   UNL     1      16.692   9.076  21.019  0.00  0.00    +0.123 C 
ATOM     21  C   UNL     1      17.986  11.150  20.607  0.00  0.00    +0.218 A 
ATOM     24  C   UNL     1      19.171  13.053  20.234  0.00  0.00    +0.116 A 
ATOM     25  C   UNL     1      20.248  11.061  20.812  0.00  0.00    +0.116 A 
ATOM     26  C   UNL     1      20.359  12.399  20.491  0.00  0.00    +0.039 A 
ENDBRANCH  11   6
BRANCH  13   2
ATOM      2  O   UNL     1      13.569   6.334  20.904  0.00  0.00    -0.388 OA
ATOM     30  H   UNL     1      13.153   6.306  20.026  0.00  0.00    +0.210 HD
ENDBRANCH  13   2
BRANCH  12  17
ATOM     17  C   UNL     1      12.296   8.151  18.540  0.00  0.00    +0.137 C 
BRANCH  17   8
ATOM      4  O   UNL     1      13.780   8.066  16.083  0.00  0.00    -0.267 OA
ATOM      8  N   UNL     1      12.711   9.273  17.751  0.00  0.00    -0.306 N 
ATOM     22  C   UNL     1      13.430   9.140  16.566  0.00  0.00    +0.279 C 
ATOM     31  H   UNL     1      12.477  10.204  18.083  0.00  0.00    +0.149 HD
BRANCH  22  23
ATOM      5  O   UNL     1      13.222  10.674  14.683  0.00  0.00    -0.458 OA
ATOM     23  C   UNL     1      13.806  10.402  15.880  0.00  0.00    +0.189 A 
ATOM     27  C   UNL     1      14.675  11.408  16.232  0.00  0.00    +0.054 A 
ATOM     28  C   UNL     1      14.622  12.359  15.185  0.00  0.00    +0.042 A 
ATOM     29  C   UNL     1      13.724  11.865  14.267  0.00  0.00    +0.196 A 
ENDBRANCH  22  23
ENDBRANCH  17   8
ENDBRANCH  12  17
BRANCH  14  20
ATOM     20  C   UNL     1      10.971   5.605  21.747  0.00  0.00    +0.190 C 
BRANCH  20   3
ATOM      3  O   UNL     1      11.112   5.005  20.470  0.00  0.00    -0.392 OA
ATOM     32  H   UNL     1      10.816   5.658  19.812  0.00  0.00    +0.210 HD
ENDBRANCH  20   3
ENDBRANCH  14  20
TORSDOF 7
ENDMDL
MODEL 3
REMARK VINA RESULT:      -6.0      3.069      5.290
REMARK  Name = 28961586
REMARK  7 active torsions:
REMARK  status: ('A' for Active; 'I' for Inactive)
REMARK    1  A    between atoms: O_2  and  C_13
REMARK    2  A    between atoms: O_3  and  C_20
REMARK    3  A    between atoms: N_6  and  C_11
REMARK    4  A    between atoms: N_8  and  C_17
REMARK    5  A    between atoms: C_12  and  C_17
REMARK    6  A    between atoms: C_14  and  C_20
REMARK    7  A    between atoms: C_22  and  C_23
REMARK                            x       y       z     vdW  Elec       q    Type
REMARK                         _______ _______ _______ _____ _____    ______ ____
ROOT
ATOM      1  O   UNL     1      10.642   7.718  20.264  0.00  0.00    -0.365 OA
ATOM     11  C   UNL     1      12.227   9.248  21.165  0.00  0.00    +0.118 C 
ATOM     12  C   UNL     1      11.531   8.789  19.877  0.00  0.00    +0.155 C 
ATOM     13  C   UNL     1      12.176   8.007  22.043  0.00  0.00    +0.165 C 
ATOM     14  C   UNL     1      10.804   7.455  21.671  0.00  0.00    +0.174 C 
ENDROOT
BRANCH  11   6
ATOM      6  N   UNL     1      13.544   9.841  21.008  0.00  0.00    -0.292 NA
ATOM      7  N   UNL     1      15.611  11.757  21.467  0.00  0.00    -0.297 N 
ATOM      9  N   UNL     1      16.575  13.824  20.961  0.00  0.00    -0.223 NA
ATOM     10  N   UNL     1      17.727  12.220  22.340  0.00  0.00    -0.223 NA
ATOM     15  C   UNL     1      13.435  11.198  20.456  0.00  0.00    +0.104 C 
ATOM     16  C   UNL     1      14.247   9.881  22.295  0.00  0.00    +0.104 C 
ATOM     18  C   UNL     1      14.818  11.812  20.232  0.00  0.00    +0.123 C 
ATOM     19  C   UNL     1      15.658  10.453  22.134  0.00  0.00    +0.123 C 
ATOM     21  C   UNL     1      16.688  12.643  21.596  0.00  0.00    +0.218 A 
ATOM     24  C   UNL     1      17.629  14.652  21.106  0.00  0.00    +0.116 A 
ATOM     25  C   UNL     1      18.747  13.097  22.444  0.00  0.00    +0.116 A 
ATOM     26  C   UNL     1      18.754  14.339  21.843  0.00  0.00    +0.039 A 
ENDBRANCH  11   6
BRANCH  13   2
ATOM      2  O   UNL     1      13.194   7.079  21.693  0.00  0.00    -0.388 OA
ATOM     30  H   UNL     1      13.788   7.518  21.061  0.00  0.00    +0.210 HD
ENDBRANCH  13   2
BRANCH  12  17
ATOM     17  C   UNL     1      12.430   8.252  18.769  0.00  0.00    +0.137 C 
BRANCH  17   8
ATOM      4  O   UNL     1      14.686   7.299  17.268  0.00  0.00    -0.267 OA
ATOM      8  N   UNL     1      13.668   7.762  19.301  0.00  0.00    -0.306 N 
ATOM     22  C   UNL     1      14.714   7.319  18.497  0.00  0.00    +0.279 C 
ATOM     31  H   UNL     1      13.774   7.728  20.310  0.00  0.00    +0.149 HD
BRANCH  22  23
ATOM      5  O   UNL     1      16.100   7.192  20.497  0.00  0.00    -0.458 OA
ATOM     23  C   UNL     1      15.920   6.817  19.204  0.00  0.00    +0.189 A 
ATOM     27  C   UNL     1      16.948   6.003  18.789  0.00  0.00    +0.054 A 
ATOM     28  C   UNL     1      17.816   5.869  19.899  0.00  0.00    +0.042 A 
ATOM     29  C   UNL     1      17.256   6.612  20.913  0.00  0.00    +0.196 A 
ENDBRANCH  22  23
ENDBRANCH  17   8
ENDBRANCH  12  17
BRANCH  14  20
ATOM     20  C   UNL     1      10.603   5.973  21.930  0.00  0.00    +0.190 C 
BRANCH  20   3
ATOM      3  O   UNL     1      11.105   5.243  20.823  0.00  0.00    -0.392 OA
ATOM     32  H   UNL     1      10.437   4.573  20.596  0.00  0.00    +0.210 HD
ENDBRANCH  20   3
ENDBRANCH  14  20
TORSDOF 7
ENDMDL
MODEL 4
REMARK VINA RESULT:      -5.9     29.036     31.923
REMARK  Name = 28961586
REMARK  7 active torsions:
REMARK  status: ('A' for Active; 'I' for Inactive)
REMARK    1  A    between atoms: O_2  and  C_13
REMARK    2  A    between atoms: O_3  and  C_20
REMARK    3  A    between atoms: N_6  and  C_11
REMARK    4  A    between atoms: N_8  and  C_17
REMARK    5  A    between atoms: C_12  and  C_17
REMARK    6  A    between atoms: C_14  and  C_20
REMARK    7  A    between atoms: C_22  and  C_23
REMARK                            x       y       z     vdW  Elec       q    Type
REMARK                         _______ _______ _______ _____ _____    ______ ____
ROOT
ATOM      1  O   UNL     1     -10.387 -11.737  17.691  0.00  0.00    -0.365 OA
ATOM     11  C   UNL     1     -11.407  -9.823  16.710  0.00  0.00    +0.118 C 
ATOM     12  C   UNL     1     -10.664 -11.131  16.409  0.00  0.00    +0.155 C 
ATOM     13  C   UNL     1     -10.927  -9.472  18.111  0.00  0.00    +0.165 C 
ATOM     14  C   UNL     1     -10.846 -10.859  18.737  0.00  0.00    +0.174 C 
ENDROOT
BRANCH  11   6
ATOM      6  N   UNL     1     -11.270  -8.765  15.725  0.00  0.00    -0.292 NA
ATOM      7  N   UNL     1     -12.186  -6.759  13.910  0.00  0.00    -0.297 N 
ATOM      9  N   UNL     1     -12.997  -6.192  11.794  0.00  0.00    -0.223 NA
ATOM     10  N   UNL     1     -12.314  -4.493  13.359  0.00  0.00    -0.223 NA
ATOM     15  C   UNL     1     -11.926  -9.145  14.467  0.00  0.00    +0.104 C 
ATOM     16  C   UNL     1     -11.847  -7.514  16.230  0.00  0.00    +0.104 C 
ATOM     18  C   UNL     1     -11.739  -8.063  13.402  0.00  0.00    +0.123 C 
ATOM     19  C   UNL     1     -11.660  -6.376  15.223  0.00  0.00    +0.123 C 
ATOM     21  C   UNL     1     -12.515  -5.769  12.977  0.00  0.00    +0.218 A 
ATOM     24  C   UNL     1     -13.304  -5.212  10.920  0.00  0.00    +0.116 A 
ATOM     25  C   UNL     1     -12.642  -3.564  12.437  0.00  0.00    +0.116 A 
ATOM     26  C   UNL     1     -13.146  -3.868  11.189  0.00  0.00    +0.039 A 
ENDBRANCH  11   6
BRANCH  13   2
ATOM      2  O   UNL     1      -9.642  -8.864  18.083  0.00  0.00    -0.388 OA
ATOM     30  H   UNL     1      -8.985  -9.559  18.254  0.00  0.00    +0.210 HD
ENDBRANCH  13   2
BRANCH  12  17
ATOM     17  C   UNL     1      -9.336 -11.009  15.671  0.00  0.00    +0.137 C 
BRANCH  17   8
ATOM      4  O   UNL     1      -7.091  -9.447  16.548  0.00  0.00    -0.267 OA
ATOM      8  N   UNL     1      -8.248 -11.457  16.490  0.00  0.00    -0.306 N 
ATOM     22  C   UNL     1      -7.196 -10.628  16.870  0.00  0.00    +0.279 C 
ATOM     31  H   UNL     1      -8.245 -12.427  16.791  0.00  0.00    +0.149 HD
BRANCH  22  23
ATOM      5  O   UNL     1      -5.809 -12.548  17.446  0.00  0.00    -0.458 OA
ATOM     23  C   UNL     1      -6.133 -11.252  17.698  0.00  0.00    +0.189 A 
ATOM     27  C   UNL     1      -5.367 -10.754  18.726  0.00  0.00    +0.054 A 
ATOM     28  C   UNL     1      -4.518 -11.811  19.132  0.00  0.00    +0.042 A 
ATOM     29  C   UNL     1      -4.827 -12.881  18.323  0.00  0.00    +0.196 A 
ENDBRANCH  22  23
ENDBRANCH  17   8
ENDBRANCH  12  17
BRANCH  14  20
ATOM     20  C   UNL     1      -9.922 -10.982  19.935  0.00  0.00    +0.190 C 
BRANCH  20   3
ATOM      3  O   UNL     1     -10.231  -9.952  20.859  0.00  0.00    -0.392 OA
ATOM     32  H   UNL     1     -11.161 -10.070  21.120  0.00  0.00    +0.210 HD
ENDBRANCH  20   3
ENDBRANCH  14  20
TORSDOF 7
ENDMDL
MODEL 5
REMARK VINA RESULT:      -5.8     26.739     30.114
REMARK  Name = 28961586
REMARK  7 active torsions:
REMARK  status: ('A' for Active; 'I' for Inactive)
REMARK    1  A    between atoms: O_2  and  C_13
REMARK    2  A    between atoms: O_3  and  C_20
REMARK    3  A    between atoms: N_6  and  C_11
REMARK    4  A    between atoms: N_8  and  C_17
REMARK    5  A    between atoms: C_12  and  C_17
REMARK    6  A    between atoms: C_14  and  C_20
REMARK    7  A    between atoms: C_22  and  C_23
REMARK                            x       y       z     vdW  Elec       q    Type
REMARK                         _______ _______ _______ _____ _____    ______ ____
ROOT
ATOM      1  O   UNL     1      -3.295 -12.167  15.396  0.00  0.00    -0.365 OA
ATOM     11  C   UNL     1      -5.001 -11.866  17.029  0.00  0.00    +0.118 C 
ATOM     12  C   UNL     1      -4.641 -12.580  15.719  0.00  0.00    +0.155 C 
ATOM     13  C   UNL     1      -4.113 -10.631  17.001  0.00  0.00    +0.165 C 
ATOM     14  C   UNL     1      -2.849 -11.208  16.374  0.00  0.00    +0.174 C 
ENDROOT
BRANCH  11   6
ATOM      6  N   UNL     1      -6.413 -11.609  17.253  0.00  0.00    -0.292 NA
ATOM      7  N   UNL     1      -8.841 -11.525  18.755  0.00  0.00    -0.297 N 
ATOM      9  N   UNL     1     -10.736 -12.627  19.561  0.00  0.00    -0.223 NA
ATOM     10  N   UNL     1     -10.520 -10.234  19.739  0.00  0.00    -0.223 NA
ATOM     15  C   UNL     1      -7.113 -12.852  17.602  0.00  0.00    +0.104 C 
ATOM     16  C   UNL     1      -6.593 -10.618  18.320  0.00  0.00    +0.104 C 
ATOM     18  C   UNL     1      -8.612 -12.604  17.785  0.00  0.00    +0.123 C 
ATOM     19  C   UNL     1      -8.075 -10.296  18.529  0.00  0.00    +0.123 C 
ATOM     21  C   UNL     1     -10.091 -11.460  19.381  0.00  0.00    +0.218 A 
ATOM     24  C   UNL     1     -11.937 -12.527  20.167  0.00  0.00    +0.116 A 
ATOM     25  C   UNL     1     -11.727 -10.206  20.340  0.00  0.00    +0.116 A 
ATOM     26  C   UNL     1     -12.488 -11.332  20.583  0.00  0.00    +0.039 A 
ENDBRANCH  11   6
BRANCH  13   2
ATOM      2  O   UNL     1      -4.660  -9.616  16.168  0.00  0.00    -0.388 OA
ATOM     30  H   UNL     1      -5.625  -9.631  16.282  0.00  0.00    +0.210 HD
ENDBRANCH  13   2
BRANCH  12  17
ATOM     17  C   UNL     1      -5.512 -12.267  14.508  0.00  0.00    +0.137 C 
BRANCH  17   8
ATOM      4  O   UNL     1      -6.519 -10.335  12.638  0.00  0.00    -0.267 OA
ATOM      8  N   UNL     1      -4.762 -11.582  13.497  0.00  0.00    -0.306 N 
ATOM     22  C   UNL     1      -5.333 -10.656  12.629  0.00  0.00    +0.279 C 
ATOM     31  H   UNL     1      -3.774 -11.798  13.407  0.00  0.00    +0.149 HD
BRANCH  22  23
ATOM      5  O   UNL     1      -3.089 -10.256  11.765  0.00  0.00    -0.458 OA
ATOM     23  C   UNL     1      -4.425 -10.054  11.620  0.00  0.00    +0.189 A 
ATOM     27  C   UNL     1      -4.679  -9.290  10.504  0.00  0.00    +0.054 A 
ATOM     28  C   UNL     1      -3.419  -9.004   9.927  0.00  0.00    +0.042 A 
ATOM     29  C   UNL     1      -2.484  -9.615  10.732  0.00  0.00    +0.196 A 
ENDBRANCH  22  23
ENDBRANCH  17   8
ENDBRANCH  12  17
BRANCH  14  20
ATOM     20  C   UNL     1      -1.933 -10.199  15.706  0.00  0.00    +0.190 C 
BRANCH  20   3
ATOM      3  O   UNL     1      -2.290 -10.092  14.338  0.00  0.00    -0.392 OA
ATOM     32  H   UNL     1      -1.525 -10.392  13.817  0.00  0.00    +0.210 HD
ENDBRANCH  20   3
ENDBRANCH  14  20
TORSDOF 7
ENDMDL
MODEL 6
REMARK VINA RESULT:      -5.7      1.803      2.355
REMARK  Name = 28961586
REMARK  7 active torsions:
REMARK  status: ('A' for Active; 'I' for Inactive)
REMARK    1  A    between atoms: O_2  and  C_13
REMARK    2  A    between atoms: O_3  and  C_20
REMARK    3  A    between atoms: N_6  and  C_11
REMARK    4  A    between atoms: N_8  and  C_17
REMARK    5  A    between atoms: C_12  and  C_17
REMARK    6  A    between atoms: C_14  and  C_20
REMARK    7  A    between atoms: C_22  and  C_23
REMARK                            x       y       z     vdW  Elec       q    Type
REMARK                         _______ _______ _______ _____ _____    ______ ____
ROOT
ATOM      1  O   UNL     1      11.564   8.650  20.364  0.00  0.00    -0.365 OA
ATOM     11  C   UNL     1      13.846   8.582  21.039  0.00  0.00    +0.118 C 
ATOM     12  C   UNL     1      12.886   9.046  19.935  0.00  0.00    +0.155 C 
ATOM     13  C   UNL     1      13.102   7.415  21.670  0.00  0.00    +0.165 C 
ATOM     14  C   UNL     1      11.668   7.925  21.604  0.00  0.00    +0.174 C 
ENDROOT
BRANCH  11   6
ATOM      6  N   UNL     1      15.209   8.297  20.627  0.00  0.00    -0.292 NA
ATOM      7  N   UNL     1      17.928   7.500  20.986  0.00  0.00    -0.297 N 
ATOM      9  N   UNL     1      20.115   8.055  21.594  0.00  0.00    -0.223 NA
ATOM     10  N   UNL     1      19.613   5.945  20.542  0.00  0.00    -0.223 NA
ATOM     15  C   UNL     1      16.153   9.174  21.332  0.00  0.00    +0.104 C 
ATOM     16  C   UNL     1      15.543   6.892  20.887  0.00  0.00    +0.104 C 
ATOM     18  C   UNL     1      17.588   8.924  20.865  0.00  0.00    +0.123 C 
ATOM     19  C   UNL     1      16.959   6.565  20.406  0.00  0.00    +0.123 C 
ATOM     21  C   UNL     1      19.282   7.151  21.044  0.00  0.00    +0.218 A 
ATOM     24  C   UNL     1      21.411   7.685  21.633  0.00  0.00    +0.116 A 
ATOM     25  C   UNL     1      20.926   5.640  20.614  0.00  0.00    +0.116 A 
ATOM     26  C   UNL     1      21.880   6.479  21.153  0.00  0.00    +0.039 A 
ENDBRANCH  11   6
BRANCH  13   2
ATOM      2  O   UNL     1      13.242   6.229  20.898  0.00  0.00    -0.388 OA
ATOM     30  H   UNL     1      12.936   6.427  19.997  0.00  0.00    +0.210 HD
ENDBRANCH  13   2
BRANCH  12  17
ATOM     17  C   UNL     1      13.106   8.456  18.546  0.00  0.00    +0.137 C 
BRANCH  17   8
ATOM      4  O   UNL     1      12.688   8.761  15.722  0.00  0.00    -0.267 OA
ATOM      8  N   UNL     1      13.751   9.399  17.682  0.00  0.00    -0.306 N 
ATOM     22  C   UNL     1      13.487   9.479  16.318  0.00  0.00    +0.279 C 
ATOM     31  H   UNL     1      14.441  10.025  18.088  0.00  0.00    +0.149 HD
BRANCH  22  23
ATOM      5  O   UNL     1      15.140  10.051  14.621  0.00  0.00    -0.458 OA
ATOM     23  C   UNL     1      14.260  10.493  15.557  0.00  0.00    +0.189 A 
ATOM     27  C   UNL     1      14.262  11.868  15.611  0.00  0.00    +0.054 A 
ATOM     28  C   UNL     1      15.205  12.298  14.647  0.00  0.00    +0.042 A 
ATOM     29  C   UNL     1      15.712  11.155  14.072  0.00  0.00    +0.196 A 
ENDBRANCH  22  23
ENDBRANCH  17   8
ENDBRANCH  12  17
BRANCH  14  20
ATOM     20  C   UNL     1      10.591   6.857  21.651  0.00  0.00    +0.190 C 
BRANCH  20   3
ATOM      3  O   UNL     1       9.474   7.363  22.364  0.00  0.00    -0.392 OA
ATOM     32  H   UNL     1       8.693   6.868  22.062  0.00  0.00    +0.210 HD
ENDBRANCH  20   3
ENDBRANCH  14  20
TORSDOF 7
ENDMDL
MODEL 7
REMARK VINA RESULT:      -5.7     27.842     29.731
REMARK  Name = 28961586
REMARK  7 active torsions:
REMARK  status: ('A' for Active; 'I' for Inactive)
REMARK    1  A    between atoms: O_2  and  C_13
REMARK    2  A    between atoms: O_3  and  C_20
REMARK    3  A    between atoms: N_6  and  C_11
REMARK    4  A    between atoms: N_8  and  C_17
REMARK    5  A    between atoms: C_12  and  C_17
REMARK    6  A    between atoms: C_14  and  C_20
REMARK    7  A    between atoms: C_22  and  C_23
REMARK                            x       y       z     vdW  Elec       q    Type
REMARK                         _______ _______ _______ _____ _____    ______ ____
ROOT
ATOM      1  O   UNL     1      -2.678 -11.196  14.074  0.00  0.00    -0.365 OA
ATOM     11  C   UNL     1      -3.408 -10.514  11.914  0.00  0.00    +0.118 C 
ATOM     12  C   UNL     1      -3.683 -10.392  13.418  0.00  0.00    +0.155 C 
ATOM     13  C   UNL     1      -2.705 -11.859  11.803  0.00  0.00    +0.165 C 
ATOM     14  C   UNL     1      -1.867 -11.845  13.076  0.00  0.00    +0.174 C 
ENDROOT
BRANCH  11   6
ATOM      6  N   UNL     1      -4.551 -10.339  11.035  0.00  0.00    -0.292 NA
ATOM      7  N   UNL     1      -6.104  -9.075   8.999  0.00  0.00    -0.297 N 
ATOM      9  N   UNL     1      -7.624  -7.412   8.380  0.00  0.00    -0.223 NA
ATOM     10  N   UNL     1      -7.033  -9.185   6.859  0.00  0.00    -0.223 NA
ATOM     15  C   UNL     1      -5.204  -9.048  11.293  0.00  0.00    +0.104 C 
ATOM     16  C   UNL     1      -4.138 -10.417   9.630  0.00  0.00    +0.104 C 
ATOM     18  C   UNL     1      -6.444  -8.876  10.413  0.00  0.00    +0.123 C 
ATOM     19  C   UNL     1      -5.342 -10.289   8.693  0.00  0.00    +0.123 C 
ATOM     21  C   UNL     1      -6.961  -8.531   8.034  0.00  0.00    +0.218 A 
ATOM     24  C   UNL     1      -8.440  -6.916   7.428  0.00  0.00    +0.116 A 
ATOM     25  C   UNL     1      -7.867  -8.634   5.952  0.00  0.00    +0.116 A 
ATOM     26  C   UNL     1      -8.604  -7.490   6.184  0.00  0.00    +0.039 A 
ENDBRANCH  11   6
BRANCH  13   2
ATOM      2  O   UNL     1      -3.634 -12.936  11.833  0.00  0.00    -0.388 OA
ATOM     30  H   UNL     1      -4.231 -12.788  12.585  0.00  0.00    +0.210 HD
ENDBRANCH  13   2
BRANCH  12  17
ATOM     17  C   UNL     1      -5.042 -10.880  13.907  0.00  0.00    +0.137 C 
BRANCH  17   8
ATOM      4  O   UNL     1      -5.794  -9.270  16.162  0.00  0.00    -0.267 OA
ATOM      8  N   UNL     1      -4.987 -11.261  15.287  0.00  0.00    -0.306 N 
ATOM     22  C   UNL     1      -5.374 -10.413  16.321  0.00  0.00    +0.279 C 
ATOM     31  H   UNL     1      -4.637 -12.187  15.514  0.00  0.00    +0.149 HD
BRANCH  22  23
ATOM      5  O   UNL     1      -4.125 -11.685  17.984  0.00  0.00    -0.458 OA
ATOM     23  C   UNL     1      -5.231 -10.949  17.699  0.00  0.00    +0.189 A 
ATOM     27  C   UNL     1      -6.039 -10.843  18.807  0.00  0.00    +0.054 A 
ATOM     28  C   UNL     1      -5.388 -11.560  19.839  0.00  0.00    +0.042 A 
ATOM     29  C   UNL     1      -4.228 -12.054  19.287  0.00  0.00    +0.196 A 
ENDBRANCH  22  23
ENDBRANCH  17   8
ENDBRANCH  12  17
BRANCH  14  20
ATOM     20  C   UNL     1      -1.435 -13.207  13.589  0.00  0.00    +0.190 C 
BRANCH  20   3
ATOM      3  O   UNL     1      -2.346 -13.630  14.589  0.00  0.00    -0.392 OA
ATOM     32  H   UNL     1      -1.824 -13.834  15.384  0.00  0.00    +0.210 HD
ENDBRANCH  20   3
ENDBRANCH  14  20
TORSDOF 7
ENDMDL
MODEL 8
REMARK VINA RESULT:      -5.6     26.792     30.532
REMARK  Name = 28961586
REMARK  7 active torsions:
REMARK  status: ('A' for Active; 'I' for Inactive)
REMARK    1  A    between atoms: O_2  and  C_13
REMARK    2  A    between atoms: O_3  and  C_20
REMARK    3  A    between atoms: N_6  and  C_11
REMARK    4  A    between atoms: N_8  and  C_17
REMARK    5  A    between atoms: C_12  and  C_17
REMARK    6  A    between atoms: C_14  and  C_20
REMARK    7  A    between atoms: C_22  and  C_23
REMARK                            x       y       z     vdW  Elec       q    Type
REMARK                         _______ _______ _______ _____ _____    ______ ____
ROOT
ATOM      1  O   UNL     1      -6.237 -12.927  17.989  0.00  0.00    -0.365 OA
ATOM     11  C   UNL     1      -7.889 -11.228  17.759  0.00  0.00    +0.118 C 
ATOM     12  C   UNL     1      -7.356 -12.538  17.162  0.00  0.00    +0.155 C 
ATOM     13  C   UNL     1      -6.666 -10.646  18.452  0.00  0.00    +0.165 C 
ATOM     14  C   UNL     1      -6.016 -11.916  18.991  0.00  0.00    +0.174 C 
ENDROOT
BRANCH  11   6
ATOM      6  N   UNL     1      -8.564 -10.330  16.839  0.00  0.00    -0.292 NA
ATOM      7  N   UNL     1     -10.662  -8.613  15.940  0.00  0.00    -0.297 N 
ATOM      9  N   UNL     1     -12.747  -8.364  14.918  0.00  0.00    -0.223 NA
ATOM     10  N   UNL     1     -11.352  -6.454  15.377  0.00  0.00    -0.223 NA
ATOM     15  C   UNL     1      -9.859 -10.890  16.431  0.00  0.00    +0.104 C 
ATOM     16  C   UNL     1      -8.762  -9.014  17.455  0.00  0.00    +0.104 C 
ATOM     18  C   UNL     1     -10.555  -9.981  15.417  0.00  0.00    +0.123 C 
ATOM     19  C   UNL     1      -9.423  -8.040  16.476  0.00  0.00    +0.123 C 
ATOM     21  C   UNL     1     -11.633  -7.771  15.386  0.00  0.00    +0.218 A 
ATOM     24  C   UNL     1     -13.661  -7.524  14.391  0.00  0.00    +0.116 A 
ATOM     25  C   UNL     1     -12.309  -5.671  14.836  0.00  0.00    +0.116 A 
ATOM     26  C   UNL     1     -13.495  -6.155  14.323  0.00  0.00    +0.039 A 
ENDBRANCH  11   6
BRANCH  13   2
ATOM      2  O   UNL     1      -5.800 -10.001  17.527  0.00  0.00    -0.388 OA
ATOM     30  H   UNL     1      -6.166  -9.118  17.349  0.00  0.00    +0.210 HD
ENDBRANCH  13   2
BRANCH  12  17
ATOM     17  C   UNL     1      -6.856 -12.479  15.723  0.00  0.00    +0.137 C 
BRANCH  17   8
ATOM      4  O   UNL     1      -5.751 -10.214  14.348  0.00  0.00    -0.267 OA
ATOM      8  N   UNL     1      -5.476 -12.098  15.673  0.00  0.00    -0.306 N 
ATOM     22  C   UNL     1      -5.025 -10.978  14.979  0.00  0.00    +0.279 C 
ATOM     31  H   UNL     1      -4.800 -12.683  16.155  0.00  0.00    +0.149 HD
BRANCH  22  23
ATOM      5  O   UNL     1      -2.969 -10.528  16.209  0.00  0.00    -0.458 OA
ATOM     23  C   UNL     1      -3.560 -10.735  15.003  0.00  0.00    +0.189 A 
ATOM     27  C   UNL     1      -2.629 -10.676  13.992  0.00  0.00    +0.054 A 
ATOM     28  C   UNL     1      -1.386 -10.415  14.617  0.00  0.00    +0.042 A 
ATOM     29  C   UNL     1      -1.647 -10.334  15.966  0.00  0.00    +0.196 A 
ENDBRANCH  22  23
ENDBRANCH  17   8
ENDBRANCH  12  17
BRANCH  14  20
ATOM     20  C   UNL     1      -4.530 -11.816  19.283  0.00  0.00    +0.190 C 
BRANCH  20   3
ATOM      3  O   UNL     1      -3.809 -12.298  18.162  0.00  0.00    -0.392 OA
ATOM     32  H   UNL     1      -4.415 -12.278  17.401  0.00  0.00    +0.210 HD
ENDBRANCH  20   3
ENDBRANCH  14  20
TORSDOF 7
ENDMDL
MODEL 9
REMARK VINA RESULT:      -5.6     27.766     30.777
REMARK  Name = 28961586
REMARK  7 active torsions:
REMARK  status: ('A' for Active; 'I' for Inactive)
REMARK    1  A    between atoms: O_2  and  C_13
REMARK    2  A    between atoms: O_3  and  C_20
REMARK    3  A    between atoms: N_6  and  C_11
REMARK    4  A    between atoms: N_8  and  C_17
REMARK    5  A    between atoms: C_12  and  C_17
REMARK    6  A    between atoms: C_14  and  C_20
REMARK    7  A    between atoms: C_22  and  C_23
REMARK                            x       y       z     vdW  Elec       q    Type
REMARK                         _______ _______ _______ _____ _____    ______ ____
ROOT
ATOM      1  O   UNL     1      -9.661  -8.082   5.323  0.00  0.00    -0.365 OA
ATOM     11  C   UNL     1      -7.996  -9.139   6.656  0.00  0.00    +0.118 C 
ATOM     12  C   UNL     1      -9.194  -8.182   6.687  0.00  0.00    +0.155 C 
ATOM     13  C   UNL     1      -7.480  -8.995   5.232  0.00  0.00    +0.165 C 
ATOM     14  C   UNL     1      -8.792  -8.850   4.470  0.00  0.00    +0.174 C 
ENDROOT
BRANCH  11   6
ATOM      6  N   UNL     1      -7.000  -8.957   7.696  0.00  0.00    -0.292 NA
ATOM      7  N   UNL     1      -5.294  -9.759   9.843  0.00  0.00    -0.297 N 
ATOM      9  N   UNL     1      -5.011 -10.196  12.120  0.00  0.00    -0.223 NA
ATOM     10  N   UNL     1      -3.121 -10.093  10.629  0.00  0.00    -0.223 NA
ATOM     15  C   UNL     1      -7.565  -9.282   9.013  0.00  0.00    +0.104 C 
ATOM     16  C   UNL     1      -5.824  -9.795   7.437  0.00  0.00    +0.104 C 
ATOM     18  C   UNL     1      -6.543  -9.039  10.124  0.00  0.00    +0.123 C 
ATOM     19  C   UNL     1      -4.743  -9.571   8.497  0.00  0.00    +0.123 C 
ATOM     21  C   UNL     1      -4.436 -10.029  10.914  0.00  0.00    +0.218 A 
ATOM     24  C   UNL     1      -4.155 -10.455  13.129  0.00  0.00    +0.116 A 
ATOM     25  C   UNL     1      -2.321 -10.355  11.684  0.00  0.00    +0.116 A 
ATOM     26  C   UNL     1      -2.787 -10.546  12.969  0.00  0.00    +0.039 A 
ENDBRANCH  11   6
BRANCH  13   2
ATOM      2  O   UNL     1      -6.688  -7.823   5.081  0.00  0.00    -0.388 OA
ATOM     30  H   UNL     1      -6.199  -7.904   4.245  0.00  0.00    +0.210 HD
ENDBRANCH  13   2
BRANCH  12  17
ATOM     17  C   UNL     1      -8.923  -6.764   7.177  0.00  0.00    +0.137 C 
BRANCH  17   8
ATOM      4  O   UNL     1      -9.036  -4.354   8.734  0.00  0.00    -0.267 OA
ATOM      8  N   UNL     1     -10.082  -6.208   7.810  0.00  0.00    -0.306 N 
ATOM     22  C   UNL     1     -10.046  -5.028   8.549  0.00  0.00    +0.279 C 
ATOM     31  H   UNL     1     -10.961  -6.708   7.723  0.00  0.00    +0.149 HD
BRANCH  22  23
ATOM      5  O   UNL     1     -12.460  -5.259   8.803  0.00  0.00    -0.458 OA
ATOM     23  C   UNL     1     -11.328  -4.599   9.165  0.00  0.00    +0.189 A 
ATOM     27  C   UNL     1     -11.616  -3.612  10.079  0.00  0.00    +0.054 A 
ATOM     28  C   UNL     1     -13.014  -3.670  10.293  0.00  0.00    +0.042 A 
ATOM     29  C   UNL     1     -13.481  -4.688   9.494  0.00  0.00    +0.196 A 
ENDBRANCH  22  23
ENDBRANCH  17   8
ENDBRANCH  12  17
BRANCH  14  20
ATOM     20  C   UNL     1      -8.690  -8.171   3.116  0.00  0.00    +0.190 C 
BRANCH  20   3
ATOM      3  O   UNL     1      -8.614  -6.769   3.312  0.00  0.00    -0.392 OA
ATOM     32  H   UNL     1      -9.439  -6.495   3.750  0.00  0.00    +0.210 HD
ENDBRANCH  20   3
ENDBRANCH  14  20
TORSDOF 7
ENDMDL
MODEL 10
REMARK VINA RESULT:      -5.5     27.795     31.088
REMARK  Name = 28961586
REMARK  7 active torsions:
REMARK  status: ('A' for Active; 'I' for Inactive)
REMARK    1  A    between atoms: O_2  and  C_13
REMARK    2  A    between atoms: O_3  and  C_20
REMARK    3  A    between atoms: N_6  and  C_11
REMARK    4  A    between atoms: N_8  and  C_17
REMARK    5  A    between atoms: C_12  and  C_17
REMARK    6  A    between atoms: C_14  and  C_20
REMARK    7  A    between atoms: C_22  and  C_23
REMARK                            x       y       z     vdW  Elec       q    Type
REMARK                         _______ _______ _______ _____ _____    ______ ____
ROOT
ATOM      1  O   UNL     1      -3.646 -11.385  17.529  0.00  0.00    -0.365 OA
ATOM     11  C   UNL     1      -5.816 -10.419  17.693  0.00  0.00    +0.118 C 
ATOM     12  C   UNL     1      -4.867 -11.462  18.298  0.00  0.00    +0.155 C 
ATOM     13  C   UNL     1      -5.322 -10.298  16.259  0.00  0.00    +0.165 C 
ATOM     14  C   UNL     1      -3.817 -10.426  16.467  0.00  0.00    +0.174 C 
ENDROOT
BRANCH  11   6
ATOM      6  N   UNL     1      -7.236 -10.682  17.838  0.00  0.00    -0.292 NA
ATOM      7  N   UNL     1      -9.920 -10.131  18.645  0.00  0.00    -0.297 N 
ATOM      9  N   UNL     1     -11.556 -10.156  20.312  0.00  0.00    -0.223 NA
ATOM     10  N   UNL     1     -12.125  -9.678  18.020  0.00  0.00    -0.223 NA
ATOM     15  C   UNL     1      -7.609 -10.725  19.258  0.00  0.00    +0.104 C 
ATOM     16  C   UNL     1      -8.024  -9.654  17.147  0.00  0.00    +0.104 C 
ATOM     18  C   UNL     1      -9.093 -11.058  19.426  0.00  0.00    +0.123 C 
ATOM     19  C   UNL     1      -9.522  -9.950  17.245  0.00  0.00    +0.123 C 
ATOM     21  C   UNL     1     -11.263  -9.981  19.010  0.00  0.00    +0.218 A 
ATOM     24  C   UNL     1     -12.858 -10.004  20.629  0.00  0.00    +0.116 A 
ATOM     25  C   UNL     1     -13.410  -9.541  18.406  0.00  0.00    +0.116 A 
ATOM     26  C   UNL     1     -13.839  -9.694  19.709  0.00  0.00    +0.039 A 
ENDBRANCH  11   6
BRANCH  13   2
ATOM      2  O   UNL     1      -5.802 -11.365  15.451  0.00  0.00    -0.388 OA
ATOM     30  H   UNL     1      -6.259 -10.973  14.688  0.00  0.00    +0.210 HD
ENDBRANCH  13   2
BRANCH  12  17
ATOM     17  C   UNL     1      -5.333 -12.913  18.261  0.00  0.00    +0.137 C 
BRANCH  17   8
ATOM      4  O   UNL     1      -6.041 -14.387  15.900  0.00  0.00    -0.267 OA
ATOM      8  N   UNL     1      -4.458 -13.715  17.458  0.00  0.00    -0.306 N 
ATOM     22  C   UNL     1      -4.888 -14.398  16.323  0.00  0.00    +0.279 C 
ATOM     31  H   UNL     1      -3.487 -13.795  17.743  0.00  0.00    +0.149 HD
BRANCH  22  23
ATOM      5  O   UNL     1      -3.184 -14.622  14.594  0.00  0.00    -0.458 OA
ATOM     23  C   UNL     1      -3.863 -15.207  15.616  0.00  0.00    +0.189 A 
ATOM     27  C   UNL     1      -3.437 -16.503  15.799  0.00  0.00    +0.054 A 
ATOM     28  C   UNL     1      -2.433 -16.728  14.826  0.00  0.00    +0.042 A 
ATOM     29  C   UNL     1      -2.317 -15.553  14.119  0.00  0.00    +0.196 A 
ENDBRANCH  22  23
ENDBRANCH  17   8
ENDBRANCH  12  17
BRANCH  14  20
ATOM     20  C   UNL     1      -3.025 -10.876  15.253  0.00  0.00    +0.190 C 
BRANCH  20   3
ATOM      3  O   UNL     1      -2.303 -12.050  15.586  0.00  0.00    -0.392 OA
ATOM     32  H   UNL     1      -1.622 -12.171  14.903  0.00  0.00    +0.210 HD
ENDBRANCH  20   3
ENDBRANCH  14  20
TORSDOF 7
ENDMDL
