MODEL 1
REMARK VINA RESULT:      -7.3      0.000      0.000
REMARK  Name = 45361513
REMARK  12 active torsions:
REMARK  status: ('A' for Active; 'I' for Inactive)
REMARK    1  A    between atoms: O_1  and  C_11
REMARK    2  A    between atoms: N_5  and  C_15
REMARK    3  A    between atoms: N_6  and  C_25
REMARK    4  A    between atoms: N_7  and  C_27
REMARK    5  A    between atoms: C_8  and  C_18
REMARK    6  A    between atoms: C_10  and  C_20
REMARK    7  A    between atoms: C_14  and  C_19
REMARK    8  A    between atoms: C_19  and  C_21
REMARK    9  A    between atoms: C_19  and  C_22
REMARK   10  A    between atoms: C_23  and  C_24
REMARK   11  A    between atoms: C_24  and  C_26
REMARK   12  A    between atoms: C_25  and  C_27
REMARK                            x       y       z     vdW  Elec       q    Type
REMARK                         _______ _______ _______ _____ _____    ______ ____
ROOT
ATOM      8  C   UNL     1      -3.315 -10.522  11.518  0.00  0.00    -0.027 C 
ATOM      9  C   UNL     1      -4.670 -10.102  12.180  0.00  0.00    +0.028 C 
ATOM     10  C   UNL     1      -4.917 -10.905  13.508  0.00  0.00    +0.012 C 
ATOM     11  C   UNL     1      -5.836 -10.140  11.150  0.00  0.00    +0.122 C 
ATOM     12  C   UNL     1      -3.050  -9.637  10.278  0.00  0.00    +0.007 C 
ATOM     13  C   UNL     1      -2.167 -10.279  12.525  0.00  0.00    +0.009 C 
ATOM     14  C   UNL     1      -5.522  -9.338   9.866  0.00  0.00    +0.029 C 
ATOM     15  C   UNL     1      -3.720 -10.713  14.482  0.00  0.00    +0.076 C 
ATOM     16  C   UNL     1      -4.172  -9.702   9.250  0.00  0.00    +0.007 C 
ATOM     17  C   UNL     1      -2.364 -11.012  13.844  0.00  0.00    +0.023 C 
ATOM     18  C   UNL     1      -3.304 -12.009  11.080  0.00  0.00    +0.011 C 
ATOM     20  C   UNL     1      -6.221 -10.519  14.227  0.00  0.00    +0.010 C 
ENDROOT
BRANCH  15   5
ATOM      3  O   UNL     1      -4.373  -9.806  17.133  0.00  0.00    -0.275 OA
ATOM      5  N   UNL     1      -3.859 -11.531  15.669  0.00  0.00    -0.312 N 
ATOM     23  C   UNL     1      -4.178 -10.997  16.907  0.00  0.00    +0.218 C 
ATOM     37  H   UNL     1      -3.650 -12.521  15.586  0.00  0.00    +0.149 HD
BRANCH  23  24
ATOM     24  C   UNL     1      -4.264 -12.076  17.969  0.00  0.00    +0.130 C 
BRANCH  24  26
ATOM     26  C   UNL     1      -5.678 -12.450  18.326  0.00  0.00    -0.039 A 
ATOM     28  C   UNL     1      -6.397 -13.321  17.507  0.00  0.00    +0.004 A 
ATOM     29  C   UNL     1      -6.269 -11.926  19.476  0.00  0.00    +0.004 A 
ATOM     32  C   UNL     1      -7.707 -13.668  17.838  0.00  0.00    +0.000 A 
ATOM     33  C   UNL     1      -7.579 -12.273  19.808  0.00  0.00    +0.000 A 
ATOM     36  C   UNL     1      -8.298 -13.144  18.988  0.00  0.00    +0.000 A 
ENDBRANCH  24  26
ENDBRANCH  23  24
ENDBRANCH  15   5
BRANCH  11   1
ATOM      1  O   UNL     1      -7.002  -9.549  11.727  0.00  0.00    -0.391 OA
ATOM     38  H   UNL     1      -6.918  -8.584  11.653  0.00  0.00    +0.210 HD
ENDBRANCH  11   1
BRANCH  14  19
ATOM     19  C   UNL     1      -6.625  -9.495   8.812  0.00  0.00    +0.077 C 
ATOM     21  C   UNL     1      -6.012  -9.560   7.417  0.00  0.00    +0.017 C 
BRANCH  19  22
ATOM      2  O   UNL     1      -8.548  -8.351   9.737  0.00  0.00    -0.276 OA
ATOM      6  N   UNL     1      -7.363  -7.324   8.027  0.00  0.00    -0.314 N 
ATOM     22  C   UNL     1      -7.622  -8.348   8.928  0.00  0.00    +0.216 C 
ATOM     39  H   UNL     1      -6.586  -7.413   7.380  0.00  0.00    +0.149 HD
BRANCH   6  25
ATOM     25  C   UNL     1      -8.173  -6.130   7.946  0.00  0.00    +0.119 C 
BRANCH  25  27
ATOM     27  C   UNL     1      -9.545  -6.436   7.364  0.00  0.00    +0.103 C 
BRANCH  27   7
ATOM      4  O   UNL     1     -11.812  -4.498  10.318  0.00  0.00    -0.377 OA
ATOM      7  N   UNL     1     -10.566  -5.617   8.016  0.00  0.00    -0.297 NA
ATOM     30  C   UNL     1     -11.393  -6.433   8.915  0.00  0.00    +0.112 C 
ATOM     31  C   UNL     1      -9.948  -4.513   8.764  0.00  0.00    +0.112 C 
ATOM     34  C   UNL     1     -12.442  -5.556   9.593  0.00  0.00    +0.175 C 
ATOM     35  C   UNL     1     -11.031  -3.680   9.446  0.00  0.00    +0.175 C 
ENDBRANCH  27   7
ENDBRANCH  25  27
ENDBRANCH   6  25
ENDBRANCH  19  22
ENDBRANCH  14  19
TORSDOF 9
ENDMDL
MODEL 2
REMARK VINA RESULT:      -7.3      2.192      9.564
REMARK  Name = 45361513
REMARK  12 active torsions:
REMARK  status: ('A' for Active; 'I' for Inactive)
REMARK    1  A    between atoms: O_1  and  C_11
REMARK    2  A    between atoms: N_5  and  C_15
REMARK    3  A    between atoms: N_6  and  C_25
REMARK    4  A    between atoms: N_7  and  C_27
REMARK    5  A    between atoms: C_8  and  C_18
REMARK    6  A    between atoms: C_10  and  C_20
REMARK    7  A    between atoms: C_14  and  C_19
REMARK    8  A    between atoms: C_19  and  C_21
REMARK    9  A    between atoms: C_19  and  C_22
REMARK   10  A    between atoms: C_23  and  C_24
REMARK   11  A    between atoms: C_24  and  C_26
REMARK   12  A    between atoms: C_25  and  C_27
REMARK                            x       y       z     vdW  Elec       q    Type
REMARK                         _______ _______ _______ _____ _____    ______ ____
ROOT
ATOM      8  C   UNL     1      -3.569 -11.018  11.247  0.00  0.00    -0.027 C 
ATOM      9  C   UNL     1      -4.938 -10.476  11.778  0.00  0.00    +0.028 C 
ATOM     10  C   UNL     1      -5.556  -9.439  10.773  0.00  0.00    +0.012 C 
ATOM     11  C   UNL     1      -4.818  -9.990  13.251  0.00  0.00    +0.122 C 
ATOM     12  C   UNL     1      -3.044 -12.117  12.201  0.00  0.00    +0.007 C 
ATOM     13  C   UNL     1      -3.788 -11.665   9.859  0.00  0.00    +0.009 C 
ATOM     14  C   UNL     1      -4.195 -11.057  14.181  0.00  0.00    +0.029 C 
ATOM     15  C   UNL     1      -5.701 -10.076   9.363  0.00  0.00    +0.076 C 
ATOM     16  C   UNL     1      -2.889 -11.633  13.636  0.00  0.00    +0.007 C 
ATOM     17  C   UNL     1      -4.411 -10.713   8.848  0.00  0.00    +0.023 C 
ATOM     18  C   UNL     1      -2.496  -9.906  11.128  0.00  0.00    +0.011 C 
ATOM     20  C   UNL     1      -6.920  -8.886  11.221  0.00  0.00    +0.010 C 
ENDROOT
BRANCH  15   5
ATOM      3  O   UNL     1      -7.960 -10.352   7.601  0.00  0.00    -0.275 OA
ATOM      5  N   UNL     1      -6.160  -9.113   8.383  0.00  0.00    -0.312 N 
ATOM     23  C   UNL     1      -7.265  -9.340   7.578  0.00  0.00    +0.218 C 
ATOM     37  H   UNL     1      -5.603  -8.274   8.251  0.00  0.00    +0.149 HD
BRANCH  23  24
ATOM     24  C   UNL     1      -7.523  -8.168   6.651  0.00  0.00    +0.130 C 
BRANCH  24  26
ATOM     26  C   UNL     1      -8.613  -7.251   7.138  0.00  0.00    -0.039 A 
ATOM     28  C   UNL     1      -9.916  -7.404   6.665  0.00  0.00    +0.004 A 
ATOM     29  C   UNL     1      -8.320  -6.248   8.063  0.00  0.00    +0.004 A 
ATOM     32  C   UNL     1     -10.927  -6.555   7.116  0.00  0.00    +0.000 A 
ATOM     33  C   UNL     1      -9.330  -5.398   8.514  0.00  0.00    +0.000 A 
ATOM     36  C   UNL     1     -10.634  -5.552   8.040  0.00  0.00    +0.000 A 
ENDBRANCH  24  26
ENDBRANCH  23  24
ENDBRANCH  15   5
BRANCH  11   1
ATOM      1  O   UNL     1      -6.120  -9.707  13.768  0.00  0.00    -0.391 OA
ATOM     38  H   UNL     1      -6.769 -10.194  13.233  0.00  0.00    +0.210 HD
ENDBRANCH  11   1
BRANCH  14  19
ATOM     19  C   UNL     1      -3.965 -10.514  15.597  0.00  0.00    +0.077 C 
ATOM     21  C   UNL     1      -2.521 -10.759  16.024  0.00  0.00    +0.017 C 
BRANCH  19  22
ATOM      2  O   UNL     1      -6.009 -11.662  16.202  0.00  0.00    -0.276 OA
ATOM      6  N   UNL     1      -4.511 -11.105  17.883  0.00  0.00    -0.314 N 
ATOM     22  C   UNL     1      -4.949 -11.158  16.567  0.00  0.00    +0.216 C 
ATOM     39  H   UNL     1      -3.627 -10.651  18.097  0.00  0.00    +0.149 HD
BRANCH   6  25
ATOM     25  C   UNL     1      -5.272 -11.648  18.983  0.00  0.00    +0.119 C 
BRANCH  25  27
ATOM     27  C   UNL     1      -6.143 -10.580  19.629  0.00  0.00    +0.103 C 
BRANCH  27   7
ATOM      4  O   UNL     1      -9.788 -12.449  18.711  0.00  0.00    -0.377 OA
ATOM      7  N   UNL     1      -7.527 -11.041  19.718  0.00  0.00    -0.297 NA
ATOM     30  C   UNL     1      -8.324 -10.517  18.600  0.00  0.00    +0.112 C 
ATOM     31  C   UNL     1      -7.588 -12.509  19.734  0.00  0.00    +0.112 C 
ATOM     34  C   UNL     1      -9.761 -11.021  18.707  0.00  0.00    +0.175 C 
ATOM     35  C   UNL     1      -9.042 -12.967  19.814  0.00  0.00    +0.175 C 
ENDBRANCH  27   7
ENDBRANCH  25  27
ENDBRANCH   6  25
ENDBRANCH  19  22
ENDBRANCH  14  19
TORSDOF 9
ENDMDL
MODEL 3
REMARK VINA RESULT:      -7.2     19.104     22.431
REMARK  Name = 45361513
REMARK  12 active torsions:
REMARK  status: ('A' for Active; 'I' for Inactive)
REMARK    1  A    between atoms: O_1  and  C_11
REMARK    2  A    between atoms: N_5  and  C_15
REMARK    3  A    between atoms: N_6  and  C_25
REMARK    4  A    between atoms: N_7  and  C_27
REMARK    5  A    between atoms: C_8  and  C_18
REMARK    6  A    between atoms: C_10  and  C_20
REMARK    7  A    between atoms: C_14  and  C_19
REMARK    8  A    between atoms: C_19  and  C_21
REMARK    9  A    between atoms: C_19  and  C_22
REMARK   10  A    between atoms: C_23  and  C_24
REMARK   11  A    between atoms: C_24  and  C_26
REMARK   12  A    between atoms: C_25  and  C_27
REMARK                            x       y       z     vdW  Elec       q    Type
REMARK                         _______ _______ _______ _____ _____    ______ ____
ROOT
ATOM      8  C   UNL     1     -17.014   5.583  21.981  0.00  0.00    -0.027 C 
ATOM      9  C   UNL     1     -15.826   5.054  22.854  0.00  0.00    +0.028 C 
ATOM     10  C   UNL     1     -14.463   5.197  22.087  0.00  0.00    +0.012 C 
ATOM     11  C   UNL     1     -16.130   3.636  23.419  0.00  0.00    +0.122 C 
ATOM     12  C   UNL     1     -18.322   5.533  22.805  0.00  0.00    +0.007 C 
ATOM     13  C   UNL     1     -16.747   7.060  21.611  0.00  0.00    +0.009 C 
ATOM     14  C   UNL     1     -17.490   3.567  24.152  0.00  0.00    +0.029 C 
ATOM     15  C   UNL     1     -14.241   6.673  21.654  0.00  0.00    +0.076 C 
ATOM     16  C   UNL     1     -18.642   4.139  23.327  0.00  0.00    +0.007 C 
ATOM     17  C   UNL     1     -15.424   7.266  20.888  0.00  0.00    +0.023 C 
ATOM     18  C   UNL     1     -17.210   4.759  20.683  0.00  0.00    +0.011 C 
ATOM     20  C   UNL     1     -13.247   4.721  22.900  0.00  0.00    +0.010 C 
ENDROOT
BRANCH  15   5
ATOM      3  O   UNL     1     -12.595   9.022  21.422  0.00  0.00    -0.275 OA
ATOM      5  N   UNL     1     -13.050   6.821  20.844  0.00  0.00    -0.312 N 
ATOM     23  C   UNL     1     -12.322   8.000  20.800  0.00  0.00    +0.218 C 
ATOM     37  H   UNL     1     -12.788   6.044  20.245  0.00  0.00    +0.149 HD
BRANCH  23  24
ATOM     24  C   UNL     1     -11.123   7.875  19.880  0.00  0.00    +0.130 C 
BRANCH  24  26
ATOM     26  C   UNL     1     -11.456   8.114  18.431  0.00  0.00    -0.039 A 
ATOM     28  C   UNL     1     -10.433   8.230  17.490  0.00  0.00    +0.004 A 
ATOM     29  C   UNL     1     -12.788   8.219  18.029  0.00  0.00    +0.004 A 
ATOM     32  C   UNL     1     -10.741   8.452  16.147  0.00  0.00    +0.000 A 
ATOM     33  C   UNL     1     -13.097   8.440  16.686  0.00  0.00    +0.000 A 
ATOM     36  C   UNL     1     -12.072   8.556  15.746  0.00  0.00    +0.000 A 
ENDBRANCH  24  26
ENDBRANCH  23  24
ENDBRANCH  15   5
BRANCH  11   1
ATOM      1  O   UNL     1     -15.131   3.280  24.376  0.00  0.00    -0.391 OA
ATOM     38  H   UNL     1     -15.407   2.454  24.806  0.00  0.00    +0.210 HD
ENDBRANCH  11   1
BRANCH  14  19
ATOM     19  C   UNL     1     -17.831   2.137  24.586  0.00  0.00    +0.077 C 
ATOM     21  C   UNL     1     -19.084   1.653  23.863  0.00  0.00    +0.017 C 
BRANCH  19  22
ATOM      2  O   UNL     1     -19.104   1.956  26.638  0.00  0.00    -0.276 OA
ATOM      6  N   UNL     1     -16.800   2.185  26.779  0.00  0.00    -0.314 N 
ATOM     22  C   UNL     1     -18.006   2.080  26.100  0.00  0.00    +0.216 C 
ATOM     39  H   UNL     1     -15.940   2.304  26.253  0.00  0.00    +0.149 HD
BRANCH   6  25
ATOM     25  C   UNL     1     -16.710   2.158  28.221  0.00  0.00    +0.119 C 
BRANCH  25  27
ATOM     27  C   UNL     1     -15.424   2.814  28.703  0.00  0.00    +0.103 C 
BRANCH  27   7
ATOM      4  O   UNL     1     -14.929   0.306  32.032  0.00  0.00    -0.377 OA
ATOM      7  N   UNL     1     -14.805   2.004  29.750  0.00  0.00    -0.297 NA
ATOM     30  C   UNL     1     -15.139   2.528  31.082  0.00  0.00    +0.112 C 
ATOM     31  C   UNL     1     -15.228   0.600  29.642  0.00  0.00    +0.112 C 
ATOM     34  C   UNL     1     -14.493   1.660  32.158  0.00  0.00    +0.175 C 
ATOM     35  C   UNL     1     -14.579  -0.223  30.752  0.00  0.00    +0.175 C 
ENDBRANCH  27   7
ENDBRANCH  25  27
ENDBRANCH   6  25
ENDBRANCH  19  22
ENDBRANCH  14  19
TORSDOF 9
ENDMDL
MODEL 4
REMARK VINA RESULT:      -7.1     19.850     22.985
REMARK  Name = 45361513
REMARK  12 active torsions:
REMARK  status: ('A' for Active; 'I' for Inactive)
REMARK    1  A    between atoms: O_1  and  C_11
REMARK    2  A    between atoms: N_5  and  C_15
REMARK    3  A    between atoms: N_6  and  C_25
REMARK    4  A    between atoms: N_7  and  C_27
REMARK    5  A    between atoms: C_8  and  C_18
REMARK    6  A    between atoms: C_10  and  C_20
REMARK    7  A    between atoms: C_14  and  C_19
REMARK    8  A    between atoms: C_19  and  C_21
REMARK    9  A    between atoms: C_19  and  C_22
REMARK   10  A    between atoms: C_23  and  C_24
REMARK   11  A    between atoms: C_24  and  C_26
REMARK   12  A    between atoms: C_25  and  C_27
REMARK                            x       y       z     vdW  Elec       q    Type
REMARK                         _______ _______ _______ _____ _____    ______ ____
ROOT
ATOM      8  C   UNL     1     -18.164   4.327  22.802  0.00  0.00    -0.027 C 
ATOM      9  C   UNL     1     -16.682   4.525  23.266  0.00  0.00    +0.028 C 
ATOM     10  C   UNL     1     -15.775   4.974  22.064  0.00  0.00    +0.012 C 
ATOM     11  C   UNL     1     -16.172   3.289  24.063  0.00  0.00    +0.122 C 
ATOM     12  C   UNL     1     -19.049   3.996  24.026  0.00  0.00    +0.007 C 
ATOM     13  C   UNL     1     -18.681   5.651  22.191  0.00  0.00    +0.009 C 
ATOM     14  C   UNL     1     -17.117   2.899  25.223  0.00  0.00    +0.029 C 
ATOM     15  C   UNL     1     -16.347   6.263  21.411  0.00  0.00    +0.076 C 
ATOM     16  C   UNL     1     -18.575   2.764  24.786  0.00  0.00    +0.007 C 
ATOM     17  C   UNL     1     -17.825   6.151  21.037  0.00  0.00    +0.023 C 
ATOM     18  C   UNL     1     -18.313   3.191  21.757  0.00  0.00    +0.011 C 
ATOM     20  C   UNL     1     -14.308   5.214  22.458  0.00  0.00    +0.010 C 
ENDROOT
BRANCH  15   5
ATOM      3  O   UNL     1     -15.695   8.936  20.566  0.00  0.00    -0.275 OA
ATOM      5  N   UNL     1     -15.602   6.642  20.229  0.00  0.00    -0.312 N 
ATOM     23  C   UNL     1     -15.338   7.963  19.907  0.00  0.00    +0.218 C 
ATOM     37  H   UNL     1     -15.324   5.902  19.590  0.00  0.00    +0.149 HD
BRANCH  23  24
ATOM     24  C   UNL     1     -14.537   8.070  18.623  0.00  0.00    +0.130 C 
BRANCH  24  26
ATOM     26  C   UNL     1     -13.092   8.429  18.849  0.00  0.00    -0.039 A 
ATOM     28  C   UNL     1     -12.460   9.340  18.004  0.00  0.00    +0.004 A 
ATOM     29  C   UNL     1     -12.387   7.850  19.905  0.00  0.00    +0.004 A 
ATOM     32  C   UNL     1     -11.121   9.672  18.214  0.00  0.00    +0.000 A 
ATOM     33  C   UNL     1     -11.049   8.183  20.115  0.00  0.00    +0.000 A 
ATOM     36  C   UNL     1     -10.416   9.094  19.268  0.00  0.00    +0.000 A 
ENDBRANCH  24  26
ENDBRANCH  23  24
ENDBRANCH  15   5
BRANCH  11   1
ATOM      1  O   UNL     1     -14.906   3.590  24.651  0.00  0.00    -0.391 OA
ATOM     38  H   UNL     1     -14.218   3.433  23.983  0.00  0.00    +0.210 HD
ENDBRANCH  11   1
BRANCH  14  19
ATOM     19  C   UNL     1     -16.668   1.605  25.913  0.00  0.00    +0.077 C 
ATOM     21  C   UNL     1     -17.795   0.579  25.889  0.00  0.00    +0.017 C 
BRANCH  19  22
ATOM      2  O   UNL     1     -15.824   3.013  27.693  0.00  0.00    -0.276 OA
ATOM      6  N   UNL     1     -16.307   0.795  28.168  0.00  0.00    -0.314 N 
ATOM     22  C   UNL     1     -16.219   1.904  27.339  0.00  0.00    +0.216 C 
ATOM     39  H   UNL     1     -16.627  -0.090  27.786  0.00  0.00    +0.149 HD
BRANCH   6  25
ATOM     25  C   UNL     1     -15.935   0.831  29.564  0.00  0.00    +0.119 C 
BRANCH  25  27
ATOM     27  C   UNL     1     -14.458   0.518  29.748  0.00  0.00    +0.103 C 
BRANCH  27   7
ATOM      4  O   UNL     1     -14.069   3.226  32.931  0.00  0.00    -0.377 OA
ATOM      7  N   UNL     1     -13.935   1.211  30.923  0.00  0.00    -0.297 NA
ATOM     30  C   UNL     1     -13.660   2.622  30.617  0.00  0.00    +0.112 C 
ATOM     31  C   UNL     1     -14.878   1.115  32.047  0.00  0.00    +0.112 C 
ATOM     34  C   UNL     1     -13.129   3.329  31.861  0.00  0.00    +0.175 C 
ATOM     35  C   UNL     1     -14.318   1.857  33.258  0.00  0.00    +0.175 C 
ENDBRANCH  27   7
ENDBRANCH  25  27
ENDBRANCH   6  25
ENDBRANCH  19  22
ENDBRANCH  14  19
TORSDOF 9
ENDMDL
MODEL 5
REMARK VINA RESULT:      -7.0      2.307      8.607
REMARK  Name = 45361513
REMARK  12 active torsions:
REMARK  status: ('A' for Active; 'I' for Inactive)
REMARK    1  A    between atoms: O_1  and  C_11
REMARK    2  A    between atoms: N_5  and  C_15
REMARK    3  A    between atoms: N_6  and  C_25
REMARK    4  A    between atoms: N_7  and  C_27
REMARK    5  A    between atoms: C_8  and  C_18
REMARK    6  A    between atoms: C_10  and  C_20
REMARK    7  A    between atoms: C_14  and  C_19
REMARK    8  A    between atoms: C_19  and  C_21
REMARK    9  A    between atoms: C_19  and  C_22
REMARK   10  A    between atoms: C_23  and  C_24
REMARK   11  A    between atoms: C_24  and  C_26
REMARK   12  A    between atoms: C_25  and  C_27
REMARK                            x       y       z     vdW  Elec       q    Type
REMARK                         _______ _______ _______ _____ _____    ______ ____
ROOT
ATOM      8  C   UNL     1      -3.502 -11.057  11.279  0.00  0.00    -0.027 C 
ATOM      9  C   UNL     1      -4.828 -10.452  11.850  0.00  0.00    +0.028 C 
ATOM     10  C   UNL     1      -5.444  -9.411  10.848  0.00  0.00    +0.012 C 
ATOM     11  C   UNL     1      -4.632  -9.943  13.307  0.00  0.00    +0.122 C 
ATOM     12  C   UNL     1      -2.982 -12.157  12.235  0.00  0.00    +0.007 C 
ATOM     13  C   UNL     1      -3.798 -11.721   9.914  0.00  0.00    +0.009 C 
ATOM     14  C   UNL     1      -4.015 -11.016  14.235  0.00  0.00    +0.029 C 
ATOM     15  C   UNL     1      -5.667 -10.069   9.458  0.00  0.00    +0.076 C 
ATOM     16  C   UNL     1      -2.754 -11.652  13.653  0.00  0.00    +0.007 C 
ATOM     17  C   UNL     1      -4.423 -10.766   8.908  0.00  0.00    +0.023 C 
ATOM     18  C   UNL     1      -2.392  -9.990  11.097  0.00  0.00    +0.011 C 
ATOM     20  C   UNL     1      -6.767  -8.797  11.336  0.00  0.00    +0.010 C 
ENDROOT
BRANCH  15   5
ATOM      3  O   UNL     1      -7.887 -10.375   7.652  0.00  0.00    -0.275 OA
ATOM      5  N   UNL     1      -6.127  -9.108   8.477  0.00  0.00    -0.312 N 
ATOM     23  C   UNL     1      -7.211  -9.350   7.650  0.00  0.00    +0.218 C 
ATOM     37  H   UNL     1      -5.584  -8.257   8.361  0.00  0.00    +0.149 HD
BRANCH  23  24
ATOM     24  C   UNL     1      -7.475  -8.176   6.726  0.00  0.00    +0.130 C 
BRANCH  24  26
ATOM     26  C   UNL     1      -8.560  -7.258   7.223  0.00  0.00    -0.039 A 
ATOM     28  C   UNL     1      -8.242  -6.193   8.066  0.00  0.00    +0.004 A 
ATOM     29  C   UNL     1      -9.885  -7.472   6.839  0.00  0.00    +0.004 A 
ATOM     32  C   UNL     1      -9.247  -5.342   8.525  0.00  0.00    +0.000 A 
ATOM     33  C   UNL     1     -10.890  -6.621   7.298  0.00  0.00    +0.000 A 
ATOM     36  C   UNL     1     -10.571  -5.556   8.142  0.00  0.00    +0.000 A 
ENDBRANCH  24  26
ENDBRANCH  23  24
ENDBRANCH  15   5
BRANCH  11   1
ATOM      1  O   UNL     1      -5.901  -9.600  13.867  0.00  0.00    -0.391 OA
ATOM     38  H   UNL     1      -6.041  -8.648  13.738  0.00  0.00    +0.210 HD
ENDBRANCH  11   1
BRANCH  14  19
ATOM     19  C   UNL     1      -3.709 -10.456  15.629  0.00  0.00    +0.077 C 
ATOM     21  C   UNL     1      -2.239 -10.673  15.972  0.00  0.00    +0.017 C 
BRANCH  19  22
ATOM      2  O   UNL     1      -4.460 -12.256  17.065  0.00  0.00    -0.276 OA
ATOM      6  N   UNL     1      -5.639 -10.258  17.082  0.00  0.00    -0.314 N 
ATOM     22  C   UNL     1      -4.623 -11.105  16.663  0.00  0.00    +0.216 C 
ATOM     39  H   UNL     1      -5.711  -9.328  16.681  0.00  0.00    +0.149 HD
BRANCH   6  25
ATOM     25  C   UNL     1      -6.631 -10.650  18.056  0.00  0.00    +0.119 C 
BRANCH  25  27
ATOM     27  C   UNL     1      -7.961 -10.971  17.388  0.00  0.00    +0.103 C 
BRANCH  27   7
ATOM      4  O   UNL     1     -10.370  -8.314  15.208  0.00  0.00    -0.377 OA
ATOM      7  N   UNL     1      -8.384  -9.858  16.541  0.00  0.00    -0.297 NA
ATOM     30  C   UNL     1      -9.055 -10.350  15.330  0.00  0.00    +0.112 C 
ATOM     31  C   UNL     1      -9.276  -8.952  17.278  0.00  0.00    +0.112 C 
ATOM     34  C   UNL     1      -9.499  -9.171  14.468  0.00  0.00    +0.175 C 
ATOM     35  C   UNL     1      -9.715  -7.805  16.370  0.00  0.00    +0.175 C 
ENDBRANCH  27   7
ENDBRANCH  25  27
ENDBRANCH   6  25
ENDBRANCH  19  22
ENDBRANCH  14  19
TORSDOF 9
ENDMDL
MODEL 6
REMARK VINA RESULT:      -7.0     18.125     20.220
REMARK  Name = 45361513
REMARK  12 active torsions:
REMARK  status: ('A' for Active; 'I' for Inactive)
REMARK    1  A    between atoms: O_1  and  C_11
REMARK    2  A    between atoms: N_5  and  C_15
REMARK    3  A    between atoms: N_6  and  C_25
REMARK    4  A    between atoms: N_7  and  C_27
REMARK    5  A    between atoms: C_8  and  C_18
REMARK    6  A    between atoms: C_10  and  C_20
REMARK    7  A    between atoms: C_14  and  C_19
REMARK    8  A    between atoms: C_19  and  C_21
REMARK    9  A    between atoms: C_19  and  C_22
REMARK   10  A    between atoms: C_23  and  C_24
REMARK   11  A    between atoms: C_24  and  C_26
REMARK   12  A    between atoms: C_25  and  C_27
REMARK                            x       y       z     vdW  Elec       q    Type
REMARK                         _______ _______ _______ _____ _____    ______ ____
ROOT
ATOM      8  C   UNL     1     -16.205   6.507  21.091  0.00  0.00    -0.027 C 
ATOM      9  C   UNL     1     -15.088   5.686  21.818  0.00  0.00    +0.028 C 
ATOM     10  C   UNL     1     -15.593   5.168  23.213  0.00  0.00    +0.012 C 
ATOM     11  C   UNL     1     -13.742   6.467  21.843  0.00  0.00    +0.122 C 
ATOM     12  C   UNL     1     -15.716   6.906  19.678  0.00  0.00    +0.007 C 
ATOM     13  C   UNL     1     -17.456   5.614  20.922  0.00  0.00    +0.009 C 
ATOM     14  C   UNL     1     -13.310   6.953  20.440  0.00  0.00    +0.029 C 
ATOM     15  C   UNL     1     -16.893   4.335  23.038  0.00  0.00    +0.076 C 
ATOM     16  C   UNL     1     -14.419   7.702  19.702  0.00  0.00    +0.007 C 
ATOM     17  C   UNL     1     -17.977   5.059  22.239  0.00  0.00    +0.023 C 
ATOM     18  C   UNL     1     -16.596   7.793  21.864  0.00  0.00    +0.011 C 
ATOM     20  C   UNL     1     -14.551   4.328  23.971  0.00  0.00    +0.010 C 
ENDROOT
BRANCH  15   5
ATOM      3  O   UNL     1     -16.833   1.704  24.202  0.00  0.00    -0.275 OA
ATOM      5  N   UNL     1     -17.452   3.938  24.314  0.00  0.00    -0.312 N 
ATOM     23  C   UNL     1     -17.370   2.639  24.789  0.00  0.00    +0.218 C 
ATOM     37  H   UNL     1     -17.973   4.635  24.837  0.00  0.00    +0.149 HD
BRANCH  23  24
ATOM     24  C   UNL     1     -18.031   2.506  26.148  0.00  0.00    +0.130 C 
BRANCH  24  26
ATOM     26  C   UNL     1     -17.048   2.331  27.275  0.00  0.00    -0.039 A 
ATOM     28  C   UNL     1     -16.243   3.400  27.670  0.00  0.00    +0.004 A 
ATOM     29  C   UNL     1     -16.942   1.101  27.925  0.00  0.00    +0.004 A 
ATOM     32  C   UNL     1     -15.332   3.238  28.715  0.00  0.00    +0.000 A 
ATOM     33  C   UNL     1     -16.033   0.939  28.970  0.00  0.00    +0.000 A 
ATOM     36  C   UNL     1     -15.227   2.009  29.364  0.00  0.00    +0.000 A 
ENDBRANCH  24  26
ENDBRANCH  23  24
ENDBRANCH  15   5
BRANCH  11   1
ATOM      1  O   UNL     1     -12.702   5.609  22.315  0.00  0.00    -0.391 OA
ATOM     38  H   UNL     1     -13.104   4.766  22.583  0.00  0.00    +0.210 HD
ENDBRANCH  11   1
BRANCH  14  19
ATOM     19  C   UNL     1     -12.053   7.829  20.502  0.00  0.00    +0.077 C 
ATOM     21  C   UNL     1     -12.433   9.268  20.837  0.00  0.00    +0.017 C 
BRANCH  19  22
ATOM      2  O   UNL     1     -11.126   6.690  18.577  0.00  0.00    -0.276 OA
ATOM      6  N   UNL     1     -10.830   8.984  18.757  0.00  0.00    -0.314 N 
ATOM     22  C   UNL     1     -11.296   7.747  19.182  0.00  0.00    +0.216 C 
ATOM     39  H   UNL     1     -11.000   9.805  19.330  0.00  0.00    +0.149 HD
BRANCH   6  25
ATOM     25  C   UNL     1     -10.083   9.160  17.534  0.00  0.00    +0.119 C 
BRANCH  25  27
ATOM     27  C   UNL     1     -10.814  10.084  16.571  0.00  0.00    +0.103 C 
BRANCH  27   7
ATOM      4  O   UNL     1     -11.839   7.609  13.339  0.00  0.00    -0.377 OA
ATOM      7  N   UNL     1     -10.856   9.492  15.235  0.00  0.00    -0.297 NA
ATOM     30  C   UNL     1     -10.457   8.078  15.278  0.00  0.00    +0.112 C 
ATOM     31  C   UNL     1     -12.199   9.619  14.651  0.00  0.00    +0.112 C 
ATOM     34  C   UNL     1     -10.521   7.479  13.876  0.00  0.00    +0.175 C 
ATOM     35  C   UNL     1     -12.223   8.983  13.263  0.00  0.00    +0.175 C 
ENDBRANCH  27   7
ENDBRANCH  25  27
ENDBRANCH   6  25
ENDBRANCH  19  22
ENDBRANCH  14  19
TORSDOF 9
ENDMDL
MODEL 7
REMARK VINA RESULT:      -6.9     27.954     30.598
REMARK  Name = 45361513
REMARK  12 active torsions:
REMARK  status: ('A' for Active; 'I' for Inactive)
REMARK    1  A    between atoms: O_1  and  C_11
REMARK    2  A    between atoms: N_5  and  C_15
REMARK    3  A    between atoms: N_6  and  C_25
REMARK    4  A    between atoms: N_7  and  C_27
REMARK    5  A    between atoms: C_8  and  C_18
REMARK    6  A    between atoms: C_10  and  C_20
REMARK    7  A    between atoms: C_14  and  C_19
REMARK    8  A    between atoms: C_19  and  C_21
REMARK    9  A    between atoms: C_19  and  C_22
REMARK   10  A    between atoms: C_23  and  C_24
REMARK   11  A    between atoms: C_24  and  C_26
REMARK   12  A    between atoms: C_25  and  C_27
REMARK                            x       y       z     vdW  Elec       q    Type
REMARK                         _______ _______ _______ _____ _____    ______ ____
ROOT
ATOM      8  C   UNL     1      16.769  10.644  21.634  0.00  0.00    -0.027 C 
ATOM      9  C   UNL     1      16.020   9.300  21.922  0.00  0.00    +0.028 C 
ATOM     10  C   UNL     1      16.717   8.102  21.182  0.00  0.00    +0.012 C 
ATOM     11  C   UNL     1      14.491   9.443  21.670  0.00  0.00    +0.122 C 
ATOM     12  C   UNL     1      16.128  11.780  22.464  0.00  0.00    +0.007 C 
ATOM     13  C   UNL     1      18.242  10.505  22.085  0.00  0.00    +0.009 C 
ATOM     14  C   UNL     1      13.874  10.646  22.421  0.00  0.00    +0.029 C 
ATOM     15  C   UNL     1      18.215   8.019  21.586  0.00  0.00    +0.076 C 
ATOM     16  C   UNL     1      14.639  11.948  22.191  0.00  0.00    +0.007 C 
ATOM     17  C   UNL     1      18.963   9.341  21.421  0.00  0.00    +0.023 C 
ATOM     18  C   UNL     1      16.730  11.037  20.135  0.00  0.00    +0.011 C 
ATOM     20  C   UNL     1      16.046   6.743  21.445  0.00  0.00    +0.010 C 
ENDROOT
BRANCH  15   5
ATOM      3  O   UNL     1      20.230   6.223  22.586  0.00  0.00    -0.275 OA
ATOM      5  N   UNL     1      18.917   6.998  20.836  0.00  0.00    -0.312 N 
ATOM     23  C   UNL     1      19.875   6.179  21.411  0.00  0.00    +0.218 C 
ATOM     37  H   UNL     1      18.733   6.936  19.839  0.00  0.00    +0.149 HD
BRANCH  23  24
ATOM     24  C   UNL     1      20.443   5.200  20.402  0.00  0.00    +0.130 C 
BRANCH  24  26
ATOM     26  C   UNL     1      21.767   4.615  20.818  0.00  0.00    -0.039 A 
ATOM     28  C   UNL     1      21.814   3.370  21.444  0.00  0.00    +0.004 A 
ATOM     29  C   UNL     1      22.948   5.319  20.575  0.00  0.00    +0.004 A 
ATOM     32  C   UNL     1      23.041   2.828  21.829  0.00  0.00    +0.000 A 
ATOM     33  C   UNL     1      24.174   4.777  20.959  0.00  0.00    +0.000 A 
ATOM     36  C   UNL     1      24.220   3.531  21.587  0.00  0.00    +0.000 A 
ENDBRANCH  24  26
ENDBRANCH  23  24
ENDBRANCH  15   5
BRANCH  11   1
ATOM      1  O   UNL     1      13.818   8.276  22.145  0.00  0.00    -0.391 OA
ATOM     38  H   UNL     1      12.918   8.531  22.405  0.00  0.00    +0.210 HD
ENDBRANCH  11   1
BRANCH  14  19
ATOM     19  C   UNL     1      12.398  10.848  22.057  0.00  0.00    +0.077 C 
ATOM     21  C   UNL     1      11.507  10.130  23.065  0.00  0.00    +0.017 C 
BRANCH  19  22
ATOM      2  O   UNL     1      12.520  10.969  19.642  0.00  0.00    -0.276 OA
ATOM      6  N   UNL     1      11.436   9.161  20.608  0.00  0.00    -0.314 N 
ATOM     22  C   UNL     1      12.139  10.357  20.638  0.00  0.00    +0.216 C 
ATOM     39  H   UNL     1      11.143   8.732  21.481  0.00  0.00    +0.149 HD
BRANCH   6  25
ATOM     25  C   UNL     1      11.071   8.499  19.377  0.00  0.00    +0.119 C 
BRANCH  25  27
ATOM     27  C   UNL     1      12.223   7.661  18.841  0.00  0.00    +0.103 C 
BRANCH  27   7
ATOM      4  O   UNL     1      13.053   9.788  15.319  0.00  0.00    -0.377 OA
ATOM      7  N   UNL     1      12.466   7.975  17.435  0.00  0.00    -0.297 NA
ATOM     30  C   UNL     1      11.459   8.919  16.930  0.00  0.00    +0.112 C 
ATOM     31  C   UNL     1      13.814   8.531  17.250  0.00  0.00    +0.112 C 
ATOM     34  C   UNL     1      11.741   9.242  15.465  0.00  0.00    +0.175 C 
ATOM     35  C   UNL     1      14.040   8.864  15.778  0.00  0.00    +0.175 C 
ENDBRANCH  27   7
ENDBRANCH  25  27
ENDBRANCH   6  25
ENDBRANCH  19  22
ENDBRANCH  14  19
TORSDOF 9
ENDMDL
MODEL 8
REMARK VINA RESULT:      -6.9     19.472     20.710
REMARK  Name = 45361513
REMARK  12 active torsions:
REMARK  status: ('A' for Active; 'I' for Inactive)
REMARK    1  A    between atoms: O_1  and  C_11
REMARK    2  A    between atoms: N_5  and  C_15
REMARK    3  A    between atoms: N_6  and  C_25
REMARK    4  A    between atoms: N_7  and  C_27
REMARK    5  A    between atoms: C_8  and  C_18
REMARK    6  A    between atoms: C_10  and  C_20
REMARK    7  A    between atoms: C_14  and  C_19
REMARK    8  A    between atoms: C_19  and  C_21
REMARK    9  A    between atoms: C_19  and  C_22
REMARK   10  A    between atoms: C_23  and  C_24
REMARK   11  A    between atoms: C_24  and  C_26
REMARK   12  A    between atoms: C_25  and  C_27
REMARK                            x       y       z     vdW  Elec       q    Type
REMARK                         _______ _______ _______ _____ _____    ______ ____
ROOT
ATOM      8  C   UNL     1     -17.436   4.703  21.792  0.00  0.00    -0.027 C 
ATOM      9  C   UNL     1     -16.158   4.442  22.658  0.00  0.00    +0.028 C 
ATOM     10  C   UNL     1     -16.546   3.873  24.070  0.00  0.00    +0.012 C 
ATOM     11  C   UNL     1     -15.224   5.686  22.672  0.00  0.00    +0.122 C 
ATOM     12  C   UNL     1     -17.016   5.155  20.374  0.00  0.00    +0.007 C 
ATOM     13  C   UNL     1     -18.227   3.382  21.651  0.00  0.00    +0.009 C 
ATOM     14  C   UNL     1     -14.891   6.197  21.250  0.00  0.00    +0.029 C 
ATOM     15  C   UNL     1     -17.405   2.587  23.914  0.00  0.00    +0.076 C 
ATOM     16  C   UNL     1     -16.133   6.395  20.382  0.00  0.00    +0.007 C 
ATOM     17  C   UNL     1     -18.608   2.767  22.990  0.00  0.00    +0.023 C 
ATOM     18  C   UNL     1     -18.359   5.787  22.407  0.00  0.00    +0.011 C 
ATOM     20  C   UNL     1     -15.332   3.566  24.964  0.00  0.00    +0.010 C 
ENDROOT
BRANCH  15   5
ATOM      3  O   UNL     1     -16.884   0.005  25.075  0.00  0.00    -0.275 OA
ATOM      5  N   UNL     1     -17.877   2.099  25.193  0.00  0.00    -0.312 N 
ATOM     23  C   UNL     1     -17.570   0.834  25.667  0.00  0.00    +0.218 C 
ATOM     37  H   UNL     1     -18.507   2.696  25.721  0.00  0.00    +0.149 HD
BRANCH  23  24
ATOM     24  C   UNL     1     -18.188   0.588  27.029  0.00  0.00    +0.130 C 
BRANCH  24  26
ATOM     26  C   UNL     1     -17.511   1.350  28.138  0.00  0.00    -0.039 A 
ATOM     28  C   UNL     1     -16.252   0.954  28.588  0.00  0.00    +0.004 A 
ATOM     29  C   UNL     1     -18.143   2.453  28.713  0.00  0.00    +0.004 A 
ATOM     32  C   UNL     1     -15.625   1.660  29.615  0.00  0.00    +0.000 A 
ATOM     33  C   UNL     1     -17.515   3.160  29.740  0.00  0.00    +0.000 A 
ATOM     36  C   UNL     1     -16.256   2.762  30.190  0.00  0.00    +0.000 A 
ENDBRANCH  24  26
ENDBRANCH  23  24
ENDBRANCH  15   5
BRANCH  11   1
ATOM      1  O   UNL     1     -13.980   5.342  23.284  0.00  0.00    -0.391 OA
ATOM     38  H   UNL     1     -13.973   5.710  24.182  0.00  0.00    +0.210 HD
ENDBRANCH  11   1
BRANCH  14  19
ATOM     19  C   UNL     1     -14.079   7.497  21.288  0.00  0.00    +0.077 C 
ATOM     21  C   UNL     1     -14.747   8.558  20.420  0.00  0.00    +0.017 C 
BRANCH  19  22
ATOM      2  O   UNL     1     -12.010   6.242  21.196  0.00  0.00    -0.276 OA
ATOM      6  N   UNL     1     -12.164   8.217  19.988  0.00  0.00    -0.314 N 
ATOM     22  C   UNL     1     -12.648   7.230  20.836  0.00  0.00    +0.216 C 
ATOM     39  H   UNL     1     -12.755   9.010  19.758  0.00  0.00    +0.149 HD
BRANCH   6  25
ATOM     25  C   UNL     1     -10.832   8.184  19.430  0.00  0.00    +0.119 C 
BRANCH  25  27
ATOM     27  C   UNL     1     -10.223   9.578  19.379  0.00  0.00    +0.103 C 
BRANCH  27   7
ATOM      4  O   UNL     1     -10.698  10.995  15.457  0.00  0.00    -0.377 OA
ATOM      7  N   UNL     1      -9.939   9.956  17.997  0.00  0.00    -0.297 NA
ATOM     30  C   UNL     1     -10.762   9.176  17.062  0.00  0.00    +0.112 C 
ATOM     31  C   UNL     1     -10.169  11.393  17.791  0.00  0.00    +0.112 C 
ATOM     34  C   UNL     1     -10.457   9.597  15.627  0.00  0.00    +0.175 C 
ATOM     35  C   UNL     1      -9.878  11.762  16.339  0.00  0.00    +0.175 C 
ENDBRANCH  27   7
ENDBRANCH  25  27
ENDBRANCH   6  25
ENDBRANCH  19  22
ENDBRANCH  14  19
TORSDOF 9
ENDMDL
MODEL 9
REMARK VINA RESULT:      -6.8      2.452      9.945
REMARK  Name = 45361513
REMARK  12 active torsions:
REMARK  status: ('A' for Active; 'I' for Inactive)
REMARK    1  A    between atoms: O_1  and  C_11
REMARK    2  A    between atoms: N_5  and  C_15
REMARK    3  A    between atoms: N_6  and  C_25
REMARK    4  A    between atoms: N_7  and  C_27
REMARK    5  A    between atoms: C_8  and  C_18
REMARK    6  A    between atoms: C_10  and  C_20
REMARK    7  A    between atoms: C_14  and  C_19
REMARK    8  A    between atoms: C_19  and  C_21
REMARK    9  A    between atoms: C_19  and  C_22
REMARK   10  A    between atoms: C_23  and  C_24
REMARK   11  A    between atoms: C_24  and  C_26
REMARK   12  A    between atoms: C_25  and  C_27
REMARK                            x       y       z     vdW  Elec       q    Type
REMARK                         _______ _______ _______ _____ _____    ______ ____
ROOT
ATOM      8  C   UNL     1      -3.326 -10.898  11.256  0.00  0.00    -0.027 C 
ATOM      9  C   UNL     1      -4.597 -10.452  12.053  0.00  0.00    +0.028 C 
ATOM     10  C   UNL     1      -5.371  -9.322  11.284  0.00  0.00    +0.012 C 
ATOM     11  C   UNL     1      -4.248 -10.133  13.536  0.00  0.00    +0.122 C 
ATOM     12  C   UNL     1      -2.651 -12.085  11.982  0.00  0.00    +0.007 C 
ATOM     13  C   UNL     1      -3.758 -11.388   9.854  0.00  0.00    +0.009 C 
ATOM     14  C   UNL     1      -3.480 -11.283  14.227  0.00  0.00    +0.029 C 
ATOM     15  C   UNL     1      -5.734  -9.799   9.850  0.00  0.00    +0.076 C 
ATOM     16  C   UNL     1      -2.273 -11.763  13.422  0.00  0.00    +0.007 C 
ATOM     17  C   UNL     1      -4.538 -10.343   9.069  0.00  0.00    +0.023 C 
ATOM     18  C   UNL     1      -2.290  -9.755  11.100  0.00  0.00    +0.011 C 
ATOM     20  C   UNL     1      -6.650  -8.855  12.000  0.00  0.00    +0.010 C 
ENDROOT
BRANCH  15   5
ATOM      3  O   UNL     1      -8.332  -9.853   8.614  0.00  0.00    -0.275 OA
ATOM      5  N   UNL     1      -6.347  -8.742   9.072  0.00  0.00    -0.312 N 
ATOM     23  C   UNL     1      -7.610  -8.865   8.515  0.00  0.00    +0.218 C 
ATOM     37  H   UNL     1      -5.792  -7.913   8.885  0.00  0.00    +0.149 HD
BRANCH  23  24
ATOM     24  C   UNL     1      -8.005  -7.611   7.760  0.00  0.00    +0.130 C 
BRANCH  24  26
ATOM     26  C   UNL     1      -8.206  -7.841   6.286  0.00  0.00    -0.039 A 
ATOM     28  C   UNL     1      -7.309  -8.638   5.576  0.00  0.00    +0.004 A 
ATOM     29  C   UNL     1      -9.291  -7.258   5.630  0.00  0.00    +0.004 A 
ATOM     32  C   UNL     1      -7.495  -8.852   4.209  0.00  0.00    +0.000 A 
ATOM     33  C   UNL     1      -9.478  -7.472   4.264  0.00  0.00    +0.000 A 
ATOM     36  C   UNL     1      -8.579  -8.269   3.554  0.00  0.00    +0.000 A 
ENDBRANCH  24  26
ENDBRANCH  23  24
ENDBRANCH  15   5
BRANCH  11   1
ATOM      1  O   UNL     1      -5.453  -9.941  14.279  0.00  0.00    -0.391 OA
ATOM     38  H   UNL     1      -5.220  -9.544  15.134  0.00  0.00    +0.210 HD
ENDBRANCH  11   1
BRANCH  14  19
ATOM     19  C   UNL     1      -3.031 -10.899  15.642  0.00  0.00    +0.077 C 
ATOM     21  C   UNL     1      -1.516 -11.015  15.762  0.00  0.00    +0.017 C 
BRANCH  19  22
ATOM      2  O   UNL     1      -3.721 -11.537  17.874  0.00  0.00    -0.276 OA
ATOM      6  N   UNL     1      -4.388 -12.858  16.087  0.00  0.00    -0.314 N 
ATOM     22  C   UNL     1      -3.739 -11.777  16.668  0.00  0.00    +0.216 C 
ATOM     39  H   UNL     1      -4.334 -12.991  15.082  0.00  0.00    +0.149 HD
BRANCH   6  25
ATOM     25  C   UNL     1      -5.127 -13.832  16.856  0.00  0.00    +0.119 C 
BRANCH  25  27
ATOM     27  C   UNL     1      -6.612 -13.501  16.880  0.00  0.00    +0.103 C 
BRANCH  27   7
ATOM      4  O   UNL     1      -8.761 -11.522  19.895  0.00  0.00    -0.377 OA
ATOM      7  N   UNL     1      -6.983 -12.932  18.174  0.00  0.00    -0.297 NA
ATOM     30  C   UNL     1      -7.160 -11.476  18.072  0.00  0.00    +0.112 C 
ATOM     31  C   UNL     1      -8.214 -13.553  18.684  0.00  0.00    +0.112 C 
ATOM     34  C   UNL     1      -7.559 -10.906  19.430  0.00  0.00    +0.175 C 
ATOM     35  C   UNL     1      -8.589 -12.934  20.028  0.00  0.00    +0.175 C 
ENDBRANCH  27   7
ENDBRANCH  25  27
ENDBRANCH   6  25
ENDBRANCH  19  22
ENDBRANCH  14  19
TORSDOF 9
ENDMDL
MODEL 10
REMARK VINA RESULT:      -6.8     25.201     28.240
REMARK  Name = 45361513
REMARK  12 active torsions:
REMARK  status: ('A' for Active; 'I' for Inactive)
REMARK    1  A    between atoms: O_1  and  C_11
REMARK    2  A    between atoms: N_5  and  C_15
REMARK    3  A    between atoms: N_6  and  C_25
REMARK    4  A    between atoms: N_7  and  C_27
REMARK    5  A    between atoms: C_8  and  C_18
REMARK    6  A    between atoms: C_10  and  C_20
REMARK    7  A    between atoms: C_14  and  C_19
REMARK    8  A    between atoms: C_19  and  C_21
REMARK    9  A    between atoms: C_19  and  C_22
REMARK   10  A    between atoms: C_23  and  C_24
REMARK   11  A    between atoms: C_24  and  C_26
REMARK   12  A    between atoms: C_25  and  C_27
REMARK                            x       y       z     vdW  Elec       q    Type
REMARK                         _______ _______ _______ _____ _____    ______ ____
ROOT
ATOM      8  C   UNL     1      11.530   9.575   6.869  0.00  0.00    -0.027 C 
ATOM      9  C   UNL     1      12.385   8.303   7.187  0.00  0.00    +0.028 C 
ATOM     10  C   UNL     1      13.718   8.302   6.355  0.00  0.00    +0.012 C 
ATOM     11  C   UNL     1      11.530   7.008   7.080  0.00  0.00    +0.122 C 
ATOM     12  C   UNL     1      10.283   9.601   7.784  0.00  0.00    +0.007 C 
ATOM     13  C   UNL     1      12.369  10.836   7.179  0.00  0.00    +0.009 C 
ATOM     14  C   UNL     1      10.231   7.081   7.916  0.00  0.00    +0.029 C 
ATOM     15  C   UNL     1      14.516   9.610   6.618  0.00  0.00    +0.076 C 
ATOM     16  C   UNL     1       9.423   8.351   7.653  0.00  0.00    +0.007 C 
ATOM     17  C   UNL     1      13.687  10.879   6.420  0.00  0.00    +0.023 C 
ATOM     18  C   UNL     1      11.064   9.622   5.391  0.00  0.00    +0.011 C 
ATOM     20  C   UNL     1      14.622   7.091   6.642  0.00  0.00    +0.010 C 
ENDROOT
BRANCH  15   5
ATOM      3  O   UNL     1      16.861  11.207   7.098  0.00  0.00    -0.275 OA
ATOM      5  N   UNL     1      15.694   9.696   5.779  0.00  0.00    -0.312 N 
ATOM     23  C   UNL     1      16.777  10.498   6.099  0.00  0.00    +0.218 C 
ATOM     37  H   UNL     1      15.682   9.192   4.898  0.00  0.00    +0.149 HD
BRANCH  23  24
ATOM     24  C   UNL     1      17.870  10.394   5.053  0.00  0.00    +0.130 C 
BRANCH  24  26
ATOM     26  C   UNL     1      18.913   9.358   5.381  0.00  0.00    -0.039 A 
ATOM     28  C   UNL     1      19.495   9.332   6.649  0.00  0.00    +0.004 A 
ATOM     29  C   UNL     1      19.295   8.423   4.418  0.00  0.00    +0.004 A 
ATOM     32  C   UNL     1      20.461   8.371   6.953  0.00  0.00    +0.000 A 
ATOM     33  C   UNL     1      20.260   7.463   4.723  0.00  0.00    +0.000 A 
ATOM     36  C   UNL     1      20.843   7.438   5.991  0.00  0.00    +0.000 A 
ENDBRANCH  24  26
ENDBRANCH  23  24
ENDBRANCH  15   5
BRANCH  11   1
ATOM      1  O   UNL     1      12.277   5.899   7.583  0.00  0.00    -0.391 OA
ATOM     38  H   UNL     1      12.498   5.320   6.835  0.00  0.00    +0.210 HD
ENDBRANCH  11   1
BRANCH  14  19
ATOM     19  C   UNL     1       9.340   5.853   7.696  0.00  0.00    +0.077 C 
ATOM     21  C   UNL     1       9.915   4.649   8.434  0.00  0.00    +0.017 C 
BRANCH  19  22
ATOM      2  O   UNL     1       8.273   6.018   5.528  0.00  0.00    -0.276 OA
ATOM      6  N   UNL     1      10.221   4.773   5.713  0.00  0.00    -0.314 N 
ATOM     22  C   UNL     1       9.199   5.574   6.203  0.00  0.00    +0.216 C 
ATOM     39  H   UNL     1      10.938   4.434   6.347  0.00  0.00    +0.149 HD
BRANCH   6  25
ATOM     25  C   UNL     1      10.303   4.371   4.328  0.00  0.00    +0.119 C 
BRANCH  25  27
ATOM     27  C   UNL     1      10.903   5.476   3.470  0.00  0.00    +0.103 C 
BRANCH  27   7
ATOM      4  O   UNL     1      13.580   4.253   0.477  0.00  0.00    -0.377 OA
ATOM      7  N   UNL     1      12.110   4.997   2.799  0.00  0.00    -0.297 NA
ATOM     30  C   UNL     1      11.850   3.732   2.096  0.00  0.00    +0.112 C 
ATOM     31  C   UNL     1      12.615   6.003   1.853  0.00  0.00    +0.112 C 
ATOM     34  C   UNL     1      13.119   3.259   1.394  0.00  0.00    +0.175 C 
ATOM     35  C   UNL     1      13.867   5.476   1.156  0.00  0.00    +0.175 C 
ENDBRANCH  27   7
ENDBRANCH  25  27
ENDBRANCH   6  25
ENDBRANCH  19  22
ENDBRANCH  14  19
TORSDOF 9
ENDMDL
