REMARK  Name = 75536593
REMARK  7 active torsions:
REMARK  status: ('A' for Active; 'I' for Inactive)
REMARK    1  A    between atoms: O_3  and  C_11
REMARK    2  A    between atoms: N_6  and  C_9
REMARK    3  A    between atoms: N_6  and  C_10
REMARK    4  A    between atoms: N_8  and  C_18
REMARK    5  A    between atoms: C_12  and  C_18
REMARK    6  A    between atoms: C_19  and  C_20
REMARK    7  A    between atoms: C_21  and  C_22
REMARK                            x       y       z     vdW  Elec       q    Type
REMARK                         _______ _______ _______ _____ _____    ______ ____
ROOT
ATOM      2  O   UNL     1       1.238   0.662  -0.951  0.00  0.00    -0.371 OA
ATOM      9  C   UNL     1      -0.845  -0.352  -0.427  0.00  0.00    +0.111 C 
ATOM     11  C   UNL     1       0.201  -1.436  -0.611  0.00  0.00    +0.164 C 
ATOM     12  C   UNL     1       1.485  -0.643  -0.403  0.00  0.00    +0.165 C 
ATOM     15  C   UNL     1      -0.181   0.827  -1.119  0.00  0.00    +0.181 C 
ENDROOT
BRANCH  11   3
ATOM      3  O   UNL     1       0.072  -2.485   0.329  0.00  0.00    -0.388 OA
ATOM     27  H   UNL     1       0.108  -2.102   1.222  0.00  0.00    +0.210 HD
ENDBRANCH  11   3
BRANCH   9   6
ATOM      6  N   UNL     1      -2.139  -0.688  -0.997  0.00  0.00    -0.306 NA
ATOM     26  H   UNL     1      -2.382  -1.653  -0.775  0.00  0.00    +0.123 HD
BRANCH   6  10
ATOM      4  O   UNL     1      -7.473   0.006   1.983  0.00  0.00    -0.276 OA
ATOM      7  N   UNL     1      -5.880   0.669   0.427  0.00  0.00    -0.302 N 
ATOM     10  C   UNL     1      -3.175   0.214  -0.498  0.00  0.00    +0.057 C 
ATOM     13  C   UNL     1      -3.632  -0.229   0.897  0.00  0.00    +0.037 C 
ATOM     14  C   UNL     1      -4.362   0.240  -1.469  0.00  0.00    +0.037 C 
ATOM     16  C   UNL     1      -4.782   0.644   1.397  0.00  0.00    +0.109 C 
ATOM     17  C   UNL     1      -5.499   1.104  -0.922  0.00  0.00    +0.109 C 
ATOM     19  C   UNL     1      -7.171   0.334   0.833  0.00  0.00    +0.212 C 
ATOM     20  C   UNL     1      -8.245   0.381  -0.225  0.00  0.00    +0.109 C 
ENDBRANCH   6  10
ENDBRANCH   9   6
BRANCH  12  18
ATOM     18  C   UNL     1       2.691  -1.266  -1.083  0.00  0.00    +0.138 C 
BRANCH  18   8
ATOM      5  O   UNL     1       4.553  -1.544   1.085  0.00  0.00    -0.270 OA
ATOM      8  N   UNL     1       3.874  -0.484  -0.864  0.00  0.00    -0.308 N 
ATOM     21  C   UNL     1       4.723  -0.690   0.219  0.00  0.00    +0.251 C 
ATOM     28  H   UNL     1       4.070   0.252  -1.534  0.00  0.00    +0.149 HD
BRANCH  21  22
ATOM      1  S   UNL     1       6.987   0.035   1.622  0.00  0.00    -0.092 S 
ATOM     22  C   UNL     1       5.893   0.221   0.318  0.00  0.00    +0.074 A 
ATOM     23  C   UNL     1       6.259   1.251  -0.521  0.00  0.00    +0.021 A 
ATOM     24  C   UNL     1       7.453   1.895  -0.086  0.00  0.00    +0.008 A 
ATOM     25  C   UNL     1       7.955   1.333   1.067  0.00  0.00    +0.046 A 
ENDBRANCH  21  22
ENDBRANCH  18   8
ENDBRANCH  12  18
TORSDOF 6
