MODEL 1
REMARK VINA RESULT:      -6.3      0.000      0.000
REMARK  Name = 11883015
REMARK  15 active torsions:
REMARK  status: ('A' for Active; 'I' for Inactive)
REMARK    1  A    between atoms: O_2  and  C_15
REMARK    2  A    between atoms: O_3  and  C_20
REMARK    3  A    between atoms: O_6  and  C_29
REMARK    4  A    between atoms: O_6  and  C_33
REMARK    5  A    between atoms: N_8  and  C_26
REMARK    6  A    between atoms: C_10  and  C_18
REMARK    7  A    between atoms: C_12  and  C_20
REMARK    8  A    between atoms: C_12  and  C_21
REMARK    9  A    between atoms: C_13  and  C_23
REMARK   10  A    between atoms: C_23  and  C_24
REMARK   11  A    between atoms: C_26  and  C_29
REMARK   12  A    between atoms: C_27  and  C_28
REMARK   13  A    between atoms: C_28  and  C_30
REMARK   14  A    between atoms: C_28  and  C_31
REMARK   15  A    between atoms: C_28  and  C_32
REMARK                            x       y       z     vdW  Elec       q    Type
REMARK                         _______ _______ _______ _____ _____    ______ ____
ROOT
ATOM      1  S   UNL     1      18.032   6.566  20.505  0.00  0.00    -0.057 S 
ATOM      5  O   UNL     1      20.549   9.244  23.339  0.00  0.00    -0.275 OA
ATOM      7  N   UNL     1      18.035   8.747  21.896  0.00  0.00    -0.229 NA
ATOM      9  N   UNL     1      20.046   7.420  21.950  0.00  0.00    -0.264 N 
ATOM     10  C   UNL     1      14.591   9.570  20.371  0.00  0.00    -0.019 C 
ATOM     11  C   UNL     1      14.194   8.034  20.238  0.00  0.00    +0.011 C 
ATOM     12  C   UNL     1      12.831   7.707  19.517  0.00  0.00    +0.021 C 
ATOM     13  C   UNL     1      15.732   9.690  21.482  0.00  0.00    +0.054 C 
ATOM     14  C   UNL     1      13.358  10.382  20.847  0.00  0.00    +0.010 C 
ATOM     15  C   UNL     1      11.717   8.636  20.078  0.00  0.00    +0.123 C 
ATOM     16  C   UNL     1      15.393   7.179  19.732  0.00  0.00    +0.049 C 
ATOM     17  C   UNL     1      12.094  10.114  20.042  0.00  0.00    +0.032 C 
ATOM     18  C   UNL     1      15.101  10.178  19.040  0.00  0.00    +0.012 C 
ATOM     19  C   UNL     1      16.804   8.652  21.273  0.00  0.00    +0.058 A 
ATOM     21  C   UNL     1      12.420   6.243  19.847  0.00  0.00    +0.016 C 
ATOM     22  C   UNL     1      16.625   7.525  20.498  0.00  0.00    +0.015 A 
ATOM     25  C   UNL     1      18.765   7.707  21.558  0.00  0.00    +0.165 A 
ATOM     27  C   UNL     1      20.866   8.183  22.805  0.00  0.00    +0.224 C 
ATOM     37  H   UNL     1      20.417   6.557  21.564  0.00  0.00    +0.157 HD
ENDROOT
BRANCH  27  28
ATOM     28  C   UNL     1      22.270   7.568  23.038  0.00  0.00    +0.039 C 
ATOM     30  C   UNL     1      22.819   6.986  21.725  0.00  0.00    +0.020 C 
ATOM     31  C   UNL     1      23.232   8.632  23.590  0.00  0.00    +0.020 C 
ATOM     32  C   UNL     1      22.164   6.427  24.068  0.00  0.00    +0.020 C 
ENDBRANCH  27  28
BRANCH  15   2
ATOM      2  O   UNL     1      10.499   8.456  19.356  0.00  0.00    -0.391 OA
ATOM     34  H   UNL     1      10.729   8.275  18.429  0.00  0.00    +0.210 HD
ENDBRANCH  15   2
BRANCH  12  20
ATOM     20  C   UNL     1      12.887   7.784  17.974  0.00  0.00    +0.165 C 
BRANCH  20   3
ATOM      3  O   UNL     1      11.868   6.953  17.464  0.00  0.00    -0.394 OA
ATOM     35  H   UNL     1      11.104   7.521  17.266  0.00  0.00    +0.209 HD
ENDBRANCH  20   3
ENDBRANCH  12  20
BRANCH  13  23
ATOM     23  C   UNL     1      16.333  11.095  21.632  0.00  0.00    +0.106 C 
BRANCH  23  24
ATOM      4  O   UNL     1      16.905  12.481  23.530  0.00  0.00    -0.276 OA
ATOM      8  N   UNL     1      15.069  11.061  23.659  0.00  0.00    -0.313 N 
ATOM     24  C   UNL     1      16.163  11.639  23.031  0.00  0.00    +0.214 C 
ATOM     36  H   UNL     1      14.510  10.379  23.154  0.00  0.00    +0.149 HD
BRANCH   8  26
ATOM     26  C   UNL     1      14.668  11.390  25.007  0.00  0.00    +0.132 C 
BRANCH  26  29
ATOM     29  C   UNL     1      13.523  12.385  25.021  0.00  0.00    +0.178 C 
BRANCH  29   6
ATOM      6  O   UNL     1      12.417  11.823  25.714  0.00  0.00    -0.381 OA
ATOM     33  C   UNL     1      11.368  11.470  24.821  0.00  0.00    +0.194 C 
ENDBRANCH  29   6
ENDBRANCH  26  29
ENDBRANCH   8  26
ENDBRANCH  23  24
ENDBRANCH  13  23
TORSDOF 9
ENDMDL
MODEL 2
REMARK VINA RESULT:      -6.0     30.031     33.239
REMARK  Name = 11883015
REMARK  15 active torsions:
REMARK  status: ('A' for Active; 'I' for Inactive)
REMARK    1  A    between atoms: O_2  and  C_15
REMARK    2  A    between atoms: O_3  and  C_20
REMARK    3  A    between atoms: O_6  and  C_29
REMARK    4  A    between atoms: O_6  and  C_33
REMARK    5  A    between atoms: N_8  and  C_26
REMARK    6  A    between atoms: C_10  and  C_18
REMARK    7  A    between atoms: C_12  and  C_20
REMARK    8  A    between atoms: C_12  and  C_21
REMARK    9  A    between atoms: C_13  and  C_23
REMARK   10  A    between atoms: C_23  and  C_24
REMARK   11  A    between atoms: C_26  and  C_29
REMARK   12  A    between atoms: C_27  and  C_28
REMARK   13  A    between atoms: C_28  and  C_30
REMARK   14  A    between atoms: C_28  and  C_31
REMARK   15  A    between atoms: C_28  and  C_32
REMARK                            x       y       z     vdW  Elec       q    Type
REMARK                         _______ _______ _______ _____ _____    ______ ____
ROOT
ATOM      1  S   UNL     1     -10.322 -12.821  19.994  0.00  0.00    -0.057 S 
ATOM      5  O   UNL     1     -13.516  -9.528  19.296  0.00  0.00    -0.275 OA
ATOM      7  N   UNL     1     -10.821 -10.589  18.786  0.00  0.00    -0.229 NA
ATOM      9  N   UNL     1     -12.584 -11.504  20.152  0.00  0.00    -0.264 N 
ATOM     10  C   UNL     1      -7.141 -10.539  17.636  0.00  0.00    -0.019 C 
ATOM     11  C   UNL     1      -7.051 -12.129  17.591  0.00  0.00    +0.011 C 
ATOM     12  C   UNL     1      -5.640 -12.756  17.272  0.00  0.00    +0.021 C 
ATOM     13  C   UNL     1      -8.682 -10.130  17.531  0.00  0.00    +0.054 C 
ATOM     14  C   UNL     1      -6.393  -9.946  16.414  0.00  0.00    +0.010 C 
ATOM     15  C   UNL     1      -5.013 -12.019  16.056  0.00  0.00    +0.123 C 
ATOM     16  C   UNL     1      -7.763 -12.773  18.816  0.00  0.00    +0.049 C 
ATOM     17  C   UNL     1      -4.989 -10.503  16.220  0.00  0.00    +0.032 C 
ATOM     18  C   UNL     1      -6.536  -9.939  18.929  0.00  0.00    +0.012 C 
ATOM     19  C   UNL     1      -9.528 -10.958  18.463  0.00  0.00    +0.058 A 
ATOM     21  C   UNL     1      -5.829 -14.245  16.863  0.00  0.00    +0.016 C 
ATOM     22  C   UNL     1      -9.103 -12.149  19.014  0.00  0.00    +0.015 A 
ATOM     25  C   UNL     1     -11.333 -11.493  19.593  0.00  0.00    +0.165 A 
ATOM     27  C   UNL     1     -13.600 -10.543  19.984  0.00  0.00    +0.224 C 
ATOM     37  H   UNL     1     -12.767 -12.306  20.747  0.00  0.00    +0.157 HD
ENDROOT
BRANCH  27  28
ATOM     28  C   UNL     1     -14.899 -10.864  20.766  0.00  0.00    +0.039 C 
ATOM     30  C   UNL     1     -15.595  -9.562  21.196  0.00  0.00    +0.020 C 
ATOM     31  C   UNL     1     -15.845 -11.710  19.900  0.00  0.00    +0.020 C 
ATOM     32  C   UNL     1     -14.549 -11.668  22.032  0.00  0.00    +0.020 C 
ENDBRANCH  27  28
BRANCH  15   2
ATOM      2  O   UNL     1      -3.681 -12.476  15.822  0.00  0.00    -0.391 OA
ATOM     34  H   UNL     1      -3.133 -11.698  15.625  0.00  0.00    +0.210 HD
ENDBRANCH  15   2
BRANCH  12  20
ATOM     20  C   UNL     1      -4.663 -12.776  18.469  0.00  0.00    +0.165 C 
BRANCH  20   3
ATOM      3  O   UNL     1      -4.036 -14.039  18.493  0.00  0.00    -0.394 OA
ATOM     35  H   UNL     1      -4.688 -14.691  18.184  0.00  0.00    +0.209 HD
ENDBRANCH  20   3
ENDBRANCH  12  20
BRANCH  13  23
ATOM     23  C   UNL     1      -8.957  -8.630  17.706  0.00  0.00    +0.106 C 
BRANCH  23  24
ATOM      4  O   UNL     1      -9.566  -8.512  15.368  0.00  0.00    -0.276 OA
ATOM      8  N   UNL     1     -10.342  -6.887  16.839  0.00  0.00    -0.313 N 
ATOM     24  C   UNL     1      -9.638  -8.033  16.496  0.00  0.00    +0.214 C 
ATOM     36  H   UNL     1     -10.347  -6.578  17.806  0.00  0.00    +0.149 HD
BRANCH   8  26
ATOM     26  C   UNL     1     -11.090  -6.105  15.881  0.00  0.00    +0.132 C 
BRANCH  26  29
ATOM     29  C   UNL     1     -12.549  -6.518  15.842  0.00  0.00    +0.178 C 
BRANCH  29   6
ATOM      6  O   UNL     1     -13.106  -6.167  14.583  0.00  0.00    -0.381 OA
ATOM     33  C   UNL     1     -12.274  -5.253  13.881  0.00  0.00    +0.194 C 
ENDBRANCH  29   6
ENDBRANCH  26  29
ENDBRANCH   8  26
ENDBRANCH  23  24
ENDBRANCH  13  23
TORSDOF 9
ENDMDL
MODEL 3
REMARK VINA RESULT:      -6.0     16.002     19.694
REMARK  Name = 11883015
REMARK  15 active torsions:
REMARK  status: ('A' for Active; 'I' for Inactive)
REMARK    1  A    between atoms: O_2  and  C_15
REMARK    2  A    between atoms: O_3  and  C_20
REMARK    3  A    between atoms: O_6  and  C_29
REMARK    4  A    between atoms: O_6  and  C_33
REMARK    5  A    between atoms: N_8  and  C_26
REMARK    6  A    between atoms: C_10  and  C_18
REMARK    7  A    between atoms: C_12  and  C_20
REMARK    8  A    between atoms: C_12  and  C_21
REMARK    9  A    between atoms: C_13  and  C_23
REMARK   10  A    between atoms: C_23  and  C_24
REMARK   11  A    between atoms: C_26  and  C_29
REMARK   12  A    between atoms: C_27  and  C_28
REMARK   13  A    between atoms: C_28  and  C_30
REMARK   14  A    between atoms: C_28  and  C_31
REMARK   15  A    between atoms: C_28  and  C_32
REMARK                            x       y       z     vdW  Elec       q    Type
REMARK                         _______ _______ _______ _____ _____    ______ ____
ROOT
ATOM      1  S   UNL     1      14.726   8.022   6.502  0.00  0.00    -0.057 S 
ATOM      5  O   UNL     1      12.060   6.178   3.181  0.00  0.00    -0.275 OA
ATOM      7  N   UNL     1      14.649   7.293   4.022  0.00  0.00    -0.229 NA
ATOM      9  N   UNL     1      12.637   6.979   5.310  0.00  0.00    -0.264 N 
ATOM     10  C   UNL     1      18.171   8.803   3.603  0.00  0.00    -0.019 C 
ATOM     11  C   UNL     1      18.574   8.483   5.110  0.00  0.00    +0.011 C 
ATOM     12  C   UNL     1      19.974   9.013   5.605  0.00  0.00    +0.021 C 
ATOM     13  C   UNL     1      16.971   7.830   3.197  0.00  0.00    +0.054 C 
ATOM     14  C   UNL     1      19.377   8.506   2.674  0.00  0.00    +0.010 C 
ATOM     15  C   UNL     1      21.056   8.674   4.540  0.00  0.00    +0.123 C 
ATOM     16  C   UNL     1      17.404   8.795   6.089  0.00  0.00    +0.049 C 
ATOM     17  C   UNL     1      20.683   9.138   3.136  0.00  0.00    +0.032 C 
ATOM     18  C   UNL     1      17.735  10.274   3.395  0.00  0.00    +0.012 C 
ATOM     19  C   UNL     1      15.911   7.800   4.267  0.00  0.00    +0.058 A 
ATOM     21  C   UNL     1      20.365   8.269   6.914  0.00  0.00    +0.016 C 
ATOM     22  C   UNL     1      16.132   8.221   5.563  0.00  0.00    +0.015 A 
ATOM     25  C   UNL     1      13.937   7.367   5.125  0.00  0.00    +0.165 A 
ATOM     27  C   UNL     1      11.771   6.414   4.352  0.00  0.00    +0.224 C 
ATOM     37  H   UNL     1      12.287   7.129   6.252  0.00  0.00    +0.157 HD
ENDROOT
BRANCH  27  28
ATOM     28  C   UNL     1      10.357   6.093   4.899  0.00  0.00    +0.039 C 
ATOM     30  C   UNL     1      10.093   4.580   4.833  0.00  0.00    +0.020 C 
ATOM     31  C   UNL     1      10.221   6.593   6.346  0.00  0.00    +0.020 C 
ATOM     32  C   UNL     1       9.300   6.809   4.037  0.00  0.00    +0.020 C 
ENDBRANCH  27  28
BRANCH  15   2
ATOM      2  O   UNL     1      22.311   9.252   4.896  0.00  0.00    -0.391 OA
ATOM     34  H   UNL     1      22.974   8.934   4.261  0.00  0.00    +0.210 HD
ENDBRANCH  15   2
BRANCH  12  20
ATOM     20  C   UNL     1      20.002  10.517   5.959  0.00  0.00    +0.165 C 
BRANCH  20   3
ATOM      3  O   UNL     1      20.915  10.693   7.018  0.00  0.00    -0.394 OA
ATOM     35  H   UNL     1      20.738   9.996   7.673  0.00  0.00    +0.209 HD
ENDBRANCH  20   3
ENDBRANCH  12  20
BRANCH  13  23
ATOM     23  C   UNL     1      16.365   8.108   1.814  0.00  0.00    +0.106 C 
BRANCH  23  24
ATOM      4  O   UNL     1      17.143   6.703   0.005  0.00  0.00    -0.276 OA
ATOM      8  N   UNL     1      15.373   5.989   1.331  0.00  0.00    -0.313 N 
ATOM     24  C   UNL     1      16.363   6.877   0.937  0.00  0.00    +0.214 C 
ATOM     36  H   UNL     1      14.783   6.222   2.125  0.00  0.00    +0.149 HD
BRANCH   8  26
ATOM     26  C   UNL     1      15.137   4.726   0.669  0.00  0.00    +0.132 C 
BRANCH  26  29
ATOM     29  C   UNL     1      15.026   3.587   1.666  0.00  0.00    +0.178 C 
BRANCH  29   6
ATOM      6  O   UNL     1      13.734   3.002   1.573  0.00  0.00    -0.381 OA
ATOM     33  C   UNL     1      13.088   3.355   0.357  0.00  0.00    +0.194 C 
ENDBRANCH  29   6
ENDBRANCH  26  29
ENDBRANCH   8  26
ENDBRANCH  23  24
ENDBRANCH  13  23
TORSDOF 9
ENDMDL
MODEL 4
REMARK VINA RESULT:      -5.9     15.939     19.444
REMARK  Name = 11883015
REMARK  15 active torsions:
REMARK  status: ('A' for Active; 'I' for Inactive)
REMARK    1  A    between atoms: O_2  and  C_15
REMARK    2  A    between atoms: O_3  and  C_20
REMARK    3  A    between atoms: O_6  and  C_29
REMARK    4  A    between atoms: O_6  and  C_33
REMARK    5  A    between atoms: N_8  and  C_26
REMARK    6  A    between atoms: C_10  and  C_18
REMARK    7  A    between atoms: C_12  and  C_20
REMARK    8  A    between atoms: C_12  and  C_21
REMARK    9  A    between atoms: C_13  and  C_23
REMARK   10  A    between atoms: C_23  and  C_24
REMARK   11  A    between atoms: C_26  and  C_29
REMARK   12  A    between atoms: C_27  and  C_28
REMARK   13  A    between atoms: C_28  and  C_30
REMARK   14  A    between atoms: C_28  and  C_31
REMARK   15  A    between atoms: C_28  and  C_32
REMARK                            x       y       z     vdW  Elec       q    Type
REMARK                         _______ _______ _______ _____ _____    ______ ____
ROOT
ATOM      1  S   UNL     1      14.075   8.333   6.840  0.00  0.00    -0.057 S 
ATOM      5  O   UNL     1      11.004   5.848   4.404  0.00  0.00    -0.275 OA
ATOM      7  N   UNL     1      13.654   7.109   4.600  0.00  0.00    -0.229 NA
ATOM      9  N   UNL     1      11.864   7.070   6.214  0.00  0.00    -0.264 N 
ATOM     10  C   UNL     1      17.029   8.496   3.357  0.00  0.00    -0.019 C 
ATOM     11  C   UNL     1      17.660   8.493   4.819  0.00  0.00    +0.011 C 
ATOM     12  C   UNL     1      19.101   9.111   4.978  0.00  0.00    +0.021 C 
ATOM     13  C   UNL     1      15.812   7.462   3.343  0.00  0.00    +0.054 C 
ATOM     14  C   UNL     1      18.093   8.012   2.337  0.00  0.00    +0.010 C 
ATOM     15  C   UNL     1      20.024   8.559   3.855  0.00  0.00    +0.123 C 
ATOM     16  C   UNL     1      16.638   9.001   5.879  0.00  0.00    +0.049 C 
ATOM     17  C   UNL     1      19.434   8.724   2.459  0.00  0.00    +0.032 C 
ATOM     18  C   UNL     1      16.524   9.893   2.922  0.00  0.00    +0.012 C 
ATOM     19  C   UNL     1      14.923   7.654   4.544  0.00  0.00    +0.058 A 
ATOM     21  C   UNL     1      19.703   8.652   6.337  0.00  0.00    +0.016 C 
ATOM     22  C   UNL     1      15.321   8.332   5.678  0.00  0.00    +0.015 A 
ATOM     25  C   UNL     1      13.111   7.409   5.760  0.00  0.00    +0.165 A 
ATOM     27  C   UNL     1      10.884   6.321   5.533  0.00  0.00    +0.224 C 
ATOM     37  H   UNL     1      11.654   7.411   7.147  0.00  0.00    +0.157 HD
ENDROOT
BRANCH  27  28
ATOM     28  C   UNL     1       9.577   6.122   6.340  0.00  0.00    +0.039 C 
ATOM     30  C   UNL     1       8.380   5.979   5.385  0.00  0.00    +0.020 C 
ATOM     31  C   UNL     1       9.690   4.879   7.238  0.00  0.00    +0.020 C 
ATOM     32  C   UNL     1       9.337   7.350   7.239  0.00  0.00    +0.020 C 
ENDBRANCH  27  28
BRANCH  15   2
ATOM      2  O   UNL     1      21.300   9.197   3.892  0.00  0.00    -0.391 OA
ATOM     34  H   UNL     1      21.741   8.927   4.715  0.00  0.00    +0.210 HD
ENDBRANCH  15   2
BRANCH  12  20
ATOM     20  C   UNL     1      19.137  10.656   5.010  0.00  0.00    +0.165 C 
BRANCH  20   3
ATOM      3  O   UNL     1      20.185  11.045   5.868  0.00  0.00    -0.394 OA
ATOM     35  H   UNL     1      20.995  11.094   5.332  0.00  0.00    +0.209 HD
ENDBRANCH  20   3
ENDBRANCH  12  20
BRANCH  13  23
ATOM     23  C   UNL     1      15.000   7.450   2.040  0.00  0.00    +0.106 C 
BRANCH  23  24
ATOM      4  O   UNL     1      15.405   6.005   0.143  0.00  0.00    -0.276 OA
ATOM      8  N   UNL     1      14.784   5.074   2.180  0.00  0.00    -0.313 N 
ATOM     24  C   UNL     1      15.094   6.122   1.325  0.00  0.00    +0.214 C 
ATOM     36  H   UNL     1      14.549   5.276   3.148  0.00  0.00    +0.149 HD
BRANCH   8  26
ATOM     26  C   UNL     1      14.789   3.690   1.767  0.00  0.00    +0.132 C 
BRANCH  26  29
ATOM     29  C   UNL     1      13.420   3.248   1.284  0.00  0.00    +0.178 C 
BRANCH  29   6
ATOM      6  O   UNL     1      12.421   3.788   2.138  0.00  0.00    -0.381 OA
ATOM     33  C   UNL     1      11.213   4.039   1.432  0.00  0.00    +0.194 C 
ENDBRANCH  29   6
ENDBRANCH  26  29
ENDBRANCH   8  26
ENDBRANCH  23  24
ENDBRANCH  13  23
TORSDOF 9
ENDMDL
MODEL 5
REMARK VINA RESULT:      -5.8     16.872     20.614
REMARK  Name = 11883015
REMARK  15 active torsions:
REMARK  status: ('A' for Active; 'I' for Inactive)
REMARK    1  A    between atoms: O_2  and  C_15
REMARK    2  A    between atoms: O_3  and  C_20
REMARK    3  A    between atoms: O_6  and  C_29
REMARK    4  A    between atoms: O_6  and  C_33
REMARK    5  A    between atoms: N_8  and  C_26
REMARK    6  A    between atoms: C_10  and  C_18
REMARK    7  A    between atoms: C_12  and  C_20
REMARK    8  A    between atoms: C_12  and  C_21
REMARK    9  A    between atoms: C_13  and  C_23
REMARK   10  A    between atoms: C_23  and  C_24
REMARK   11  A    between atoms: C_26  and  C_29
REMARK   12  A    between atoms: C_27  and  C_28
REMARK   13  A    between atoms: C_28  and  C_30
REMARK   14  A    between atoms: C_28  and  C_31
REMARK   15  A    between atoms: C_28  and  C_32
REMARK                            x       y       z     vdW  Elec       q    Type
REMARK                         _______ _______ _______ _____ _____    ______ ____
ROOT
ATOM      1  S   UNL     1      10.147   7.747  -0.401  0.00  0.00    -0.057 S 
ATOM      5  O   UNL     1      12.353   4.778   2.402  0.00  0.00    -0.275 OA
ATOM      7  N   UNL     1      10.281   6.830   2.014  0.00  0.00    -0.229 NA
ATOM      9  N   UNL     1      11.835   5.915   0.415  0.00  0.00    -0.264 N 
ATOM     10  C   UNL     1       7.671   9.480   3.027  0.00  0.00    -0.019 C 
ATOM     11  C   UNL     1       6.978   9.461   1.594  0.00  0.00    +0.011 C 
ATOM     12  C   UNL     1       5.824  10.506   1.343  0.00  0.00    +0.021 C 
ATOM     13  C   UNL     1       8.463   8.105   3.211  0.00  0.00    +0.054 C 
ATOM     14  C   UNL     1       6.579   9.565   4.126  0.00  0.00    +0.010 C 
ATOM     15  C   UNL     1       4.849  10.495   2.554  0.00  0.00    +0.123 C 
ATOM     16  C   UNL     1       8.035   9.407   0.452  0.00  0.00    +0.049 C 
ATOM     17  C   UNL     1       5.555  10.668   3.895  0.00  0.00    +0.032 C 
ATOM     18  C   UNL     1       8.650  10.666   3.207  0.00  0.00    +0.012 C 
ATOM     19  C   UNL     1       9.279   7.782   1.985  0.00  0.00    +0.058 A 
ATOM     21  C   UNL     1       5.010  10.071   0.091  0.00  0.00    +0.016 C 
ATOM     22  C   UNL     1       9.058   8.364   0.754  0.00  0.00    +0.015 A 
ATOM     25  C   UNL     1      10.812   6.733   0.815  0.00  0.00    +0.165 A 
ATOM     27  C   UNL     1      12.547   4.992   1.207  0.00  0.00    +0.224 C 
ATOM     37  H   UNL     1      12.084   6.007  -0.565  0.00  0.00    +0.157 HD
ENDROOT
BRANCH  27  28
ATOM     28  C   UNL     1      13.650   4.226   0.435  0.00  0.00    +0.039 C 
ATOM     30  C   UNL     1      13.019   3.150  -0.464  0.00  0.00    +0.020 C 
ATOM     31  C   UNL     1      14.483   5.202  -0.411  0.00  0.00    +0.020 C 
ATOM     32  C   UNL     1      14.589   3.530   1.438  0.00  0.00    +0.020 C 
ENDBRANCH  27  28
BRANCH  15   2
ATOM      2  O   UNL     1       3.866  11.521   2.418  0.00  0.00    -0.391 OA
ATOM     34  H   UNL     1       3.127  11.302   3.010  0.00  0.00    +0.210 HD
ENDBRANCH  15   2
BRANCH  12  20
ATOM     20  C   UNL     1       6.313  11.941   1.042  0.00  0.00    +0.165 C 
BRANCH  20   3
ATOM      3  O   UNL     1       5.427  12.510   0.106  0.00  0.00    -0.394 OA
ATOM     35  H   UNL     1       4.626  11.959   0.092  0.00  0.00    +0.209 HD
ENDBRANCH  20   3
ENDBRANCH  12  20
BRANCH  13  23
ATOM     23  C   UNL     1       9.311   8.021   4.488  0.00  0.00    +0.106 C 
BRANCH  23  24
ATOM      4  O   UNL     1       7.817   6.371   5.435  0.00  0.00    -0.276 OA
ATOM      8  N   UNL     1      10.084   6.291   5.942  0.00  0.00    -0.313 N 
ATOM     24  C   UNL     1       8.957   6.815   5.326  0.00  0.00    +0.214 C 
ATOM     36  H   UNL     1      10.987   6.727   5.779  0.00  0.00    +0.149 HD
BRANCH   8  26
ATOM     26  C   UNL     1      10.045   5.135   6.808  0.00  0.00    +0.132 C 
BRANCH  26  29
ATOM     29  C   UNL     1      10.080   5.534   8.272  0.00  0.00    +0.178 C 
BRANCH  29   6
ATOM      6  O   UNL     1       9.971   4.372   9.081  0.00  0.00    -0.381 OA
ATOM     33  C   UNL     1       9.094   4.582  10.180  0.00  0.00    +0.194 C 
ENDBRANCH  29   6
ENDBRANCH  26  29
ENDBRANCH   8  26
ENDBRANCH  23  24
ENDBRANCH  13  23
TORSDOF 9
ENDMDL
MODEL 6
REMARK VINA RESULT:      -5.8     28.009     31.565
REMARK  Name = 11883015
REMARK  15 active torsions:
REMARK  status: ('A' for Active; 'I' for Inactive)
REMARK    1  A    between atoms: O_2  and  C_15
REMARK    2  A    between atoms: O_3  and  C_20
REMARK    3  A    between atoms: O_6  and  C_29
REMARK    4  A    between atoms: O_6  and  C_33
REMARK    5  A    between atoms: N_8  and  C_26
REMARK    6  A    between atoms: C_10  and  C_18
REMARK    7  A    between atoms: C_12  and  C_20
REMARK    8  A    between atoms: C_12  and  C_21
REMARK    9  A    between atoms: C_13  and  C_23
REMARK   10  A    between atoms: C_23  and  C_24
REMARK   11  A    between atoms: C_26  and  C_29
REMARK   12  A    between atoms: C_27  and  C_28
REMARK   13  A    between atoms: C_28  and  C_30
REMARK   14  A    between atoms: C_28  and  C_31
REMARK   15  A    between atoms: C_28  and  C_32
REMARK                            x       y       z     vdW  Elec       q    Type
REMARK                         _______ _______ _______ _____ _____    ______ ____
ROOT
ATOM      1  S   UNL     1      -8.709  -9.787  12.418  0.00  0.00    -0.057 S 
ATOM      5  O   UNL     1      -4.083 -10.055  12.668  0.00  0.00    -0.275 OA
ATOM      7  N   UNL     1      -6.695 -10.047  14.020  0.00  0.00    -0.229 NA
ATOM      9  N   UNL     1      -6.197  -9.846  11.671  0.00  0.00    -0.264 N 
ATOM     10  C   UNL     1      -9.171  -9.798  16.964  0.00  0.00    -0.019 C 
ATOM     11  C   UNL     1     -10.352 -10.469  16.132  0.00  0.00    +0.011 C 
ATOM     12  C   UNL     1     -11.766 -10.538  16.825  0.00  0.00    +0.021 C 
ATOM     13  C   UNL     1      -7.788 -10.222  16.287  0.00  0.00    +0.054 C 
ATOM     14  C   UNL     1      -9.191 -10.343  18.417  0.00  0.00    +0.010 C 
ATOM     15  C   UNL     1     -11.600 -11.058  18.281  0.00  0.00    +0.123 C 
ATOM     16  C   UNL     1     -10.394  -9.930  14.672  0.00  0.00    +0.049 C 
ATOM     17  C   UNL     1     -10.560 -10.281  19.081  0.00  0.00    +0.032 C 
ATOM     18  C   UNL     1      -9.271  -8.253  17.013  0.00  0.00    +0.012 C 
ATOM     19  C   UNL     1      -7.843 -10.052  14.790  0.00  0.00    +0.058 A 
ATOM     21  C   UNL     1     -12.653 -11.567  16.066  0.00  0.00    +0.016 C 
ATOM     22  C   UNL     1      -9.024  -9.941  14.085  0.00  0.00    +0.015 A 
ATOM     25  C   UNL     1      -7.030  -9.906  12.756  0.00  0.00    +0.165 A 
ATOM     27  C   UNL     1      -4.790  -9.921  11.672  0.00  0.00    +0.224 C 
ATOM     37  H   UNL     1      -6.677  -9.734  10.783  0.00  0.00    +0.157 HD
ENDROOT
BRANCH  27  28
ATOM     28  C   UNL     1      -4.158  -9.816  10.261  0.00  0.00    +0.039 C 
ATOM     30  C   UNL     1      -4.160 -11.191   9.574  0.00  0.00    +0.020 C 
ATOM     31  C   UNL     1      -4.928  -8.796   9.408  0.00  0.00    +0.020 C 
ATOM     32  C   UNL     1      -2.698  -9.339  10.387  0.00  0.00    +0.020 C 
ENDBRANCH  27  28
BRANCH  15   2
ATOM      2  O   UNL     1     -12.844 -11.011  18.979  0.00  0.00    -0.391 OA
ATOM     34  H   UNL     1     -12.684 -11.314  19.888  0.00  0.00    +0.210 HD
ENDBRANCH  15   2
BRANCH  12  20
ATOM     20  C   UNL     1     -12.558  -9.211  16.802  0.00  0.00    +0.165 C 
BRANCH  20   3
ATOM      3  O   UNL     1     -13.928  -9.528  16.700  0.00  0.00    -0.394 OA
ATOM     35  H   UNL     1     -14.106 -10.247  17.331  0.00  0.00    +0.209 HD
ENDBRANCH  20   3
ENDBRANCH  12  20
BRANCH  13  23
ATOM     23  C   UNL     1      -6.550  -9.539  16.884  0.00  0.00    +0.106 C 
BRANCH  23  24
ATOM      4  O   UNL     1      -5.558 -11.512  17.872  0.00  0.00    -0.276 OA
ATOM      8  N   UNL     1      -4.275 -10.153  16.490  0.00  0.00    -0.313 N 
ATOM     24  C   UNL     1      -5.435 -10.522  17.155  0.00  0.00    +0.214 C 
ATOM     36  H   UNL     1      -4.279  -9.319  15.910  0.00  0.00    +0.149 HD
BRANCH   8  26
ATOM     26  C   UNL     1      -3.046 -10.909  16.569  0.00  0.00    +0.132 C 
BRANCH  26  29
ATOM     29  C   UNL     1      -2.031 -10.430  15.547  0.00  0.00    +0.178 C 
BRANCH  29   6
ATOM      6  O   UNL     1      -1.378 -11.551  14.968  0.00  0.00    -0.381 OA
ATOM     33  C   UNL     1      -2.313 -12.500  14.471  0.00  0.00    +0.194 C 
ENDBRANCH  29   6
ENDBRANCH  26  29
ENDBRANCH   8  26
ENDBRANCH  23  24
ENDBRANCH  13  23
TORSDOF 9
ENDMDL
MODEL 7
REMARK VINA RESULT:      -5.7     28.727     31.856
REMARK  Name = 11883015
REMARK  15 active torsions:
REMARK  status: ('A' for Active; 'I' for Inactive)
REMARK    1  A    between atoms: O_2  and  C_15
REMARK    2  A    between atoms: O_3  and  C_20
REMARK    3  A    between atoms: O_6  and  C_29
REMARK    4  A    between atoms: O_6  and  C_33
REMARK    5  A    between atoms: N_8  and  C_26
REMARK    6  A    between atoms: C_10  and  C_18
REMARK    7  A    between atoms: C_12  and  C_20
REMARK    8  A    between atoms: C_12  and  C_21
REMARK    9  A    between atoms: C_13  and  C_23
REMARK   10  A    between atoms: C_23  and  C_24
REMARK   11  A    between atoms: C_26  and  C_29
REMARK   12  A    between atoms: C_27  and  C_28
REMARK   13  A    between atoms: C_28  and  C_30
REMARK   14  A    between atoms: C_28  and  C_31
REMARK   15  A    between atoms: C_28  and  C_32
REMARK                            x       y       z     vdW  Elec       q    Type
REMARK                         _______ _______ _______ _____ _____    ______ ____
ROOT
ATOM      1  S   UNL     1      -8.161  -9.810  12.898  0.00  0.00    -0.057 S 
ATOM      5  O   UNL     1      -3.917 -10.764  14.517  0.00  0.00    -0.275 OA
ATOM      7  N   UNL     1      -6.767 -10.250  15.032  0.00  0.00    -0.229 NA
ATOM      9  N   UNL     1      -5.587 -10.311  12.932  0.00  0.00    -0.264 N 
ATOM     10  C   UNL     1      -9.906  -9.397  17.101  0.00  0.00    -0.019 C 
ATOM     11  C   UNL     1     -10.893  -9.941  15.976  0.00  0.00    +0.011 C 
ATOM     12  C   UNL     1     -12.438  -9.740  16.220  0.00  0.00    +0.021 C 
ATOM     13  C   UNL     1      -8.479 -10.079  16.877  0.00  0.00    +0.054 C 
ATOM     14  C   UNL     1     -10.435  -9.818  18.497  0.00  0.00    +0.010 C 
ATOM     15  C   UNL     1     -12.787 -10.164  17.674  0.00  0.00    +0.123 C 
ATOM     16  C   UNL     1     -10.421  -9.517  14.554  0.00  0.00    +0.049 C 
ATOM     17  C   UNL     1     -11.906  -9.496  18.724  0.00  0.00    +0.032 C 
ATOM     18  C   UNL     1      -9.752  -7.856  17.073  0.00  0.00    +0.012 C 
ATOM     19  C   UNL     1      -8.072 -10.019  15.427  0.00  0.00    +0.058 A 
ATOM     21  C   UNL     1     -13.229 -10.676  15.262  0.00  0.00    +0.016 C 
ATOM     22  C   UNL     1      -8.963  -9.784  14.400  0.00  0.00    +0.015 A 
ATOM     25  C   UNL     1      -6.695 -10.159  13.723  0.00  0.00    +0.165 A 
ATOM     27  C   UNL     1      -4.274 -10.600  13.352  0.00  0.00    +0.224 C 
ATOM     37  H   UNL     1      -5.765 -10.196  11.938  0.00  0.00    +0.157 HD
ENDROOT
BRANCH  27  28
ATOM     28  C   UNL     1      -3.254 -10.703  12.190  0.00  0.00    +0.039 C 
ATOM     30  C   UNL     1      -3.221 -12.138  11.639  0.00  0.00    +0.020 C 
ATOM     31  C   UNL     1      -3.620  -9.714  11.072  0.00  0.00    +0.020 C 
ATOM     32  C   UNL     1      -1.848 -10.350  12.709  0.00  0.00    +0.020 C 
ENDBRANCH  27  28
BRANCH  15   2
ATOM      2  O   UNL     1     -14.153  -9.873  17.970  0.00  0.00    -0.391 OA
ATOM     34  H   UNL     1     -14.620  -9.762  17.125  0.00  0.00    +0.210 HD
ENDBRANCH  15   2
BRANCH  12  20
ATOM     20  C   UNL     1     -12.952  -8.313  15.924  0.00  0.00    +0.165 C 
BRANCH  20   3
ATOM      3  O   UNL     1     -14.261  -8.424  15.411  0.00  0.00    -0.394 OA
ATOM     35  H   UNL     1     -14.269  -7.986  14.543  0.00  0.00    +0.209 HD
ENDBRANCH  20   3
ENDBRANCH  12  20
BRANCH  13  23
ATOM     23  C   UNL     1      -7.368  -9.550  17.794  0.00  0.00    +0.106 C 
BRANCH  23  24
ATOM      4  O   UNL     1      -7.038 -10.899  19.775  0.00  0.00    -0.276 OA
ATOM      8  N   UNL     1      -5.776 -11.330  17.871  0.00  0.00    -0.313 N 
ATOM     24  C   UNL     1      -6.734 -10.652  18.611  0.00  0.00    +0.214 C 
ATOM     36  H   UNL     1      -5.605 -11.053  16.909  0.00  0.00    +0.149 HD
BRANCH   8  26
ATOM     26  C   UNL     1      -5.006 -12.432  18.399  0.00  0.00    +0.132 C 
BRANCH  26  29
ATOM     29  C   UNL     1      -5.028 -13.626  17.462  0.00  0.00    +0.178 C 
BRANCH  29   6
ATOM      6  O   UNL     1      -5.954 -13.386  16.412  0.00  0.00    -0.381 OA
ATOM     33  C   UNL     1      -5.459 -13.850  15.163  0.00  0.00    +0.194 C 
ENDBRANCH  29   6
ENDBRANCH  26  29
ENDBRANCH   8  26
ENDBRANCH  23  24
ENDBRANCH  13  23
TORSDOF 9
ENDMDL
MODEL 8
REMARK VINA RESULT:      -5.7     29.548     32.002
REMARK  Name = 11883015
REMARK  15 active torsions:
REMARK  status: ('A' for Active; 'I' for Inactive)
REMARK    1  A    between atoms: O_2  and  C_15
REMARK    2  A    between atoms: O_3  and  C_20
REMARK    3  A    between atoms: O_6  and  C_29
REMARK    4  A    between atoms: O_6  and  C_33
REMARK    5  A    between atoms: N_8  and  C_26
REMARK    6  A    between atoms: C_10  and  C_18
REMARK    7  A    between atoms: C_12  and  C_20
REMARK    8  A    between atoms: C_12  and  C_21
REMARK    9  A    between atoms: C_13  and  C_23
REMARK   10  A    between atoms: C_23  and  C_24
REMARK   11  A    between atoms: C_26  and  C_29
REMARK   12  A    between atoms: C_27  and  C_28
REMARK   13  A    between atoms: C_28  and  C_30
REMARK   14  A    between atoms: C_28  and  C_31
REMARK   15  A    between atoms: C_28  and  C_32
REMARK                            x       y       z     vdW  Elec       q    Type
REMARK                         _______ _______ _______ _____ _____    ______ ____
ROOT
ATOM      1  S   UNL     1      -5.506 -11.032  12.629  0.00  0.00    -0.057 S 
ATOM      5  O   UNL     1      -8.841  -8.831  10.269  0.00  0.00    -0.275 OA
ATOM      7  N   UNL     1      -7.804  -9.860  12.822  0.00  0.00    -0.229 NA
ATOM      9  N   UNL     1      -6.817  -9.965  10.625  0.00  0.00    -0.264 N 
ATOM     10  C   UNL     1      -7.910 -10.962  16.515  0.00  0.00    -0.019 C 
ATOM     11  C   UNL     1      -6.326 -10.898  16.662  0.00  0.00    +0.011 C 
ATOM     12  C   UNL     1      -5.713 -11.390  18.029  0.00  0.00    +0.021 C 
ATOM     13  C   UNL     1      -8.328 -10.035  15.283  0.00  0.00    +0.054 C 
ATOM     14  C   UNL     1      -8.570 -10.395  17.799  0.00  0.00    +0.010 C 
ATOM     15  C   UNL     1      -6.517 -10.768  19.205  0.00  0.00    +0.123 C 
ATOM     16  C   UNL     1      -5.614 -11.485  15.408  0.00  0.00    +0.049 C 
ATOM     17  C   UNL     1      -8.021 -10.990  19.089  0.00  0.00    +0.032 C 
ATOM     18  C   UNL     1      -8.435 -12.400  16.280  0.00  0.00    +0.012 C 
ATOM     19  C   UNL     1      -7.451 -10.296  14.086  0.00  0.00    +0.058 A 
ATOM     21  C   UNL     1      -4.251 -10.874  18.145  0.00  0.00    +0.016 C 
ATOM     22  C   UNL     1      -6.229 -10.932  14.167  0.00  0.00    +0.015 A 
ATOM     25  C   UNL     1      -6.857 -10.200  11.974  0.00  0.00    +0.165 A 
ATOM     27  C   UNL     1      -7.789  -9.305   9.846  0.00  0.00    +0.224 C 
ATOM     37  H   UNL     1      -5.983 -10.318  10.165  0.00  0.00    +0.157 HD
ENDROOT
BRANCH  27  28
ATOM     28  C   UNL     1      -7.427  -9.214   8.342  0.00  0.00    +0.039 C 
ATOM     30  C   UNL     1      -8.167 -10.305   7.551  0.00  0.00    +0.020 C 
ATOM     31  C   UNL     1      -7.787  -7.824   7.792  0.00  0.00    +0.020 C 
ATOM     32  C   UNL     1      -5.912  -9.429   8.165  0.00  0.00    +0.020 C 
ENDBRANCH  27  28
BRANCH  15   2
ATOM      2  O   UNL     1      -6.071 -11.294  20.455  0.00  0.00    -0.391 OA
ATOM     34  H   UNL     1      -5.760 -10.549  20.995  0.00  0.00    +0.210 HD
ENDBRANCH  15   2
BRANCH  12  20
ATOM     20  C   UNL     1      -5.624 -12.926  18.175  0.00  0.00    +0.165 C 
BRANCH  20   3
ATOM      3  O   UNL     1      -4.352 -13.236  18.699  0.00  0.00    -0.394 OA
ATOM     35  H   UNL     1      -4.038 -12.451  19.179  0.00  0.00    +0.209 HD
ENDBRANCH  20   3
ENDBRANCH  12  20
BRANCH  13  23
ATOM     23  C   UNL     1      -9.817 -10.099  14.913  0.00  0.00    +0.106 C 
BRANCH  23  24
ATOM      4  O   UNL     1     -11.240  -8.496  13.792  0.00  0.00    -0.276 OA
ATOM      8  N   UNL     1      -9.849  -7.787  15.514  0.00  0.00    -0.313 N 
ATOM     24  C   UNL     1     -10.397  -8.728  14.654  0.00  0.00    +0.214 C 
ATOM     36  H   UNL     1      -9.162  -8.083  16.202  0.00  0.00    +0.149 HD
BRANCH   8  26
ATOM     26  C   UNL     1     -10.216  -6.390  15.492  0.00  0.00    +0.132 C 
BRANCH  26  29
ATOM     29  C   UNL     1     -11.432  -6.119  16.357  0.00  0.00    +0.178 C 
BRANCH  29   6
ATOM      6  O   UNL     1     -12.554  -5.852  15.526  0.00  0.00    -0.381 OA
ATOM     33  C   UNL     1     -13.623  -6.752  15.788  0.00  0.00    +0.194 C 
ENDBRANCH  29   6
ENDBRANCH  26  29
ENDBRANCH   8  26
ENDBRANCH  23  24
ENDBRANCH  13  23
TORSDOF 9
ENDMDL
MODEL 9
REMARK VINA RESULT:      -5.6      5.090      8.528
REMARK  Name = 11883015
REMARK  15 active torsions:
REMARK  status: ('A' for Active; 'I' for Inactive)
REMARK    1  A    between atoms: O_2  and  C_15
REMARK    2  A    between atoms: O_3  and  C_20
REMARK    3  A    between atoms: O_6  and  C_29
REMARK    4  A    between atoms: O_6  and  C_33
REMARK    5  A    between atoms: N_8  and  C_26
REMARK    6  A    between atoms: C_10  and  C_18
REMARK    7  A    between atoms: C_12  and  C_20
REMARK    8  A    between atoms: C_12  and  C_21
REMARK    9  A    between atoms: C_13  and  C_23
REMARK   10  A    between atoms: C_23  and  C_24
REMARK   11  A    between atoms: C_26  and  C_29
REMARK   12  A    between atoms: C_27  and  C_28
REMARK   13  A    between atoms: C_28  and  C_30
REMARK   14  A    between atoms: C_28  and  C_31
REMARK   15  A    between atoms: C_28  and  C_32
REMARK                            x       y       z     vdW  Elec       q    Type
REMARK                         _______ _______ _______ _____ _____    ______ ____
ROOT
ATOM      1  S   UNL     1      16.287  12.251  18.014  0.00  0.00    -0.057 S 
ATOM      5  O   UNL     1      15.250  12.234  13.491  0.00  0.00    -0.275 OA
ATOM      7  N   UNL     1      14.652  11.340  16.229  0.00  0.00    -0.229 NA
ATOM      9  N   UNL     1      16.425  12.775  15.449  0.00  0.00    -0.264 N 
ATOM     10  C   UNL     1      13.036   9.192  18.992  0.00  0.00    -0.019 C 
ATOM     11  C   UNL     1      13.366  10.260  20.126  0.00  0.00    +0.011 C 
ATOM     12  C   UNL     1      13.021   9.857  21.611  0.00  0.00    +0.021 C 
ATOM     13  C   UNL     1      13.044   9.948  17.585  0.00  0.00    +0.054 C 
ATOM     14  C   UNL     1      11.617   8.612  19.227  0.00  0.00    +0.010 C 
ATOM     15  C   UNL     1      11.588   9.255  21.660  0.00  0.00    +0.123 C 
ATOM     16  C   UNL     1      14.796  10.850  19.951  0.00  0.00    +0.049 C 
ATOM     17  C   UNL     1      11.375   8.131  20.651  0.00  0.00    +0.032 C 
ATOM     18  C   UNL     1      14.050   8.021  18.954  0.00  0.00    +0.012 C 
ATOM     19  C   UNL     1      14.256  10.834  17.453  0.00  0.00    +0.058 A 
ATOM     21  C   UNL     1      13.015  11.137  22.495  0.00  0.00    +0.016 C 
ATOM     22  C   UNL     1      15.016  11.241  18.530  0.00  0.00    +0.015 A 
ATOM     25  C   UNL     1      15.716  12.094  16.402  0.00  0.00    +0.165 A 
ATOM     27  C   UNL     1      16.168  12.815  14.064  0.00  0.00    +0.224 C 
ATOM     37  H   UNL     1      17.217  13.296  15.812  0.00  0.00    +0.157 HD
ENDROOT
BRANCH  27  28
ATOM     28  C   UNL     1      17.174  13.685  13.267  0.00  0.00    +0.039 C 
ATOM     30  C   UNL     1      18.252  12.796  12.625  0.00  0.00    +0.020 C 
ATOM     31  C   UNL     1      16.439  14.492  12.186  0.00  0.00    +0.020 C 
ATOM     32  C   UNL     1      17.867  14.673  14.224  0.00  0.00    +0.020 C 
ENDBRANCH  27  28
BRANCH  15   2
ATOM      2  O   UNL     1      11.294   8.761  22.966  0.00  0.00    -0.391 OA
ATOM     34  H   UNL     1      10.789   7.937  22.863  0.00  0.00    +0.210 HD
ENDBRANCH  15   2
BRANCH  12  20
ATOM     20  C   UNL     1      14.042   8.902  22.270  0.00  0.00    +0.165 C 
BRANCH  20   3
ATOM      3  O   UNL     1      14.744   9.632  23.251  0.00  0.00    -0.394 OA
ATOM     35  H   UNL     1      15.568   9.151  23.435  0.00  0.00    +0.209 HD
ENDBRANCH  20   3
ENDBRANCH  12  20
BRANCH  13  23
ATOM     23  C   UNL     1      12.885   9.029  16.365  0.00  0.00    +0.106 C 
BRANCH  23  24
ATOM      4  O   UNL     1      10.631   8.819  15.515  0.00  0.00    -0.276 OA
ATOM      8  N   UNL     1      11.996  10.532  14.736  0.00  0.00    -0.313 N 
ATOM     24  C   UNL     1      11.702   9.420  15.511  0.00  0.00    +0.214 C 
ATOM     36  H   UNL     1      12.912  10.963  14.813  0.00  0.00    +0.149 HD
BRANCH   8  26
ATOM     26  C   UNL     1      11.051  11.126  13.818  0.00  0.00    +0.132 C 
BRANCH  26  29
ATOM     29  C   UNL     1      11.707  12.182  12.949  0.00  0.00    +0.178 C 
BRANCH  29   6
ATOM      6  O   UNL     1      10.716  12.831  12.163  0.00  0.00    -0.381 OA
ATOM     33  C   UNL     1       9.863  11.892  11.521  0.00  0.00    +0.194 C 
ENDBRANCH  29   6
ENDBRANCH  26  29
ENDBRANCH   8  26
ENDBRANCH  23  24
ENDBRANCH  13  23
TORSDOF 9
ENDMDL
MODEL 10
REMARK VINA RESULT:      -5.5     28.349     31.756
REMARK  Name = 11883015
REMARK  15 active torsions:
REMARK  status: ('A' for Active; 'I' for Inactive)
REMARK    1  A    between atoms: O_2  and  C_15
REMARK    2  A    between atoms: O_3  and  C_20
REMARK    3  A    between atoms: O_6  and  C_29
REMARK    4  A    between atoms: O_6  and  C_33
REMARK    5  A    between atoms: N_8  and  C_26
REMARK    6  A    between atoms: C_10  and  C_18
REMARK    7  A    between atoms: C_12  and  C_20
REMARK    8  A    between atoms: C_12  and  C_21
REMARK    9  A    between atoms: C_13  and  C_23
REMARK   10  A    between atoms: C_23  and  C_24
REMARK   11  A    between atoms: C_26  and  C_29
REMARK   12  A    between atoms: C_27  and  C_28
REMARK   13  A    between atoms: C_28  and  C_30
REMARK   14  A    between atoms: C_28  and  C_31
REMARK   15  A    between atoms: C_28  and  C_32
REMARK                            x       y       z     vdW  Elec       q    Type
REMARK                         _______ _______ _______ _____ _____    ______ ____
ROOT
ATOM      1  S   UNL     1      -5.435  -9.534  10.303  0.00  0.00    -0.057 S 
ATOM      5  O   UNL     1      -9.804  -8.013   9.939  0.00  0.00    -0.275 OA
ATOM      7  N   UNL     1      -7.658  -9.179  11.577  0.00  0.00    -0.229 NA
ATOM      9  N   UNL     1      -7.619  -8.528   9.257  0.00  0.00    -0.264 N 
ATOM     10  C   UNL     1      -6.072 -10.992  14.587  0.00  0.00    -0.019 C 
ATOM     11  C   UNL     1      -4.608 -10.482  14.224  0.00  0.00    +0.011 C 
ATOM     12  C   UNL     1      -3.420 -11.035  15.101  0.00  0.00    +0.021 C 
ATOM     13  C   UNL     1      -7.123 -10.004  13.900  0.00  0.00    +0.054 C 
ATOM     14  C   UNL     1      -6.274 -10.928  16.124  0.00  0.00    +0.010 C 
ATOM     15  C   UNL     1      -3.804 -10.940  16.605  0.00  0.00    +0.123 C 
ATOM     16  C   UNL     1      -4.345 -10.557  12.691  0.00  0.00    +0.049 C 
ATOM     17  C   UNL     1      -5.152 -11.579  16.922  0.00  0.00    +0.032 C 
ATOM     18  C   UNL     1      -6.340 -12.441  14.112  0.00  0.00    +0.012 C 
ATOM     19  C   UNL     1      -6.755  -9.736  12.463  0.00  0.00    +0.058 A 
ATOM     21  C   UNL     1      -2.169 -10.135  14.886  0.00  0.00    +0.016 C 
ATOM     22  C   UNL     1      -5.498  -9.974  11.947  0.00  0.00    +0.015 A 
ATOM     25  C   UNL     1      -7.075  -9.034  10.408  0.00  0.00    +0.165 A 
ATOM     27  C   UNL     1      -8.931  -8.049   9.074  0.00  0.00    +0.224 C 
ATOM     37  H   UNL     1      -6.980  -8.510   8.467  0.00  0.00    +0.157 HD
ENDROOT
BRANCH  27  28
ATOM     28  C   UNL     1      -9.219  -7.546   7.637  0.00  0.00    +0.039 C 
ATOM     30  C   UNL     1      -9.867  -6.153   7.682  0.00  0.00    +0.020 C 
ATOM     31  C   UNL     1      -7.918  -7.500   6.820  0.00  0.00    +0.020 C 
ATOM     32  C   UNL     1     -10.195  -8.514   6.941  0.00  0.00    +0.020 C 
ENDBRANCH  27  28
BRANCH  15   2
ATOM      2  O   UNL     1      -2.804 -11.550  17.420  0.00  0.00    -0.391 OA
ATOM     34  H   UNL     1      -3.061 -11.421  18.348  0.00  0.00    +0.210 HD
ENDBRANCH  15   2
BRANCH  12  20
ATOM     20  C   UNL     1      -2.967 -12.467  14.738  0.00  0.00    +0.165 C 
BRANCH  20   3
ATOM      3  O   UNL     1      -1.559 -12.499  14.787  0.00  0.00    -0.394 OA
ATOM     35  H   UNL     1      -1.308 -13.116  15.496  0.00  0.00    +0.209 HD
ENDBRANCH  20   3
ENDBRANCH  12  20
BRANCH  13  23
ATOM     23  C   UNL     1      -8.589 -10.439  14.032  0.00  0.00    +0.106 C 
BRANCH  23  24
ATOM      4  O   UNL     1      -8.939  -8.826  15.801  0.00  0.00    -0.276 OA
ATOM      8  N   UNL     1     -10.707  -9.399  14.404  0.00  0.00    -0.313 N 
ATOM     24  C   UNL     1      -9.398  -9.465  14.857  0.00  0.00    +0.214 C 
ATOM     36  H   UNL     1     -10.986  -9.963  13.606  0.00  0.00    +0.149 HD
BRANCH   8  26
ATOM     26  C   UNL     1     -11.709  -8.550  15.008  0.00  0.00    +0.132 C 
BRANCH  26  29
ATOM     29  C   UNL     1     -11.918  -7.279  14.206  0.00  0.00    +0.178 C 
BRANCH  29   6
ATOM      6  O   UNL     1     -11.194  -6.215  14.809  0.00  0.00    -0.381 OA
ATOM     33  C   UNL     1     -11.377  -6.193  16.218  0.00  0.00    +0.194 C 
ENDBRANCH  29   6
ENDBRANCH  26  29
ENDBRANCH   8  26
ENDBRANCH  23  24
ENDBRANCH  13  23
TORSDOF 9
ENDMDL
