MODEL 1
REMARK VINA RESULT:      -7.9      0.000      0.000
REMARK  Name = 11941470
REMARK  5 active torsions:
REMARK  status: ('A' for Active; 'I' for Inactive)
REMARK    1  A    between atoms: O_5  and  C_28
REMARK    2  A    between atoms: O_5  and  C_33
REMARK    3  A    between atoms: N_7  and  C_9
REMARK    4  A    between atoms: C_12  and  C_18
REMARK    5  A    between atoms: C_25  and  C_27
REMARK                            x       y       z     vdW  Elec       q    Type
REMARK                         _______ _______ _______ _____ _____    ______ ____
ROOT
ATOM      3  O   UNL     1     -16.552   1.736  24.257  0.00  0.00    -0.273 OA
ATOM      4  O   UNL     1     -17.586   6.901  24.387  0.00  0.00    -0.270 OA
ATOM      6  N   UNL     1     -17.010   4.846  25.245  0.00  0.00    -0.284 N 
ATOM      8  N   UNL     1     -15.650   3.441  23.046  0.00  0.00    -0.283 N 
ATOM      9  C   UNL     1     -16.529   3.076  26.737  0.00  0.00    +0.104 C 
ATOM     10  C   UNL     1     -16.058   3.771  25.453  0.00  0.00    +0.183 C 
ATOM     11  C   UNL     1     -18.031   3.366  26.769  0.00  0.00    +0.043 C 
ATOM     13  C   UNL     1     -18.132   4.759  26.168  0.00  0.00    +0.111 C 
ATOM     19  C   UNL     1     -16.150   2.900  24.213  0.00  0.00    +0.240 C 
ATOM     20  C   UNL     1     -16.830   5.929  24.412  0.00  0.00    +0.249 C 
ATOM     21  C   UNL     1     -15.674   5.911  23.478  0.00  0.00    +0.059 A 
ATOM     22  C   UNL     1     -15.220   4.764  22.805  0.00  0.00    +0.046 A 
ATOM     23  C   UNL     1     -15.137   7.167  23.144  0.00  0.00    +0.023 A 
ATOM     24  C   UNL     1     -14.283   4.914  21.767  0.00  0.00    +0.024 A 
ATOM     25  C   UNL     1     -14.173   7.290  22.144  0.00  0.00    -0.014 A 
ATOM     26  C   UNL     1     -13.756   6.164  21.446  0.00  0.00    +0.010 A 
ATOM     35  H   UNL     1     -15.496   2.780  22.290  0.00  0.00    +0.155 HD
ENDROOT
BRANCH  25  27
ATOM      1 CL   UNL     1     -12.111  11.702  23.826  0.00  0.00    -0.084 Cl
ATOM     27  C   UNL     1     -13.628   8.590  21.819  0.00  0.00    +0.025 A 
ATOM     28  C   UNL     1     -13.538   9.018  20.493  0.00  0.00    +0.128 A 
ATOM     29  C   UNL     1     -13.185   9.422  22.849  0.00  0.00    +0.032 A 
ATOM     30  C   UNL     1     -13.008  10.274  20.198  0.00  0.00    +0.047 A 
ATOM     31  C   UNL     1     -12.655  10.679  22.555  0.00  0.00    +0.042 A 
ATOM     32  C   UNL     1     -12.567  11.105  21.229  0.00  0.00    +0.023 A 
BRANCH  28   5
ATOM      5  O   UNL     1     -13.960   8.228  19.466  0.00  0.00    -0.495 OA
ATOM     33  C   UNL     1     -13.123   8.163  18.313  0.00  0.00    +0.277 C 
ENDBRANCH  28   5
ENDBRANCH  25  27
BRANCH   9   7
ATOM      2  O   UNL     1     -15.443   1.623  29.003  0.00  0.00    -0.276 OA
ATOM      7  N   UNL     1     -15.865   3.626  27.896  0.00  0.00    -0.310 N 
ATOM     18  C   UNL     1     -15.378   2.847  28.932  0.00  0.00    +0.216 C 
ATOM     34  H   UNL     1     -15.694   4.627  27.914  0.00  0.00    +0.149 HD
BRANCH  18  12
ATOM     12  C   UNL     1     -14.712   3.667  29.994  0.00  0.00    +0.075 C 
ATOM     14  C   UNL     1     -13.565   2.879  30.635  0.00  0.00    +0.013 C 
ATOM     15  C   UNL     1     -15.694   3.988  31.123  0.00  0.00    +0.013 C 
ATOM     16  C   UNL     1     -13.861   2.852  32.130  0.00  0.00    +0.001 C 
ATOM     17  C   UNL     1     -15.373   2.972  32.210  0.00  0.00    +0.001 C 
ENDBRANCH  18  12
ENDBRANCH   9   7
TORSDOF 4
ENDMDL
MODEL 2
REMARK VINA RESULT:      -7.7     20.782     22.842
REMARK  Name = 11941470
REMARK  5 active torsions:
REMARK  status: ('A' for Active; 'I' for Inactive)
REMARK    1  A    between atoms: O_5  and  C_28
REMARK    2  A    between atoms: O_5  and  C_33
REMARK    3  A    between atoms: N_7  and  C_9
REMARK    4  A    between atoms: C_12  and  C_18
REMARK    5  A    between atoms: C_25  and  C_27
REMARK                            x       y       z     vdW  Elec       q    Type
REMARK                         _______ _______ _______ _____ _____    ______ ____
ROOT
ATOM      3  O   UNL     1      -1.494 -11.550  13.986  0.00  0.00    -0.273 OA
ATOM      4  O   UNL     1      -5.958 -12.803  11.483  0.00  0.00    -0.270 OA
ATOM      6  N   UNL     1      -4.650 -12.165  13.264  0.00  0.00    -0.284 N 
ATOM      8  N   UNL     1      -2.398 -10.686  12.082  0.00  0.00    -0.283 N 
ATOM      9  C   UNL     1      -3.902 -11.654  15.448  0.00  0.00    +0.104 C 
ATOM     10  C   UNL     1      -3.876 -11.176  13.990  0.00  0.00    +0.183 C 
ATOM     11  C   UNL     1      -4.093 -13.167  15.324  0.00  0.00    +0.043 C 
ATOM     13  C   UNL     1      -4.984 -13.309  14.100  0.00  0.00    +0.111 C 
ATOM     19  C   UNL     1      -2.496 -11.196  13.361  0.00  0.00    +0.240 C 
ATOM     20  C   UNL     1      -5.172 -12.008  11.999  0.00  0.00    +0.249 C 
ATOM     21  C   UNL     1      -4.743 -10.826  11.206  0.00  0.00    +0.059 A 
ATOM     22  C   UNL     1      -3.438 -10.305  11.206  0.00  0.00    +0.046 A 
ATOM     23  C   UNL     1      -5.684 -10.332  10.285  0.00  0.00    +0.023 A 
ATOM     24  C   UNL     1      -3.091  -9.346  10.238  0.00  0.00    +0.024 A 
ATOM     25  C   UNL     1      -5.334  -9.347   9.363  0.00  0.00    -0.014 A 
ATOM     26  C   UNL     1      -4.033  -8.862   9.331  0.00  0.00    +0.010 A 
ATOM     35  H   UNL     1      -1.454 -10.483  11.765  0.00  0.00    +0.155 HD
ENDROOT
BRANCH  25  27
ATOM      1 CL   UNL     1      -9.131  -6.001   8.394  0.00  0.00    -0.084 Cl
ATOM     27  C   UNL     1      -6.318  -8.847   8.427  0.00  0.00    +0.025 A 
ATOM     28  C   UNL     1      -6.441  -9.402   7.152  0.00  0.00    +0.128 A 
ATOM     29  C   UNL     1      -7.151  -7.794   8.809  0.00  0.00    +0.032 A 
ATOM     30  C   UNL     1      -7.394  -8.907   6.262  0.00  0.00    +0.047 A 
ATOM     31  C   UNL     1      -8.105  -7.298   7.920  0.00  0.00    +0.042 A 
ATOM     32  C   UNL     1      -8.227  -7.854   6.646  0.00  0.00    +0.023 A 
BRANCH  28   5
ATOM      5  O   UNL     1      -5.640 -10.429   6.749  0.00  0.00    -0.495 OA
ATOM     33  C   UNL     1      -5.798 -10.886   5.407  0.00  0.00    +0.277 C 
ENDBRANCH  28   5
ENDBRANCH  25  27
BRANCH   9   7
ATOM      2  O   UNL     1      -4.170 -11.367  18.324  0.00  0.00    -0.276 OA
ATOM      7  N   UNL     1      -4.995 -11.046  16.172  0.00  0.00    -0.310 N 
ATOM     18  C   UNL     1      -5.032 -10.956  17.553  0.00  0.00    +0.216 C 
ATOM     34  H   UNL     1      -5.737 -10.610  15.632  0.00  0.00    +0.149 HD
BRANCH  18  12
ATOM     12  C   UNL     1      -6.264 -10.258  18.043  0.00  0.00    +0.075 C 
ATOM     14  C   UNL     1      -6.614 -10.726  19.460  0.00  0.00    +0.013 C 
ATOM     15  C   UNL     1      -7.468 -10.610  17.167  0.00  0.00    +0.013 C 
ATOM     16  C   UNL     1      -8.046 -11.243  19.387  0.00  0.00    +0.001 C 
ATOM     17  C   UNL     1      -8.206 -11.691  17.945  0.00  0.00    +0.001 C 
ENDBRANCH  18  12
ENDBRANCH   9   7
TORSDOF 4
ENDMDL
MODEL 3
REMARK VINA RESULT:      -7.7     20.861     23.010
REMARK  Name = 11941470
REMARK  5 active torsions:
REMARK  status: ('A' for Active; 'I' for Inactive)
REMARK    1  A    between atoms: O_5  and  C_28
REMARK    2  A    between atoms: O_5  and  C_33
REMARK    3  A    between atoms: N_7  and  C_9
REMARK    4  A    between atoms: C_12  and  C_18
REMARK    5  A    between atoms: C_25  and  C_27
REMARK                            x       y       z     vdW  Elec       q    Type
REMARK                         _______ _______ _______ _____ _____    ______ ____
ROOT
ATOM      3  O   UNL     1      -1.536 -10.558  15.615  0.00  0.00    -0.273 OA
ATOM      4  O   UNL     1      -4.872 -13.196  12.505  0.00  0.00    -0.270 OA
ATOM      6  N   UNL     1      -4.231 -11.953  14.330  0.00  0.00    -0.284 N 
ATOM      8  N   UNL     1      -1.980 -10.305  13.396  0.00  0.00    -0.283 N 
ATOM      9  C   UNL     1      -4.217 -10.865  16.430  0.00  0.00    +0.104 C 
ATOM     10  C   UNL     1      -3.850 -10.697  14.949  0.00  0.00    +0.183 C 
ATOM     11  C   UNL     1      -4.140 -12.378  16.647  0.00  0.00    +0.043 C 
ATOM     13  C   UNL     1      -4.617 -12.948  15.320  0.00  0.00    +0.111 C 
ATOM     19  C   UNL     1      -2.360 -10.555  14.698  0.00  0.00    +0.240 C 
ATOM     20  C   UNL     1      -4.390 -12.167  12.978  0.00  0.00    +0.249 C 
ATOM     21  C   UNL     1      -3.932 -11.107  12.042  0.00  0.00    +0.059 A 
ATOM     22  C   UNL     1      -2.772 -10.336  12.228  0.00  0.00    +0.046 A 
ATOM     23  C   UNL     1      -4.635 -11.018  10.828  0.00  0.00    +0.023 A 
ATOM     24  C   UNL     1      -2.310  -9.542  11.163  0.00  0.00    +0.024 A 
ATOM     25  C   UNL     1      -4.187 -10.188   9.801  0.00  0.00    -0.014 A 
ATOM     26  C   UNL     1      -3.016  -9.459   9.964  0.00  0.00    +0.010 A 
ATOM     35  H   UNL     1      -1.025  -9.978  13.275  0.00  0.00    +0.155 HD
ENDROOT
BRANCH  25  27
ATOM      1 CL   UNL     1      -4.756 -11.805   4.942  0.00  0.00    -0.084 Cl
ATOM     27  C   UNL     1      -4.927 -10.105   8.560  0.00  0.00    +0.025 A 
ATOM     28  C   UNL     1      -6.023  -9.248   8.435  0.00  0.00    +0.128 A 
ATOM     29  C   UNL     1      -4.537 -10.895   7.478  0.00  0.00    +0.032 A 
ATOM     30  C   UNL     1      -6.725  -9.182   7.232  0.00  0.00    +0.047 A 
ATOM     31  C   UNL     1      -5.239 -10.829   6.274  0.00  0.00    +0.042 A 
ATOM     32  C   UNL     1      -6.333  -9.973   6.151  0.00  0.00    +0.023 A 
BRANCH  28   5
ATOM      5  O   UNL     1      -6.429  -8.465   9.475  0.00  0.00    -0.495 OA
ATOM     33  C   UNL     1      -7.673  -8.796  10.087  0.00  0.00    +0.277 C 
ENDBRANCH  28   5
ENDBRANCH  25  27
BRANCH   9   7
ATOM      2  O   UNL     1      -5.554 -10.670  18.999  0.00  0.00    -0.276 OA
ATOM      7  N   UNL     1      -5.547 -10.366  16.692  0.00  0.00    -0.310 N 
ATOM     18  C   UNL     1      -6.101 -10.313  17.960  0.00  0.00    +0.216 C 
ATOM     34  H   UNL     1      -6.071  -9.979  15.912  0.00  0.00    +0.149 HD
BRANCH  18  12
ATOM     12  C   UNL     1      -7.480  -9.729  17.952  0.00  0.00    +0.075 C 
ATOM     14  C   UNL     1      -8.462 -10.671  18.657  0.00  0.00    +0.013 C 
ATOM     15  C   UNL     1      -7.992  -9.572  16.519  0.00  0.00    +0.013 C 
ATOM     16  C   UNL     1      -9.568 -10.955  17.646  0.00  0.00    +0.001 C 
ATOM     17  C   UNL     1      -8.891 -10.781  16.298  0.00  0.00    +0.001 C 
ENDBRANCH  18  12
ENDBRANCH   9   7
TORSDOF 4
ENDMDL
MODEL 4
REMARK VINA RESULT:      -7.6     31.836     35.920
REMARK  Name = 11941470
REMARK  5 active torsions:
REMARK  status: ('A' for Active; 'I' for Inactive)
REMARK    1  A    between atoms: O_5  and  C_28
REMARK    2  A    between atoms: O_5  and  C_33
REMARK    3  A    between atoms: N_7  and  C_9
REMARK    4  A    between atoms: C_12  and  C_18
REMARK    5  A    between atoms: C_25  and  C_27
REMARK                            x       y       z     vdW  Elec       q    Type
REMARK                         _______ _______ _______ _____ _____    ______ ____
ROOT
ATOM      3  O   UNL     1       9.710   9.227   5.143  0.00  0.00    -0.273 OA
ATOM      4  O   UNL     1      13.583   6.413   7.342  0.00  0.00    -0.270 OA
ATOM      6  N   UNL     1      11.762   6.792   5.991  0.00  0.00    -0.284 N 
ATOM      8  N   UNL     1      11.952   9.621   5.206  0.00  0.00    -0.283 N 
ATOM      9  C   UNL     1       9.899   6.475   4.568  0.00  0.00    +0.104 C 
ATOM     10  C   UNL     1      11.154   7.330   4.787  0.00  0.00    +0.183 C 
ATOM     11  C   UNL     1       9.542   5.998   5.978  0.00  0.00    +0.043 C 
ATOM     13  C   UNL     1      10.898   5.818   6.641  0.00  0.00    +0.111 C 
ATOM     19  C   UNL     1      10.860   8.786   5.095  0.00  0.00    +0.240 C 
ATOM     20  C   UNL     1      13.056   7.015   6.407  0.00  0.00    +0.249 C 
ATOM     21  C   UNL     1      13.848   8.058   5.703  0.00  0.00    +0.059 A 
ATOM     22  C   UNL     1      13.321   9.277   5.246  0.00  0.00    +0.046 A 
ATOM     23  C   UNL     1      15.238   7.846   5.662  0.00  0.00    +0.023 A 
ATOM     24  C   UNL     1      14.209  10.281   4.819  0.00  0.00    +0.024 A 
ATOM     25  C   UNL     1      16.099   8.836   5.191  0.00  0.00    -0.014 A 
ATOM     26  C   UNL     1      15.585  10.060   4.780  0.00  0.00    +0.010 A 
ATOM     35  H   UNL     1      11.746  10.616   5.173  0.00  0.00    +0.155 HD
ENDROOT
BRANCH  25  27
ATOM      1 CL   UNL     1      20.583   8.759   7.727  0.00  0.00    -0.084 Cl
ATOM     27  C   UNL     1      17.526   8.598   5.151  0.00  0.00    +0.025 A 
ATOM     28  C   UNL     1      18.152   8.199   3.969  0.00  0.00    +0.128 A 
ATOM     29  C   UNL     1      18.279   8.771   6.313  0.00  0.00    +0.032 A 
ATOM     30  C   UNL     1      19.529   7.973   3.949  0.00  0.00    +0.047 A 
ATOM     31  C   UNL     1      19.656   8.545   6.294  0.00  0.00    +0.042 A 
ATOM     32  C   UNL     1      20.281   8.146   5.112  0.00  0.00    +0.023 A 
BRANCH  28   5
ATOM      5  O   UNL     1      17.443   8.020   2.819  0.00  0.00    -0.495 OA
ATOM     33  C   UNL     1      18.162   8.120   1.592  0.00  0.00    +0.277 C 
ENDBRANCH  28   5
ENDBRANCH  25  27
BRANCH   9   7
ATOM      2  O   UNL     1       9.908   6.465   1.665  0.00  0.00    -0.276 OA
ATOM      7  N   UNL     1      10.180   5.359   3.695  0.00  0.00    -0.310 N 
ATOM     18  C   UNL     1      10.159   5.453   2.313  0.00  0.00    +0.216 C 
ATOM     34  H   UNL     1      10.467   4.483   4.122  0.00  0.00    +0.149 HD
BRANCH  18  12
ATOM     12  C   UNL     1      10.512   4.157   1.651  0.00  0.00    +0.075 C 
ATOM     14  C   UNL     1      11.652   3.466   2.406  0.00  0.00    +0.013 C 
ATOM     15  C   UNL     1      11.025   4.399   0.230  0.00  0.00    +0.013 C 
ATOM     16  C   UNL     1      12.755   3.236   1.378  0.00  0.00    +0.001 C 
ATOM     17  C   UNL     1      12.541   4.336   0.353  0.00  0.00    +0.001 C 
ENDBRANCH  18  12
ENDBRANCH   9   7
TORSDOF 4
ENDMDL
MODEL 5
REMARK VINA RESULT:      -7.6     28.732     31.157
REMARK  Name = 11941470
REMARK  5 active torsions:
REMARK  status: ('A' for Active; 'I' for Inactive)
REMARK    1  A    between atoms: O_5  and  C_28
REMARK    2  A    between atoms: O_5  and  C_33
REMARK    3  A    between atoms: N_7  and  C_9
REMARK    4  A    between atoms: C_12  and  C_18
REMARK    5  A    between atoms: C_25  and  C_27
REMARK                            x       y       z     vdW  Elec       q    Type
REMARK                         _______ _______ _______ _____ _____    ______ ____
ROOT
ATOM      3  O   UNL     1      12.013   5.985  19.932  0.00  0.00    -0.273 OA
ATOM      4  O   UNL     1      15.336   9.804  18.470  0.00  0.00    -0.270 OA
ATOM      6  N   UNL     1      13.436   8.911  19.409  0.00  0.00    -0.284 N 
ATOM      8  N   UNL     1      14.229   6.252  20.386  0.00  0.00    -0.283 N 
ATOM      9  C   UNL     1      11.287   8.673  20.366  0.00  0.00    +0.104 C 
ATOM     10  C   UNL     1      12.747   8.216  20.480  0.00  0.00    +0.183 C 
ATOM     11  C   UNL     1      11.141   9.035  18.887  0.00  0.00    +0.043 C 
ATOM     13  C   UNL     1      12.506   9.600  18.527  0.00  0.00    +0.111 C 
ATOM     19  C   UNL     1      12.951   6.738  20.204  0.00  0.00    +0.240 C 
ATOM     20  C   UNL     1      14.800   9.071  19.302  0.00  0.00    +0.249 C 
ATOM     21  C   UNL     1      15.671   8.296  20.224  0.00  0.00    +0.059 A 
ATOM     22  C   UNL     1      15.418   6.974  20.627  0.00  0.00    +0.046 A 
ATOM     23  C   UNL     1      16.899   8.897  20.556  0.00  0.00    +0.023 A 
ATOM     24  C   UNL     1      16.430   6.265  21.298  0.00  0.00    +0.024 A 
ATOM     25  C   UNL     1      17.872   8.194  21.264  0.00  0.00    -0.014 A 
ATOM     26  C   UNL     1      17.642   6.872  21.624  0.00  0.00    +0.010 A 
ATOM     35  H   UNL     1      14.308   5.239  20.434  0.00  0.00    +0.155 HD
ENDROOT
BRANCH  25  27
ATOM      1 CL   UNL     1      20.296  12.081  23.622  0.00  0.00    -0.084 Cl
ATOM     27  C   UNL     1      19.126   8.831  21.601  0.00  0.00    +0.025 A 
ATOM     28  C   UNL     1      20.342   8.285  21.184  0.00  0.00    +0.128 A 
ATOM     29  C   UNL     1      19.114  10.005  22.356  0.00  0.00    +0.032 A 
ATOM     30  C   UNL     1      21.542   8.913  21.520  0.00  0.00    +0.047 A 
ATOM     31  C   UNL     1      20.314  10.633  22.692  0.00  0.00    +0.042 A 
ATOM     32  C   UNL     1      21.528  10.088  22.274  0.00  0.00    +0.023 A 
BRANCH  28   5
ATOM      5  O   UNL     1      20.386   7.139  20.448  0.00  0.00    -0.495 OA
ATOM     33  C   UNL     1      21.530   6.304  20.618  0.00  0.00    +0.277 C 
ENDBRANCH  28   5
ENDBRANCH  25  27
BRANCH   9   7
ATOM      2  O   UNL     1      10.810   8.683  23.230  0.00  0.00    -0.276 OA
ATOM      7  N   UNL     1      11.036   9.818  21.211  0.00  0.00    -0.310 N 
ATOM     18  C   UNL     1      10.819   9.721  22.575  0.00  0.00    +0.216 C 
ATOM     34  H   UNL     1      11.087  10.740  20.787  0.00  0.00    +0.149 HD
BRANCH  18  12
ATOM     12  C   UNL     1      10.612  11.060  23.213  0.00  0.00    +0.075 C 
ATOM     14  C   UNL     1      11.256  12.161  22.364  0.00  0.00    +0.013 C 
ATOM     15  C   UNL     1      11.297  11.119  24.580  0.00  0.00    +0.013 C 
ATOM     16  C   UNL     1      12.223  12.891  23.290  0.00  0.00    +0.001 C 
ATOM     17  C   UNL     1      12.609  11.845  24.321  0.00  0.00    +0.001 C 
ENDBRANCH  18  12
ENDBRANCH   9   7
TORSDOF 4
ENDMDL
MODEL 6
REMARK VINA RESULT:      -7.5     21.175     24.084
REMARK  Name = 11941470
REMARK  5 active torsions:
REMARK  status: ('A' for Active; 'I' for Inactive)
REMARK    1  A    between atoms: O_5  and  C_28
REMARK    2  A    between atoms: O_5  and  C_33
REMARK    3  A    between atoms: N_7  and  C_9
REMARK    4  A    between atoms: C_12  and  C_18
REMARK    5  A    between atoms: C_25  and  C_27
REMARK                            x       y       z     vdW  Elec       q    Type
REMARK                         _______ _______ _______ _____ _____    ______ ____
ROOT
ATOM      3  O   UNL     1      -0.646 -10.856  15.499  0.00  0.00    -0.273 OA
ATOM      4  O   UNL     1      -5.716  -9.948  14.390  0.00  0.00    -0.270 OA
ATOM      6  N   UNL     1      -3.640 -10.901  14.123  0.00  0.00    -0.284 N 
ATOM      8  N   UNL     1      -2.488 -11.023  16.828  0.00  0.00    -0.283 N 
ATOM      9  C   UNL     1      -1.792 -12.078  13.232  0.00  0.00    +0.104 C 
ATOM     10  C   UNL     1      -2.610 -11.846  14.510  0.00  0.00    +0.183 C 
ATOM     11  C   UNL     1      -1.991 -10.782  12.443  0.00  0.00    +0.043 C 
ATOM     13  C   UNL     1      -3.417 -10.379  12.783  0.00  0.00    +0.111 C 
ATOM     19  C   UNL     1      -1.832 -11.169  15.623  0.00  0.00    +0.240 C 
ATOM     20  C   UNL     1      -4.792 -10.632  14.830  0.00  0.00    +0.249 C 
ATOM     21  C   UNL     1      -4.912 -11.179  16.207  0.00  0.00    +0.059 A 
ATOM     22  C   UNL     1      -3.849 -11.260  17.121  0.00  0.00    +0.046 A 
ATOM     23  C   UNL     1      -6.220 -11.466  16.639  0.00  0.00    +0.023 A 
ATOM     24  C   UNL     1      -4.133 -11.563  18.465  0.00  0.00    +0.024 A 
ATOM     25  C   UNL     1      -6.475 -11.811  17.965  0.00  0.00    -0.014 A 
ATOM     26  C   UNL     1      -5.432 -11.847  18.882  0.00  0.00    +0.010 A 
ATOM     35  H   UNL     1      -1.897 -10.794  17.622  0.00  0.00    +0.155 HD
ENDROOT
BRANCH  25  27
ATOM      1 CL   UNL     1     -10.813 -10.150  20.195  0.00  0.00    -0.084 Cl
ATOM     27  C   UNL     1      -7.826 -12.108  18.390  0.00  0.00    +0.025 A 
ATOM     28  C   UNL     1      -8.380 -13.373  18.184  0.00  0.00    +0.128 A 
ATOM     29  C   UNL     1      -8.580 -11.112  19.012  0.00  0.00    +0.032 A 
ATOM     30  C   UNL     1      -9.685 -13.641  18.599  0.00  0.00    +0.047 A 
ATOM     31  C   UNL     1      -9.885 -11.380  19.428  0.00  0.00    +0.042 A 
ATOM     32  C   UNL     1     -10.437 -12.644  19.222  0.00  0.00    +0.023 A 
BRANCH  28   5
ATOM      5  O   UNL     1      -7.669 -14.365  17.577  0.00  0.00    -0.495 OA
ATOM     33  C   UNL     1      -8.103 -14.774  16.282  0.00  0.00    +0.277 C 
ENDBRANCH  28   5
ENDBRANCH  25  27
BRANCH   9   7
ATOM      2  O   UNL     1      -1.242 -14.882  13.743  0.00  0.00    -0.276 OA
ATOM      7  N   UNL     1      -2.291 -13.218  12.499  0.00  0.00    -0.310 N 
ATOM     18  C   UNL     1      -1.970 -14.526  12.821  0.00  0.00    +0.216 C 
ATOM     34  H   UNL     1      -2.959 -13.047  11.753  0.00  0.00    +0.149 HD
BRANCH  18  12
ATOM     12  C   UNL     1      -2.642 -15.514  11.917  0.00  0.00    +0.075 C 
ATOM     14  C   UNL     1      -3.648 -14.804  11.005  0.00  0.00    +0.013 C 
ATOM     15  C   UNL     1      -3.446 -16.530  12.731  0.00  0.00    +0.013 C 
ATOM     16  C   UNL     1      -4.987 -15.494  11.242  0.00  0.00    +0.001 C 
ATOM     17  C   UNL     1      -4.882 -16.030  12.659  0.00  0.00    +0.001 C 
ENDBRANCH  18  12
ENDBRANCH   9   7
TORSDOF 4
ENDMDL
MODEL 7
REMARK VINA RESULT:      -7.4      1.432      2.033
REMARK  Name = 11941470
REMARK  5 active torsions:
REMARK  status: ('A' for Active; 'I' for Inactive)
REMARK    1  A    between atoms: O_5  and  C_28
REMARK    2  A    between atoms: O_5  and  C_33
REMARK    3  A    between atoms: N_7  and  C_9
REMARK    4  A    between atoms: C_12  and  C_18
REMARK    5  A    between atoms: C_25  and  C_27
REMARK                            x       y       z     vdW  Elec       q    Type
REMARK                         _______ _______ _______ _____ _____    ______ ____
ROOT
ATOM      3  O   UNL     1     -16.522   1.951  24.162  0.00  0.00    -0.273 OA
ATOM      4  O   UNL     1     -17.564   7.111  23.940  0.00  0.00    -0.270 OA
ATOM      6  N   UNL     1     -17.111   5.095  24.951  0.00  0.00    -0.284 N 
ATOM      8  N   UNL     1     -15.461   3.612  23.020  0.00  0.00    -0.283 N 
ATOM      9  C   UNL     1     -16.841   3.389  26.565  0.00  0.00    +0.104 C 
ATOM     10  C   UNL     1     -16.198   4.035  25.331  0.00  0.00    +0.183 C 
ATOM     11  C   UNL     1     -18.333   3.672  26.379  0.00  0.00    +0.043 C 
ATOM     13  C   UNL     1     -18.350   5.039  25.713  0.00  0.00    +0.111 C 
ATOM     19  C   UNL     1     -16.118   3.115  24.127  0.00  0.00    +0.240 C 
ATOM     20  C   UNL     1     -16.819   6.146  24.109  0.00  0.00    +0.249 C 
ATOM     21  C   UNL     1     -15.545   6.096  23.344  0.00  0.00    +0.059 A 
ATOM     22  C   UNL     1     -15.002   4.926  22.787  0.00  0.00    +0.046 A 
ATOM     23  C   UNL     1     -14.967   7.341  23.038  0.00  0.00    +0.023 A 
ATOM     24  C   UNL     1     -13.931   5.040  21.883  0.00  0.00    +0.024 A 
ATOM     25  C   UNL     1     -13.874   7.430  22.176  0.00  0.00    -0.014 A 
ATOM     26  C   UNL     1     -13.364   6.280  21.588  0.00  0.00    +0.010 A 
ATOM     35  H   UNL     1     -15.205   2.921  22.319  0.00  0.00    +0.155 HD
ENDROOT
BRANCH  25  27
ATOM      1 CL   UNL     1     -11.043  10.298  18.966  0.00  0.00    -0.084 Cl
ATOM     27  C   UNL     1     -13.289   8.719  21.877  0.00  0.00    +0.025 A 
ATOM     28  C   UNL     1     -13.467   9.804  22.738  0.00  0.00    +0.128 A 
ATOM     29  C   UNL     1     -12.539   8.874  20.710  0.00  0.00    +0.032 A 
ATOM     30  C   UNL     1     -12.895  11.039  22.433  0.00  0.00    +0.047 A 
ATOM     31  C   UNL     1     -11.967  10.110  20.405  0.00  0.00    +0.042 A 
ATOM     32  C   UNL     1     -12.145  11.192  21.266  0.00  0.00    +0.023 A 
BRANCH  28   5
ATOM      5  O   UNL     1     -14.195   9.683  23.884  0.00  0.00    -0.495 OA
ATOM     33  C   UNL     1     -13.670  10.307  25.054  0.00  0.00    +0.277 C 
ENDBRANCH  28   5
ENDBRANCH  25  27
BRANCH   9   7
ATOM      2  O   UNL     1     -15.374   2.084  28.703  0.00  0.00    -0.276 OA
ATOM      7  N   UNL     1     -16.344   3.988  27.782  0.00  0.00    -0.310 N 
ATOM     18  C   UNL     1     -15.650   3.279  28.748  0.00  0.00    +0.216 C 
ATOM     34  H   UNL     1     -16.456   4.991  27.896  0.00  0.00    +0.149 HD
BRANCH  18  12
ATOM     12  C   UNL     1     -15.227   4.147  29.894  0.00  0.00    +0.075 C 
ATOM     14  C   UNL     1     -14.738   3.285  31.062  0.00  0.00    +0.013 C 
ATOM     15  C   UNL     1     -16.412   4.955  30.425  0.00  0.00    +0.013 C 
ATOM     16  C   UNL     1     -15.586   3.690  32.263  0.00  0.00    +0.001 C 
ATOM     17  C   UNL     1     -16.883   4.185  31.651  0.00  0.00    +0.001 C 
ENDBRANCH  18  12
ENDBRANCH   9   7
TORSDOF 4
ENDMDL
MODEL 8
REMARK VINA RESULT:      -7.4     31.381     34.082
REMARK  Name = 11941470
REMARK  5 active torsions:
REMARK  status: ('A' for Active; 'I' for Inactive)
REMARK    1  A    between atoms: O_5  and  C_28
REMARK    2  A    between atoms: O_5  and  C_33
REMARK    3  A    between atoms: N_7  and  C_9
REMARK    4  A    between atoms: C_12  and  C_18
REMARK    5  A    between atoms: C_25  and  C_27
REMARK                            x       y       z     vdW  Elec       q    Type
REMARK                         _______ _______ _______ _____ _____    ______ ____
ROOT
ATOM      3  O   UNL     1      19.940   6.494  23.016  0.00  0.00    -0.273 OA
ATOM      4  O   UNL     1      16.728  10.530  21.940  0.00  0.00    -0.270 OA
ATOM      6  N   UNL     1      18.723   9.387  22.014  0.00  0.00    -0.284 N 
ATOM      8  N   UNL     1      17.996   6.542  21.830  0.00  0.00    -0.283 N 
ATOM      9  C   UNL     1      21.024   8.854  21.922  0.00  0.00    +0.104 C 
ATOM     10  C   UNL     1      19.626   8.363  21.525  0.00  0.00    +0.183 C 
ATOM     11  C   UNL     1      20.760   9.729  23.149  0.00  0.00    +0.043 C 
ATOM     13  C   UNL     1      19.413  10.364  22.844  0.00  0.00    +0.111 C 
ATOM     19  C   UNL     1      19.204   7.082  22.220  0.00  0.00    +0.240 C 
ATOM     20  C   UNL     1      17.410   9.554  21.628  0.00  0.00    +0.249 C 
ATOM     21  C   UNL     1      16.780   8.484  20.811  0.00  0.00    +0.059 A 
ATOM     22  C   UNL     1      17.009   7.110  20.994  0.00  0.00    +0.046 A 
ATOM     23  C   UNL     1      15.772   8.905  19.925  0.00  0.00    +0.023 A 
ATOM     24  C   UNL     1      16.177   6.190  20.332  0.00  0.00    +0.024 A 
ATOM     25  C   UNL     1      14.987   7.977  19.241  0.00  0.00    -0.014 A 
ATOM     26  C   UNL     1      15.182   6.618  19.454  0.00  0.00    +0.010 A 
ATOM     35  H   UNL     1      17.835   5.581  22.116  0.00  0.00    +0.155 HD
ENDROOT
BRANCH  25  27
ATOM      1 CL   UNL     1      13.731  10.874  15.170  0.00  0.00    -0.084 Cl
ATOM     27  C   UNL     1      13.959   8.429  18.329  0.00  0.00    +0.025 A 
ATOM     28  C   UNL     1      12.643   7.980  18.454  0.00  0.00    +0.128 A 
ATOM     29  C   UNL     1      14.294   9.324  17.312  0.00  0.00    +0.032 A 
ATOM     30  C   UNL     1      11.665   8.425  17.565  0.00  0.00    +0.047 A 
ATOM     31  C   UNL     1      13.316   9.770  16.422  0.00  0.00    +0.042 A 
ATOM     32  C   UNL     1      12.001   9.321  16.549  0.00  0.00    +0.023 A 
BRANCH  28   5
ATOM      5  O   UNL     1      12.286   7.104  19.435  0.00  0.00    -0.495 OA
ATOM     33  C   UNL     1      11.501   7.619  20.508  0.00  0.00    +0.277 C 
ENDBRANCH  28   5
ENDBRANCH  25  27
BRANCH   9   7
ATOM      2  O   UNL     1      22.682   7.861  19.756  0.00  0.00    -0.276 OA
ATOM      7  N   UNL     1      21.626   9.619  20.854  0.00  0.00    -0.310 N 
ATOM     18  C   UNL     1      22.406   9.052  19.861  0.00  0.00    +0.216 C 
ATOM     34  H   UNL     1      21.409  10.611  20.801  0.00  0.00    +0.149 HD
BRANCH  18  12
ATOM     12  C   UNL     1      22.882  10.065  18.865  0.00  0.00    +0.075 C 
ATOM     14  C   UNL     1      24.263   9.676  18.327  0.00  0.00    +0.013 C 
ATOM     15  C   UNL     1      23.052  11.434  19.528  0.00  0.00    +0.013 C 
ATOM     16  C   UNL     1      25.170  10.869  18.603  0.00  0.00    +0.001 C 
ATOM     17  C   UNL     1      24.544  11.540  19.812  0.00  0.00    +0.001 C 
ENDBRANCH  18  12
ENDBRANCH   9   7
TORSDOF 4
ENDMDL
MODEL 9
REMARK VINA RESULT:      -7.3     19.763     23.024
REMARK  Name = 11941470
REMARK  5 active torsions:
REMARK  status: ('A' for Active; 'I' for Inactive)
REMARK    1  A    between atoms: O_5  and  C_28
REMARK    2  A    between atoms: O_5  and  C_33
REMARK    3  A    between atoms: N_7  and  C_9
REMARK    4  A    between atoms: C_12  and  C_18
REMARK    5  A    between atoms: C_25  and  C_27
REMARK                            x       y       z     vdW  Elec       q    Type
REMARK                         _______ _______ _______ _____ _____    ______ ____
ROOT
ATOM      3  O   UNL     1      -2.896 -14.196  14.303  0.00  0.00    -0.273 OA
ATOM      4  O   UNL     1      -4.115 -10.300  17.634  0.00  0.00    -0.270 OA
ATOM      6  N   UNL     1      -3.463 -11.237  15.638  0.00  0.00    -0.284 N 
ATOM      8  N   UNL     1      -4.774 -13.869  15.550  0.00  0.00    -0.283 N 
ATOM      9  C   UNL     1      -2.632 -11.525  13.443  0.00  0.00    +0.104 C 
ATOM     10  C   UNL     1      -3.752 -11.944  14.404  0.00  0.00    +0.183 C 
ATOM     11  C   UNL     1      -1.472 -11.176  14.377  0.00  0.00    +0.043 C 
ATOM     13  C   UNL     1      -2.166 -10.577  15.590  0.00  0.00    +0.111 C 
ATOM     19  C   UNL     1      -3.733 -13.418  14.765  0.00  0.00    +0.240 C 
ATOM     20  C   UNL     1      -4.344 -11.042  16.679  0.00  0.00    +0.249 C 
ATOM     21  C   UNL     1      -5.629 -11.789  16.658  0.00  0.00    +0.059 A 
ATOM     22  C   UNL     1      -5.766 -13.115  16.213  0.00  0.00    +0.046 A 
ATOM     23  C   UNL     1      -6.716 -11.154  17.286  0.00  0.00    +0.023 A 
ATOM     24  C   UNL     1      -6.971 -13.794  16.468  0.00  0.00    +0.024 A 
ATOM     25  C   UNL     1      -7.919 -11.829  17.487  0.00  0.00    -0.014 A 
ATOM     26  C   UNL     1      -8.043 -13.154  17.089  0.00  0.00    +0.010 A 
ATOM     35  H   UNL     1      -4.886 -14.879  15.587  0.00  0.00    +0.155 HD
ENDROOT
BRANCH  25  27
ATOM      1 CL   UNL     1     -11.823  -8.491  17.087  0.00  0.00    -0.084 Cl
ATOM     27  C   UNL     1      -9.028 -11.157  18.130  0.00  0.00    +0.025 A 
ATOM     28  C   UNL     1      -9.334 -11.401  19.470  0.00  0.00    +0.128 A 
ATOM     29  C   UNL     1      -9.800 -10.257  17.394  0.00  0.00    +0.032 A 
ATOM     30  C   UNL     1     -10.408 -10.745  20.073  0.00  0.00    +0.047 A 
ATOM     31  C   UNL     1     -10.874  -9.600  17.996  0.00  0.00    +0.042 A 
ATOM     32  C   UNL     1     -11.178  -9.844  19.335  0.00  0.00    +0.023 A 
BRANCH  28   5
ATOM      5  O   UNL     1      -8.600 -12.276  20.214  0.00  0.00    -0.495 OA
ATOM     33  C   UNL     1      -9.179 -13.555  20.467  0.00  0.00    +0.277 C 
ENDBRANCH  28   5
ENDBRANCH  25  27
BRANCH   9   7
ATOM      2  O   UNL     1      -3.432 -11.501  10.652  0.00  0.00    -0.276 OA
ATOM      7  N   UNL     1      -3.030 -10.382  12.653  0.00  0.00    -0.310 N 
ATOM     18  C   UNL     1      -3.397 -10.472  11.321  0.00  0.00    +0.216 C 
ATOM     34  H   UNL     1      -3.102  -9.484  13.122  0.00  0.00    +0.149 HD
BRANCH  18  12
ATOM     12  C   UNL     1      -3.788  -9.143  10.750  0.00  0.00    +0.075 C 
ATOM     14  C   UNL     1      -5.246  -8.823  11.096  0.00  0.00    +0.013 C 
ATOM     15  C   UNL     1      -3.707  -9.168   9.222  0.00  0.00    +0.013 C 
ATOM     16  C   UNL     1      -5.946  -8.571   9.765  0.00  0.00    +0.001 C 
ATOM     17  C   UNL     1      -5.143  -9.384   8.765  0.00  0.00    +0.001 C 
ENDBRANCH  18  12
ENDBRANCH   9   7
TORSDOF 4
ENDMDL
MODEL 10
REMARK VINA RESULT:      -7.2     30.556     34.219
REMARK  Name = 11941470
REMARK  5 active torsions:
REMARK  status: ('A' for Active; 'I' for Inactive)
REMARK    1  A    between atoms: O_5  and  C_28
REMARK    2  A    between atoms: O_5  and  C_33
REMARK    3  A    between atoms: N_7  and  C_9
REMARK    4  A    between atoms: C_12  and  C_18
REMARK    5  A    between atoms: C_25  and  C_27
REMARK                            x       y       z     vdW  Elec       q    Type
REMARK                         _______ _______ _______ _____ _____    ______ ____
ROOT
ATOM      3  O   UNL     1      10.078   5.120   7.641  0.00  0.00    -0.273 OA
ATOM      4  O   UNL     1       8.182   7.771   3.501  0.00  0.00    -0.270 OA
ATOM      6  N   UNL     1       9.361   7.478   5.454  0.00  0.00    -0.284 N 
ATOM      8  N   UNL     1      10.243   4.671   5.414  0.00  0.00    -0.283 N 
ATOM      9  C   UNL     1      10.587   7.885   7.435  0.00  0.00    +0.104 C 
ATOM     10  C   UNL     1      10.516   6.994   6.187  0.00  0.00    +0.183 C 
ATOM     11  C   UNL     1       9.136   8.325   7.642  0.00  0.00    +0.043 C 
ATOM     13  C   UNL     1       8.602   8.452   6.224  0.00  0.00    +0.111 C 
ATOM     19  C   UNL     1      10.224   5.536   6.490  0.00  0.00    +0.240 C 
ATOM     20  C   UNL     1       9.079   7.211   4.132  0.00  0.00    +0.249 C 
ATOM     21  C   UNL     1       9.886   6.173   3.439  0.00  0.00    +0.059 A 
ATOM     22  C   UNL     1      10.326   4.981   4.039  0.00  0.00    +0.046 A 
ATOM     23  C   UNL     1      10.055   6.353   2.054  0.00  0.00    +0.023 A 
ATOM     24  C   UNL     1      10.866   3.971   3.224  0.00  0.00    +0.024 A 
ATOM     25  C   UNL     1      10.636   5.358   1.269  0.00  0.00    -0.014 A 
ATOM     26  C   UNL     1      11.031   4.161   1.853  0.00  0.00    +0.010 A 
ATOM     35  H   UNL     1      10.286   3.684   5.650  0.00  0.00    +0.155 HD
ENDROOT
BRANCH  25  27
ATOM      1 CL   UNL     1       8.503   5.400  -3.421  0.00  0.00    -0.084 Cl
ATOM     27  C   UNL     1      10.807   5.563  -0.153  0.00  0.00    +0.025 A 
ATOM     28  C   UNL     1      12.049   5.919  -0.682  0.00  0.00    +0.128 A 
ATOM     29  C   UNL     1       9.711   5.403  -1.002  0.00  0.00    +0.032 A 
ATOM     30  C   UNL     1      12.195   6.114  -2.055  0.00  0.00    +0.047 A 
ATOM     31  C   UNL     1       9.856   5.598  -2.376  0.00  0.00    +0.042 A 
ATOM     32  C   UNL     1      11.098   5.953  -2.903  0.00  0.00    +0.023 A 
BRANCH  28   5
ATOM      5  O   UNL     1      13.137   6.085   0.122  0.00  0.00    -0.495 OA
ATOM     33  C   UNL     1      14.251   5.225  -0.111  0.00  0.00    +0.277 C 
ENDBRANCH  28   5
ENDBRANCH  25  27
BRANCH   9   7
ATOM      2  O   UNL     1      13.472   7.871   7.107  0.00  0.00    -0.276 OA
ATOM      7  N   UNL     1      11.451   9.021   7.209  0.00  0.00    -0.310 N 
ATOM     18  C   UNL     1      12.824   8.913   7.065  0.00  0.00    +0.216 C 
ATOM     34  H   UNL     1      11.015   9.931   7.089  0.00  0.00    +0.149 HD
BRANCH  18  12
ATOM     12  C   UNL     1      13.474  10.239   6.815  0.00  0.00    +0.075 C 
ATOM     14  C   UNL     1      12.749  10.985   5.690  0.00  0.00    +0.013 C 
ATOM     15  C   UNL     1      14.917  10.053   6.344  0.00  0.00    +0.013 C 
ATOM     16  C   UNL     1      13.813  11.298   4.643  0.00  0.00    +0.001 C 
ATOM     17  C   UNL     1      14.850  10.205   4.831  0.00  0.00    +0.001 C 
ENDBRANCH  18  12
ENDBRANCH   9   7
TORSDOF 4
ENDMDL
