MODEL 1
REMARK VINA RESULT:      -7.1      0.000      0.000
REMARK  Name = 45784166
REMARK  10 active torsions:
REMARK  status: ('A' for Active; 'I' for Inactive)
REMARK    1  A    between atoms: N_4  and  C_14
REMARK    2  A    between atoms: C_7  and  C_11
REMARK    3  A    between atoms: C_8  and  C_14
REMARK    4  A    between atoms: C_10  and  C_15
REMARK    5  A    between atoms: C_11  and  C_16
REMARK    6  A    between atoms: C_11  and  C_17
REMARK    7  A    between atoms: C_12  and  C_18
REMARK    8  A    between atoms: C_15  and  C_19
REMARK    9  A    between atoms: C_20  and  C_22
REMARK   10  A    between atoms: C_21  and  C_23
REMARK                            x       y       z     vdW  Elec       q    Type
REMARK                         _______ _______ _______ _____ _____    ______ ____
ROOT
ATOM      7  C   UNL     1      12.717  10.712  21.981  0.00  0.00    +0.000 C 
ATOM      8  C   UNL     1      11.229  10.626  22.404  0.00  0.00    +0.032 C 
ATOM      9  C   UNL     1      12.981   9.819  20.760  0.00  0.00    +0.012 C 
ATOM     10  C   UNL     1      12.637   8.343  21.033  0.00  0.00    +0.024 C 
ATOM     12  C   UNL     1      11.284   8.194  21.700  0.00  0.00    -0.073 C 
ATOM     13  C   UNL     1      10.665   9.227  22.296  0.00  0.00    -0.022 C 
ATOM     18  C   UNL     1      10.640   6.837  21.628  0.00  0.00    +0.039 C 
ENDROOT
BRANCH   7  11
ATOM     11  C   UNL     1      13.136  12.153  21.671  0.00  0.00    -0.013 C 
ATOM     16  C   UNL     1      14.585  12.195  21.196  0.00  0.00    +0.007 C 
ATOM     17  C   UNL     1      12.207  12.764  20.626  0.00  0.00    +0.007 C 
ENDBRANCH   7  11
BRANCH   8  14
ATOM     14  C   UNL     1      11.026  11.149  23.829  0.00  0.00    +0.112 C 
BRANCH  14   4
ATOM      3  O   UNL     1      11.932  13.866  24.308  0.00  0.00    -0.276 OA
ATOM      4  N   UNL     1      10.237  12.342  23.825  0.00  0.00    -0.315 N 
ATOM     20  C   UNL     1      10.754  13.612  24.067  0.00  0.00    +0.210 C 
ATOM     22  C   UNL     1       9.711  14.693  23.977  0.00  0.00    +0.109 C 
ATOM     29  H   UNL     1       9.257  12.262  23.572  0.00  0.00    +0.149 HD
ENDBRANCH  14   4
ENDBRANCH   8  14
BRANCH  10  15
ATOM     15  C   UNL     1      13.735   7.664  21.859  0.00  0.00    +0.105 C 
BRANCH  15  19
ATOM      2  O   UNL     1      16.133   7.341  21.538  0.00  0.00    -0.420 OA
ATOM      5  N   UNL     1      14.887   6.775  19.768  0.00  0.00    -0.112 NA
ATOM      6  N   UNL     1      16.212   6.543  19.449  0.00  0.00    -0.107 NA
ATOM     19  C   UNL     1      14.888   7.239  20.995  0.00  0.00    +0.218 A 
ATOM     21  C   UNL     1      16.902   6.887  20.511  0.00  0.00    +0.251 A 
BRANCH  21  23
ATOM      1  F   UNL     1      18.535   4.833  19.526  0.00  0.00    -0.205 F 
ATOM     23  C   UNL     1      18.316   6.859  20.753  0.00  0.00    +0.074 A 
ATOM     24  C   UNL     1      19.093   5.818  20.245  0.00  0.00    +0.136 A 
ATOM     25  C   UNL     1      18.912   7.876  21.498  0.00  0.00    +0.016 A 
ATOM     26  C   UNL     1      20.468   5.794  20.484  0.00  0.00    +0.039 A 
ATOM     27  C   UNL     1      20.286   7.852  21.736  0.00  0.00    +0.001 A 
ATOM     28  C   UNL     1      21.065   6.811  21.229  0.00  0.00    +0.003 A 
ENDBRANCH  21  23
ENDBRANCH  15  19
ENDBRANCH  10  15
TORSDOF 6
ENDMDL
MODEL 2
REMARK VINA RESULT:      -6.9     27.657     29.077
REMARK  Name = 45784166
REMARK  10 active torsions:
REMARK  status: ('A' for Active; 'I' for Inactive)
REMARK    1  A    between atoms: N_4  and  C_14
REMARK    2  A    between atoms: C_7  and  C_11
REMARK    3  A    between atoms: C_8  and  C_14
REMARK    4  A    between atoms: C_10  and  C_15
REMARK    5  A    between atoms: C_11  and  C_16
REMARK    6  A    between atoms: C_11  and  C_17
REMARK    7  A    between atoms: C_12  and  C_18
REMARK    8  A    between atoms: C_15  and  C_19
REMARK    9  A    between atoms: C_20  and  C_22
REMARK   10  A    between atoms: C_21  and  C_23
REMARK                            x       y       z     vdW  Elec       q    Type
REMARK                         _______ _______ _______ _____ _____    ______ ____
ROOT
ATOM      7  C   UNL     1      -6.342 -10.895  16.150  0.00  0.00    +0.000 C 
ATOM      8  C   UNL     1      -6.845 -10.875  17.615  0.00  0.00    +0.032 C 
ATOM      9  C   UNL     1      -5.382 -12.074  15.928  0.00  0.00    +0.012 C 
ATOM     10  C   UNL     1      -4.160 -12.012  16.862  0.00  0.00    +0.024 C 
ATOM     12  C   UNL     1      -4.560 -11.726  18.296  0.00  0.00    -0.073 C 
ATOM     13  C   UNL     1      -5.768 -11.231  18.614  0.00  0.00    -0.022 C 
ATOM     18  C   UNL     1      -3.553 -12.066  19.360  0.00  0.00    +0.039 C 
ENDROOT
BRANCH   7  11
ATOM     11  C   UNL     1      -7.502 -10.976  15.153  0.00  0.00    -0.013 C 
ATOM     16  C   UNL     1      -7.315  -9.956  14.034  0.00  0.00    +0.007 C 
ATOM     17  C   UNL     1      -7.618 -12.386  14.583  0.00  0.00    +0.007 C 
ENDBRANCH   7  11
BRANCH   8  14
ATOM     14  C   UNL     1      -7.446  -9.512  17.976  0.00  0.00    +0.112 C 
BRANCH  14   4
ATOM      3  O   UNL     1      -9.556  -8.195  16.477  0.00  0.00    -0.276 OA
ATOM      4  N   UNL     1      -8.857  -9.618  18.185  0.00  0.00    -0.315 N 
ATOM     20  C   UNL     1      -9.804  -8.948  17.416  0.00  0.00    +0.210 C 
ATOM     22  C   UNL     1     -11.217  -9.257  17.833  0.00  0.00    +0.109 C 
ATOM     29  H   UNL     1      -9.185 -10.266  18.895  0.00  0.00    +0.149 HD
ENDBRANCH  14   4
ENDBRANCH   8  14
BRANCH  10  15
ATOM     15  C   UNL     1      -3.135 -10.988  16.364  0.00  0.00    +0.105 C 
BRANCH  15  19
ATOM      2  O   UNL     1      -3.578 -10.500  14.014  0.00  0.00    -0.420 OA
ATOM      5  N   UNL     1      -1.906 -11.949  14.349  0.00  0.00    -0.112 NA
ATOM      6  N   UNL     1      -2.046 -11.767  12.986  0.00  0.00    -0.107 NA
ATOM     19  C   UNL     1      -2.819 -11.191  14.909  0.00  0.00    +0.218 A 
ATOM     21  C   UNL     1      -3.032 -10.914  12.837  0.00  0.00    +0.251 A 
BRANCH  21  23
ATOM      1  F   UNL     1      -1.554  -9.325  11.064  0.00  0.00    -0.205 F 
ATOM     23  C   UNL     1      -3.614 -10.360  11.648  0.00  0.00    +0.074 A 
ATOM     24  C   UNL     1      -2.843  -9.574  10.792  0.00  0.00    +0.136 A 
ATOM     25  C   UNL     1      -4.953 -10.609  11.351  0.00  0.00    +0.016 A 
ATOM     26  C   UNL     1      -3.413  -9.036   9.637  0.00  0.00    +0.039 A 
ATOM     27  C   UNL     1      -5.523 -10.072  10.196  0.00  0.00    +0.001 A 
ATOM     28  C   UNL     1      -4.753  -9.285   9.339  0.00  0.00    +0.003 A 
ENDBRANCH  21  23
ENDBRANCH  15  19
ENDBRANCH  10  15
TORSDOF 6
ENDMDL
MODEL 3
REMARK VINA RESULT:      -6.8     27.541     29.907
REMARK  Name = 45784166
REMARK  10 active torsions:
REMARK  status: ('A' for Active; 'I' for Inactive)
REMARK    1  A    between atoms: N_4  and  C_14
REMARK    2  A    between atoms: C_7  and  C_11
REMARK    3  A    between atoms: C_8  and  C_14
REMARK    4  A    between atoms: C_10  and  C_15
REMARK    5  A    between atoms: C_11  and  C_16
REMARK    6  A    between atoms: C_11  and  C_17
REMARK    7  A    between atoms: C_12  and  C_18
REMARK    8  A    between atoms: C_15  and  C_19
REMARK    9  A    between atoms: C_20  and  C_22
REMARK   10  A    between atoms: C_21  and  C_23
REMARK                            x       y       z     vdW  Elec       q    Type
REMARK                         _______ _______ _______ _____ _____    ______ ____
ROOT
ATOM      7  C   UNL     1      -6.429  -9.717   9.968  0.00  0.00    +0.000 C 
ATOM      8  C   UNL     1      -5.533  -9.274   8.784  0.00  0.00    +0.032 C 
ATOM      9  C   UNL     1      -5.962  -9.053  11.272  0.00  0.00    +0.012 C 
ATOM     10  C   UNL     1      -4.501  -9.399  11.610  0.00  0.00    +0.024 C 
ATOM     12  C   UNL     1      -3.591  -9.242  10.408  0.00  0.00    -0.073 C 
ATOM     13  C   UNL     1      -4.071  -9.175   9.155  0.00  0.00    -0.022 C 
ATOM     18  C   UNL     1      -2.118  -9.120  10.685  0.00  0.00    +0.039 C 
ENDROOT
BRANCH   7  11
ATOM     11  C   UNL     1      -7.904  -9.387   9.718  0.00  0.00    -0.013 C 
ATOM     16  C   UNL     1      -8.717  -9.581  10.994  0.00  0.00    +0.007 C 
ATOM     17  C   UNL     1      -8.050  -7.962   9.196  0.00  0.00    +0.007 C 
ENDBRANCH   7  11
BRANCH   8  14
ATOM     14  C   UNL     1      -5.694 -10.215   7.586  0.00  0.00    +0.112 C 
BRANCH  14   4
ATOM      3  O   UNL     1      -8.277 -10.000   6.278  0.00  0.00    -0.276 OA
ATOM      4  N   UNL     1      -6.009  -9.480   6.401  0.00  0.00    -0.315 N 
ATOM     20  C   UNL     1      -7.282  -9.431   5.837  0.00  0.00    +0.210 C 
ATOM     22  C   UNL     1      -7.341  -8.564   4.608  0.00  0.00    +0.109 C 
ATOM     29  H   UNL     1      -5.276  -8.914   5.983  0.00  0.00    +0.149 HD
ENDBRANCH  14   4
ENDBRANCH   8  14
BRANCH  10  15
ATOM     15  C   UNL     1      -4.390 -10.809  12.203  0.00  0.00    +0.105 C 
BRANCH  15  19
ATOM      2  O   UNL     1      -4.790 -10.867  14.610  0.00  0.00    -0.420 OA
ATOM      5  N   UNL     1      -2.635 -10.661  14.043  0.00  0.00    -0.112 NA
ATOM      6  N   UNL     1      -2.714 -10.681  15.424  0.00  0.00    -0.107 NA
ATOM     19  C   UNL     1      -3.869 -10.773  13.611  0.00  0.00    +0.218 A 
ATOM     21  C   UNL     1      -3.990 -10.802  15.709  0.00  0.00    +0.251 A 
BRANCH  21  23
ATOM      1  F   UNL     1      -6.275  -9.280  16.271  0.00  0.00    -0.205 F 
ATOM     23  C   UNL     1      -4.658 -10.876  16.976  0.00  0.00    +0.074 A 
ATOM     24  C   UNL     1      -5.793 -10.101  17.215  0.00  0.00    +0.136 A 
ATOM     25  C   UNL     1      -4.170 -11.724  17.969  0.00  0.00    +0.016 A 
ATOM     26  C   UNL     1      -6.440 -10.174  18.450  0.00  0.00    +0.039 A 
ATOM     27  C   UNL     1      -4.816 -11.798  19.203  0.00  0.00    +0.001 A 
ATOM     28  C   UNL     1      -5.951 -11.023  19.444  0.00  0.00    +0.003 A 
ENDBRANCH  21  23
ENDBRANCH  15  19
ENDBRANCH  10  15
TORSDOF 6
ENDMDL
MODEL 4
REMARK VINA RESULT:      -6.8     25.474     27.413
REMARK  Name = 45784166
REMARK  10 active torsions:
REMARK  status: ('A' for Active; 'I' for Inactive)
REMARK    1  A    between atoms: N_4  and  C_14
REMARK    2  A    between atoms: C_7  and  C_11
REMARK    3  A    between atoms: C_8  and  C_14
REMARK    4  A    between atoms: C_10  and  C_15
REMARK    5  A    between atoms: C_11  and  C_16
REMARK    6  A    between atoms: C_11  and  C_17
REMARK    7  A    between atoms: C_12  and  C_18
REMARK    8  A    between atoms: C_15  and  C_19
REMARK    9  A    between atoms: C_20  and  C_22
REMARK   10  A    between atoms: C_21  and  C_23
REMARK                            x       y       z     vdW  Elec       q    Type
REMARK                         _______ _______ _______ _____ _____    ______ ____
ROOT
ATOM      7  C   UNL     1     -11.738  10.133  18.476  0.00  0.00    +0.000 C 
ATOM      8  C   UNL     1     -11.495   8.742  17.838  0.00  0.00    +0.032 C 
ATOM      9  C   UNL     1     -11.158  10.179  19.897  0.00  0.00    +0.012 C 
ATOM     10  C   UNL     1     -11.776   9.108  20.814  0.00  0.00    +0.024 C 
ATOM     12  C   UNL     1     -11.816   7.749  20.145  0.00  0.00    -0.073 C 
ATOM     13  C   UNL     1     -11.676   7.604  18.816  0.00  0.00    -0.022 C 
ATOM     18  C   UNL     1     -11.978   6.555  21.045  0.00  0.00    +0.039 C 
ENDROOT
BRANCH   7  11
ATOM     11  C   UNL     1     -11.133  11.258  17.631  0.00  0.00    -0.013 C 
ATOM     16  C   UNL     1     -11.165  12.576  18.399  0.00  0.00    +0.007 C 
ATOM     17  C   UNL     1      -9.707  10.907  17.220  0.00  0.00    +0.007 C 
ENDBRANCH   7  11
BRANCH   8  14
ATOM     14  C   UNL     1     -12.406   8.522  16.625  0.00  0.00    +0.112 C 
BRANCH  14   4
ATOM      3  O   UNL     1     -11.523   9.926  14.241  0.00  0.00    -0.276 OA
ATOM      4  N   UNL     1     -11.666   7.987  15.525  0.00  0.00    -0.315 N 
ATOM     20  C   UNL     1     -11.282   8.734  14.414  0.00  0.00    +0.210 C 
ATOM     22  C   UNL     1     -10.491   7.931  13.417  0.00  0.00    +0.109 C 
ATOM     29  H   UNL     1     -11.352   7.022  15.587  0.00  0.00    +0.149 HD
ENDBRANCH  14   4
ENDBRANCH   8  14
BRANCH  10  15
ATOM     15  C   UNL     1     -13.171   9.527  21.291  0.00  0.00    +0.105 C 
BRANCH  15  19
ATOM      2  O   UNL     1     -12.792   9.909  23.672  0.00  0.00    -0.420 OA
ATOM      5  N   UNL     1     -13.273  11.761  22.512  0.00  0.00    -0.112 NA
ATOM      6  N   UNL     1     -13.084  12.121  23.833  0.00  0.00    -0.107 NA
ATOM     19  C   UNL     1     -13.092  10.462  22.464  0.00  0.00    +0.218 A 
ATOM     21  C   UNL     1     -12.806  11.009  24.473  0.00  0.00    +0.251 A 
BRANCH  21  23
ATOM      1  F   UNL     1     -10.184  10.708  25.416  0.00  0.00    -0.205 F 
ATOM     23  C   UNL     1     -12.519  10.779  25.859  0.00  0.00    +0.074 A 
ATOM     24  C   UNL     1     -11.200  10.634  26.287  0.00  0.00    +0.136 A 
ATOM     25  C   UNL     1     -13.565  10.698  26.779  0.00  0.00    +0.016 A 
ATOM     26  C   UNL     1     -10.926  10.408  27.637  0.00  0.00    +0.039 A 
ATOM     27  C   UNL     1     -13.291  10.473  28.128  0.00  0.00    +0.001 A 
ATOM     28  C   UNL     1     -11.971  10.327  28.557  0.00  0.00    +0.003 A 
ENDBRANCH  21  23
ENDBRANCH  15  19
ENDBRANCH  10  15
TORSDOF 6
ENDMDL
MODEL 5
REMARK VINA RESULT:      -6.7     18.707     19.877
REMARK  Name = 45784166
REMARK  10 active torsions:
REMARK  status: ('A' for Active; 'I' for Inactive)
REMARK    1  A    between atoms: N_4  and  C_14
REMARK    2  A    between atoms: C_7  and  C_11
REMARK    3  A    between atoms: C_8  and  C_14
REMARK    4  A    between atoms: C_10  and  C_15
REMARK    5  A    between atoms: C_11  and  C_16
REMARK    6  A    between atoms: C_11  and  C_17
REMARK    7  A    between atoms: C_12  and  C_18
REMARK    8  A    between atoms: C_15  and  C_19
REMARK    9  A    between atoms: C_20  and  C_22
REMARK   10  A    between atoms: C_21  and  C_23
REMARK                            x       y       z     vdW  Elec       q    Type
REMARK                         _______ _______ _______ _____ _____    ______ ____
ROOT
ATOM      7  C   UNL     1       8.972   8.029   4.927  0.00  0.00    +0.000 C 
ATOM      8  C   UNL     1       8.719   6.875   5.930  0.00  0.00    +0.032 C 
ATOM      9  C   UNL     1       8.902   7.510   3.483  0.00  0.00    +0.012 C 
ATOM     10  C   UNL     1       9.932   6.397   3.215  0.00  0.00    +0.024 C 
ATOM     12  C   UNL     1       9.928   5.350   4.310  0.00  0.00    -0.073 C 
ATOM     13  C   UNL     1       9.370   5.577   5.512  0.00  0.00    -0.022 C 
ATOM     18  C   UNL     1      10.543   4.019   3.976  0.00  0.00    +0.039 C 
ENDROOT
BRANCH   7  11
ATOM     11  C   UNL     1       7.971   9.174   5.116  0.00  0.00    -0.013 C 
ATOM     16  C   UNL     1       8.698  10.457   5.507  0.00  0.00    +0.007 C 
ATOM     17  C   UNL     1       7.155   9.382   3.845  0.00  0.00    +0.007 C 
ENDBRANCH   7  11
BRANCH   8  14
ATOM     14  C   UNL     1       9.189   7.252   7.339  0.00  0.00    +0.112 C 
BRANCH  14   4
ATOM      3  O   UNL     1      10.931   5.453   8.808  0.00  0.00    -0.276 OA
ATOM      4  N   UNL     1       8.806   6.252   8.287  0.00  0.00    -0.315 N 
ATOM     20  C   UNL     1       9.712   5.428   8.949  0.00  0.00    +0.210 C 
ATOM     22  C   UNL     1       9.043   4.482   9.911  0.00  0.00    +0.109 C 
ATOM     29  H   UNL     1       7.823   6.183   8.534  0.00  0.00    +0.149 HD
ENDBRANCH  14   4
ENDBRANCH   8  14
BRANCH  10  15
ATOM     15  C   UNL     1      11.336   6.980   3.016  0.00  0.00    +0.105 C 
BRANCH  15  19
ATOM      2  O   UNL     1      11.298   5.563   1.029  0.00  0.00    -0.420 OA
ATOM      5  N   UNL     1      12.929   7.095   1.032  0.00  0.00    -0.112 NA
ATOM      6  N   UNL     1      13.026   6.370  -0.142  0.00  0.00    -0.107 NA
ATOM     19  C   UNL     1      11.908   6.590   1.683  0.00  0.00    +0.218 A 
ATOM     21  C   UNL     1      12.055   5.488  -0.100  0.00  0.00    +0.251 A 
BRANCH  21  23
ATOM      1  F   UNL     1      13.476   3.086  -0.353  0.00  0.00    -0.205 F 
ATOM     23  C   UNL     1      11.675   4.476  -1.043  0.00  0.00    +0.074 A 
ATOM     24  C   UNL     1      12.409   3.294  -1.137  0.00  0.00    +0.136 A 
ATOM     25  C   UNL     1      10.567   4.677  -1.867  0.00  0.00    +0.016 A 
ATOM     26  C   UNL     1      12.036   2.313  -2.057  0.00  0.00    +0.039 A 
ATOM     27  C   UNL     1      10.194   3.697  -2.786  0.00  0.00    +0.001 A 
ATOM     28  C   UNL     1      10.929   2.514  -2.881  0.00  0.00    +0.003 A 
ENDBRANCH  21  23
ENDBRANCH  15  19
ENDBRANCH  10  15
TORSDOF 6
ENDMDL
MODEL 6
REMARK VINA RESULT:      -6.7      3.754      7.701
REMARK  Name = 45784166
REMARK  10 active torsions:
REMARK  status: ('A' for Active; 'I' for Inactive)
REMARK    1  A    between atoms: N_4  and  C_14
REMARK    2  A    between atoms: C_7  and  C_11
REMARK    3  A    between atoms: C_8  and  C_14
REMARK    4  A    between atoms: C_10  and  C_15
REMARK    5  A    between atoms: C_11  and  C_16
REMARK    6  A    between atoms: C_11  and  C_17
REMARK    7  A    between atoms: C_12  and  C_18
REMARK    8  A    between atoms: C_15  and  C_19
REMARK    9  A    between atoms: C_20  and  C_22
REMARK   10  A    between atoms: C_21  and  C_23
REMARK                            x       y       z     vdW  Elec       q    Type
REMARK                         _______ _______ _______ _____ _____    ______ ____
ROOT
ATOM      7  C   UNL     1      14.013   8.967  20.217  0.00  0.00    +0.000 C 
ATOM      8  C   UNL     1      14.094   7.536  19.627  0.00  0.00    +0.032 C 
ATOM      9  C   UNL     1      13.620   8.913  21.701  0.00  0.00    +0.012 C 
ATOM     10  C   UNL     1      12.264   8.218  21.919  0.00  0.00    +0.024 C 
ATOM     12  C   UNL     1      12.166   6.918  21.147  0.00  0.00    -0.073 C 
ATOM     13  C   UNL     1      13.000   6.625  20.135  0.00  0.00    -0.022 C 
ATOM     18  C   UNL     1      11.114   5.941  21.595  0.00  0.00    +0.039 C 
ENDROOT
BRANCH   7  11
ATOM     11  C   UNL     1      15.336   9.723  20.058  0.00  0.00    -0.013 C 
ATOM     16  C   UNL     1      15.268  11.071  20.768  0.00  0.00    +0.007 C 
ATOM     17  C   UNL     1      16.494   8.888  20.594  0.00  0.00    +0.007 C 
ENDBRANCH   7  11
BRANCH   8  14
ATOM     14  C   UNL     1      14.063   7.567  18.095  0.00  0.00    +0.112 C 
BRANCH  14   4
ATOM      3  O   UNL     1      12.736   9.881  16.950  0.00  0.00    -0.276 OA
ATOM      4  N   UNL     1      12.719   7.649  17.616  0.00  0.00    -0.315 N 
ATOM     20  C   UNL     1      12.158   8.805  17.079  0.00  0.00    +0.210 C 
ATOM     22  C   UNL     1      10.736   8.608  16.629  0.00  0.00    +0.109 C 
ATOM     29  H   UNL     1      12.163   6.798  17.612  0.00  0.00    +0.149 HD
ENDBRANCH  14   4
ENDBRANCH   8  14
BRANCH  10  15
ATOM     15  C   UNL     1      11.101   9.153  21.570  0.00  0.00    +0.105 C 
BRANCH  15  19
ATOM      2  O   UNL     1      11.435  10.957  23.180  0.00  0.00    -0.420 OA
ATOM      5  N   UNL     1      11.746  11.562  21.048  0.00  0.00    -0.112 NA
ATOM      6  N   UNL     1      11.966  12.671  21.843  0.00  0.00    -0.107 NA
ATOM     19  C   UNL     1      11.440  10.586  21.870  0.00  0.00    +0.218 A 
ATOM     21  C   UNL     1      11.773  12.272  23.079  0.00  0.00    +0.251 A 
BRANCH  21  23
ATOM      1  F   UNL     1       9.602  13.705  24.121  0.00  0.00    -0.205 F 
ATOM     23  C   UNL     1      11.862  12.993  24.316  0.00  0.00    +0.074 A 
ATOM     24  C   UNL     1      10.758  13.693  24.799  0.00  0.00    +0.136 A 
ATOM     25  C   UNL     1      13.058  12.991  25.034  0.00  0.00    +0.016 A 
ATOM     26  C   UNL     1      10.850  14.395  26.003  0.00  0.00    +0.039 A 
ATOM     27  C   UNL     1      13.149  13.691  26.237  0.00  0.00    +0.001 A 
ATOM     28  C   UNL     1      12.045  14.394  26.721  0.00  0.00    +0.003 A 
ENDBRANCH  21  23
ENDBRANCH  15  19
ENDBRANCH  10  15
TORSDOF 6
ENDMDL
MODEL 7
REMARK VINA RESULT:      -6.4     27.025     30.282
REMARK  Name = 45784166
REMARK  10 active torsions:
REMARK  status: ('A' for Active; 'I' for Inactive)
REMARK    1  A    between atoms: N_4  and  C_14
REMARK    2  A    between atoms: C_7  and  C_11
REMARK    3  A    between atoms: C_8  and  C_14
REMARK    4  A    between atoms: C_10  and  C_15
REMARK    5  A    between atoms: C_11  and  C_16
REMARK    6  A    between atoms: C_11  and  C_17
REMARK    7  A    between atoms: C_12  and  C_18
REMARK    8  A    between atoms: C_15  and  C_19
REMARK    9  A    between atoms: C_20  and  C_22
REMARK   10  A    between atoms: C_21  and  C_23
REMARK                            x       y       z     vdW  Elec       q    Type
REMARK                         _______ _______ _______ _____ _____    ______ ____
ROOT
ATOM      7  C   UNL     1     -10.260  -9.563  18.371  0.00  0.00    +0.000 C 
ATOM      8  C   UNL     1     -11.164 -10.526  19.182  0.00  0.00    +0.032 C 
ATOM      9  C   UNL     1      -9.251 -10.356  17.527  0.00  0.00    +0.012 C 
ATOM     10  C   UNL     1      -8.351 -11.257  18.392  0.00  0.00    +0.024 C 
ATOM     12  C   UNL     1      -9.152 -12.047  19.407  0.00  0.00    -0.073 C 
ATOM     13  C   UNL     1     -10.411 -11.714  19.737  0.00  0.00    -0.022 C 
ATOM     18  C   UNL     1      -8.486 -13.258  20.001  0.00  0.00    +0.039 C 
ENDROOT
BRANCH   7  11
ATOM     11  C   UNL     1     -11.083  -8.641  17.466  0.00  0.00    -0.013 C 
ATOM     16  C   UNL     1     -10.168  -7.684  16.708  0.00  0.00    +0.007 C 
ATOM     17  C   UNL     1     -11.927  -9.461  16.496  0.00  0.00    +0.007 C 
ENDBRANCH   7  11
BRANCH   8  14
ATOM     14  C   UNL     1     -11.873  -9.792  20.324  0.00  0.00    +0.112 C 
BRANCH  14   4
ATOM      3  O   UNL     1     -14.600 -10.766  20.528  0.00  0.00    -0.276 OA
ATOM      4  N   UNL     1     -12.395 -10.720  21.278  0.00  0.00    -0.315 N 
ATOM     20  C   UNL     1     -13.724 -11.135  21.305  0.00  0.00    +0.210 C 
ATOM     22  C   UNL     1     -14.000 -12.135  22.396  0.00  0.00    +0.109 C 
ATOM     29  H   UNL     1     -11.746 -11.144  21.934  0.00  0.00    +0.149 HD
ENDBRANCH  14   4
ENDBRANCH   8  14
BRANCH  10  15
ATOM     15  C   UNL     1      -7.248 -10.441  19.077  0.00  0.00    +0.105 C 
BRANCH  15  19
ATOM      2  O   UNL     1      -5.446 -10.490  17.432  0.00  0.00    -0.420 OA
ATOM      5  N   UNL     1      -5.020 -11.658  19.292  0.00  0.00    -0.112 NA
ATOM      6  N   UNL     1      -3.925 -11.772  18.457  0.00  0.00    -0.107 NA
ATOM     19  C   UNL     1      -5.882 -10.902  18.654  0.00  0.00    +0.218 A 
ATOM     21  C   UNL     1      -4.217 -11.075  17.384  0.00  0.00    +0.251 A 
BRANCH  21  23
ATOM      1  F   UNL     1      -5.387 -11.163  14.838  0.00  0.00    -0.205 F 
ATOM     23  C   UNL     1      -3.457 -10.839  16.190  0.00  0.00    +0.074 A 
ATOM     24  C   UNL     1      -4.078 -10.892  14.942  0.00  0.00    +0.136 A 
ATOM     25  C   UNL     1      -2.095 -10.556  16.281  0.00  0.00    +0.016 A 
ATOM     26  C   UNL     1      -3.334 -10.663  13.784  0.00  0.00    +0.039 A 
ATOM     27  C   UNL     1      -1.352 -10.326  15.123  0.00  0.00    +0.001 A 
ATOM     28  C   UNL     1      -1.972 -10.380  13.874  0.00  0.00    +0.003 A 
ENDBRANCH  21  23
ENDBRANCH  15  19
ENDBRANCH  10  15
TORSDOF 6
ENDMDL
MODEL 8
REMARK VINA RESULT:      -6.4     26.784     30.139
REMARK  Name = 45784166
REMARK  10 active torsions:
REMARK  status: ('A' for Active; 'I' for Inactive)
REMARK    1  A    between atoms: N_4  and  C_14
REMARK    2  A    between atoms: C_7  and  C_11
REMARK    3  A    between atoms: C_8  and  C_14
REMARK    4  A    between atoms: C_10  and  C_15
REMARK    5  A    between atoms: C_11  and  C_16
REMARK    6  A    between atoms: C_11  and  C_17
REMARK    7  A    between atoms: C_12  and  C_18
REMARK    8  A    between atoms: C_15  and  C_19
REMARK    9  A    between atoms: C_20  and  C_22
REMARK   10  A    between atoms: C_21  and  C_23
REMARK                            x       y       z     vdW  Elec       q    Type
REMARK                         _______ _______ _______ _____ _____    ______ ____
ROOT
ATOM      7  C   UNL     1     -11.663   9.692  31.932  0.00  0.00    +0.000 C 
ATOM      8  C   UNL     1     -11.084  10.200  33.277  0.00  0.00    +0.032 C 
ATOM      9  C   UNL     1     -13.128   9.265  32.106  0.00  0.00    +0.012 C 
ATOM     10  C   UNL     1     -13.289   8.152  33.158  0.00  0.00    +0.024 C 
ATOM     12  C   UNL     1     -12.520   8.459  34.426  0.00  0.00    -0.073 C 
ATOM     13  C   UNL     1     -11.547   9.386  34.464  0.00  0.00    -0.022 C 
ATOM     18  C   UNL     1     -12.925   7.707  35.664  0.00  0.00    +0.039 C 
ENDROOT
BRANCH   7  11
ATOM     11  C   UNL     1     -11.559  10.753  30.832  0.00  0.00    -0.013 C 
ATOM     16  C   UNL     1     -12.122  10.217  29.520  0.00  0.00    +0.007 C 
ATOM     17  C   UNL     1     -12.286  12.027  31.251  0.00  0.00    +0.007 C 
ENDBRANCH   7  11
BRANCH   8  14
ATOM     14  C   UNL     1      -9.553  10.229  33.244  0.00  0.00    +0.112 C 
BRANCH  14   4
ATOM      3  O   UNL     1      -7.294  11.215  34.780  0.00  0.00    -0.276 OA
ATOM      4  N   UNL     1      -9.008   9.673  34.444  0.00  0.00    -0.315 N 
ATOM     20  C   UNL     1      -7.916  10.213  35.120  0.00  0.00    +0.210 C 
ATOM     22  C   UNL     1      -7.566   9.446  36.367  0.00  0.00    +0.109 C 
ATOM     29  H   UNL     1      -9.483   8.876  34.857  0.00  0.00    +0.149 HD
ENDBRANCH  14   4
ENDBRANCH   8  14
BRANCH  10  15
ATOM     15  C   UNL     1     -12.884   6.789  32.586  0.00  0.00    +0.105 C 
BRANCH  15  19
ATOM      2  O   UNL     1     -13.870   4.657  31.922  0.00  0.00    -0.420 OA
ATOM      5  N   UNL     1     -15.191   5.914  33.218  0.00  0.00    -0.112 NA
ATOM      6  N   UNL     1     -15.870   4.747  32.921  0.00  0.00    -0.107 NA
ATOM     19  C   UNL     1     -14.030   5.818  32.616  0.00  0.00    +0.218 A 
ATOM     21  C   UNL     1     -15.061   4.044  32.162  0.00  0.00    +0.251 A 
BRANCH  21  23
ATOM      1  F   UNL     1     -14.036   1.711  33.329  0.00  0.00    -0.205 F 
ATOM     23  C   UNL     1     -15.235   2.754  31.559  0.00  0.00    +0.074 A 
ATOM     24  C   UNL     1     -14.708   1.617  32.173  0.00  0.00    +0.136 A 
ATOM     25  C   UNL     1     -15.931   2.639  30.357  0.00  0.00    +0.016 A 
ATOM     26  C   UNL     1     -14.878   0.364  31.582  0.00  0.00    +0.039 A 
ATOM     27  C   UNL     1     -16.102   1.387  29.767  0.00  0.00    +0.001 A 
ATOM     28  C   UNL     1     -15.575   0.249  30.379  0.00  0.00    +0.003 A 
ENDBRANCH  21  23
ENDBRANCH  15  19
ENDBRANCH  10  15
TORSDOF 6
ENDMDL
MODEL 9
REMARK VINA RESULT:      -6.2     26.154     27.720
REMARK  Name = 45784166
REMARK  10 active torsions:
REMARK  status: ('A' for Active; 'I' for Inactive)
REMARK    1  A    between atoms: N_4  and  C_14
REMARK    2  A    between atoms: C_7  and  C_11
REMARK    3  A    between atoms: C_8  and  C_14
REMARK    4  A    between atoms: C_10  and  C_15
REMARK    5  A    between atoms: C_11  and  C_16
REMARK    6  A    between atoms: C_11  and  C_17
REMARK    7  A    between atoms: C_12  and  C_18
REMARK    8  A    between atoms: C_15  and  C_19
REMARK    9  A    between atoms: C_20  and  C_22
REMARK   10  A    between atoms: C_21  and  C_23
REMARK                            x       y       z     vdW  Elec       q    Type
REMARK                         _______ _______ _______ _____ _____    ______ ____
ROOT
ATOM      7  C   UNL     1     -12.854   8.437  20.482  0.00  0.00    +0.000 C 
ATOM      8  C   UNL     1     -13.628   8.406  21.824  0.00  0.00    +0.032 C 
ATOM      9  C   UNL     1     -11.605   9.322  20.603  0.00  0.00    +0.012 C 
ATOM     10  C   UNL     1     -11.954  10.769  20.997  0.00  0.00    +0.024 C 
ATOM     12  C   UNL     1     -12.931  10.818  22.154  0.00  0.00    -0.073 C 
ATOM     13  C   UNL     1     -13.661   9.749  22.517  0.00  0.00    -0.022 C 
ATOM     18  C   UNL     1     -13.018  12.113  22.913  0.00  0.00    +0.039 C 
ENDROOT
BRANCH   7  11
ATOM     11  C   UNL     1     -12.451   7.030  20.027  0.00  0.00    -0.013 C 
ATOM     16  C   UNL     1     -11.383   7.108  18.941  0.00  0.00    +0.007 C 
ATOM     17  C   UNL     1     -11.957   6.209  21.213  0.00  0.00    +0.007 C 
ENDBRANCH   7  11
BRANCH   8  14
ATOM     14  C   UNL     1     -15.060   7.898  21.627  0.00  0.00    +0.112 C 
BRANCH  14   4
ATOM      3  O   UNL     1     -15.285   5.034  21.212  0.00  0.00    -0.276 OA
ATOM      4  N   UNL     1     -15.384   6.902  22.600  0.00  0.00    -0.315 N 
ATOM     20  C   UNL     1     -15.472   5.542  22.314  0.00  0.00    +0.210 C 
ATOM     22  C   UNL     1     -15.804   4.713  23.526  0.00  0.00    +0.109 C 
ATOM     29  H   UNL     1     -15.497   7.199  23.565  0.00  0.00    +0.149 HD
ENDBRANCH  14   4
ENDBRANCH   8  14
BRANCH  10  15
ATOM     15  C   UNL     1     -12.486  11.557  19.795  0.00  0.00    +0.105 C 
BRANCH  15  19
ATOM      2  O   UNL     1     -11.991  10.493  17.655  0.00  0.00    -0.420 OA
ATOM      5  N   UNL     1     -10.469  11.999  18.303  0.00  0.00    -0.112 NA
ATOM      6  N   UNL     1     -10.066  11.481  17.086  0.00  0.00    -0.107 NA
ATOM     19  C   UNL     1     -11.596  11.395  18.595  0.00  0.00    +0.218 A 
ATOM     21  C   UNL     1     -10.983  10.606  16.746  0.00  0.00    +0.251 A 
BRANCH  21  23
ATOM      1  F   UNL     1     -12.426  11.386  14.474  0.00  0.00    -0.205 F 
ATOM     23  C   UNL     1     -11.087   9.767  15.587  0.00  0.00    +0.074 A 
ATOM     24  C   UNL     1     -11.815  10.193  14.477  0.00  0.00    +0.136 A 
ATOM     25  C   UNL     1     -10.458   8.522  15.574  0.00  0.00    +0.016 A 
ATOM     26  C   UNL     1     -11.915   9.373  13.352  0.00  0.00    +0.039 A 
ATOM     27  C   UNL     1     -10.557   7.703  14.450  0.00  0.00    +0.001 A 
ATOM     28  C   UNL     1     -11.286   8.128  13.339  0.00  0.00    +0.003 A 
ENDBRANCH  21  23
ENDBRANCH  15  19
ENDBRANCH  10  15
TORSDOF 6
ENDMDL
MODEL 10
REMARK VINA RESULT:      -6.1     27.695     30.965
REMARK  Name = 45784166
REMARK  10 active torsions:
REMARK  status: ('A' for Active; 'I' for Inactive)
REMARK    1  A    between atoms: N_4  and  C_14
REMARK    2  A    between atoms: C_7  and  C_11
REMARK    3  A    between atoms: C_8  and  C_14
REMARK    4  A    between atoms: C_10  and  C_15
REMARK    5  A    between atoms: C_11  and  C_16
REMARK    6  A    between atoms: C_11  and  C_17
REMARK    7  A    between atoms: C_12  and  C_18
REMARK    8  A    between atoms: C_15  and  C_19
REMARK    9  A    between atoms: C_20  and  C_22
REMARK   10  A    between atoms: C_21  and  C_23
REMARK                            x       y       z     vdW  Elec       q    Type
REMARK                         _______ _______ _______ _____ _____    ______ ____
ROOT
ATOM      7  C   UNL     1      -5.633 -10.722  17.752  0.00  0.00    +0.000 C 
ATOM      8  C   UNL     1      -4.984 -11.095  16.394  0.00  0.00    +0.032 C 
ATOM      9  C   UNL     1      -7.130 -11.065  17.742  0.00  0.00    +0.012 C 
ATOM     10  C   UNL     1      -7.888 -10.330  16.622  0.00  0.00    +0.024 C 
ATOM     12  C   UNL     1      -7.164 -10.427  15.294  0.00  0.00    -0.073 C 
ATOM     13  C   UNL     1      -5.871 -10.783  15.211  0.00  0.00    -0.022 C 
ATOM     18  C   UNL     1      -7.975 -10.149  14.058  0.00  0.00    +0.039 C 
ENDROOT
BRANCH   7  11
ATOM     11  C   UNL     1      -4.945 -11.431  18.923  0.00  0.00    -0.013 C 
ATOM     16  C   UNL     1      -5.810 -11.348  20.177  0.00  0.00    +0.007 C 
ATOM     17  C   UNL     1      -4.649 -12.884  18.566  0.00  0.00    +0.007 C 
ENDBRANCH   7  11
BRANCH   8  14
ATOM     14  C   UNL     1      -3.631 -10.397  16.217  0.00  0.00    +0.112 C 
BRANCH  14   4
ATOM      3  O   UNL     1      -1.263 -11.504  14.954  0.00  0.00    -0.276 OA
ATOM      4  N   UNL     1      -3.272 -10.329  14.835  0.00  0.00    -0.315 N 
ATOM     20  C   UNL     1      -2.110 -10.890  14.310  0.00  0.00    +0.210 C 
ATOM     22  C   UNL     1      -1.990 -10.695  12.822  0.00  0.00    +0.109 C 
ATOM     29  H   UNL     1      -3.932  -9.901  14.192  0.00  0.00    +0.149 HD
ENDBRANCH  14   4
ENDBRANCH   8  14
BRANCH  10  15
ATOM     15  C   UNL     1      -8.150  -8.868  16.998  0.00  0.00    +0.105 C 
BRANCH  15  19
ATOM      2  O   UNL     1     -10.096  -7.762  16.025  0.00  0.00    -0.420 OA
ATOM      5  N   UNL     1     -10.543  -8.950  17.867  0.00  0.00    -0.112 NA
ATOM      6  N   UNL     1     -11.725  -8.384  17.427  0.00  0.00    -0.107 NA
ATOM     19  C   UNL     1      -9.621  -8.561  17.020  0.00  0.00    +0.218 A 
ATOM     21  C   UNL     1     -11.416  -7.700  16.350  0.00  0.00    +0.251 A 
BRANCH  21  23
ATOM      1  F   UNL     1     -14.127  -8.283  15.939  0.00  0.00    -0.205 F 
ATOM     23  C   UNL     1     -12.239  -6.911  15.479  0.00  0.00    +0.074 A 
ATOM     24  C   UNL     1     -13.584  -7.236  15.302  0.00  0.00    +0.136 A 
ATOM     25  C   UNL     1     -11.691  -5.818  14.809  0.00  0.00    +0.016 A 
ATOM     26  C   UNL     1     -14.381  -6.467  14.452  0.00  0.00    +0.039 A 
ATOM     27  C   UNL     1     -12.488  -5.049  13.960  0.00  0.00    +0.001 A 
ATOM     28  C   UNL     1     -13.833  -5.374  13.782  0.00  0.00    +0.003 A 
ENDBRANCH  21  23
ENDBRANCH  15  19
ENDBRANCH  10  15
TORSDOF 6
ENDMDL
