MODEL 1
REMARK VINA RESULT:      -6.1      0.000      0.000
REMARK  Name = 56775612
REMARK  8 active torsions:
REMARK  status: ('A' for Active; 'I' for Inactive)
REMARK    1  A    between atoms: O_2  and  C_17
REMARK    2  A    between atoms: O_4  and  C_21
REMARK    3  A    between atoms: N_5  and  C_7
REMARK    4  A    between atoms: N_5  and  C_8
REMARK    5  A    between atoms: C_7  and  C_16
REMARK    6  A    between atoms: C_11  and  C_17
REMARK    7  A    between atoms: C_16  and  C_18
REMARK    8  A    between atoms: C_20  and  C_21
REMARK                            x       y       z     vdW  Elec       q    Type
REMARK                         _______ _______ _______ _____ _____    ______ ____
ROOT
ATOM      1  O   UNL     1       8.268   7.744   4.653  0.00  0.00    -0.376 OA
ATOM      7  C   UNL     1       9.884   6.360   4.480  0.00  0.00    +0.072 C 
ATOM     14  C   UNL     1       9.661   7.856   4.282  0.00  0.00    +0.184 C 
ATOM     15  C   UNL     1       8.434   6.338   4.951  0.00  0.00    +0.184 C 
ENDROOT
BRANCH   7   5
ATOM      5  N   UNL     1       9.964   5.717   3.166  0.00  0.00    -0.304 NA
ATOM     22  H   UNL     1       9.714   6.313   2.377  0.00  0.00    +0.123 HD
BRANCH   5   8
ATOM      8  C   UNL     1      11.307   5.169   2.979  0.00  0.00    +0.054 C 
ATOM      9  C   UNL     1      12.168   6.165   2.195  0.00  0.00    +0.019 C 
ATOM     10  C   UNL     1      11.241   3.816   2.263  0.00  0.00    +0.019 C 
ATOM     11  C   UNL     1      13.509   4.250   1.217  0.00  0.00    +0.015 C 
ATOM     12  C   UNL     1      13.566   5.607   1.931  0.00  0.00    +0.007 C 
ATOM     13  C   UNL     1      12.639   3.257   1.998  0.00  0.00    +0.007 C 
BRANCH  11  17
ATOM     17  C   UNL     1      14.915   3.690   1.011  0.00  0.00    +0.159 C 
BRANCH  17   2
ATOM      2  O   UNL     1      15.382   3.187   2.250  0.00  0.00    -0.395 OA
ATOM     23  H   UNL     1      16.005   2.467   2.050  0.00  0.00    +0.209 HD
ENDBRANCH  17   2
ENDBRANCH  11  17
ENDBRANCH   5   8
ENDBRANCH   7   5
BRANCH   7  16
ATOM     16  C   UNL     1      10.959   5.904   5.419  0.00  0.00    +0.085 C 
BRANCH  16  18
ATOM      3  O   UNL     1       9.850   6.506   8.805  0.00  0.00    -0.357 OA
ATOM      6  N   UNL     1      10.367   6.928   7.586  0.00  0.00    -0.083 NA
ATOM     18  C   UNL     1      10.435   5.823   6.838  0.00  0.00    +0.086 A 
ATOM     19  C   UNL     1       9.979   4.685   7.526  0.00  0.00    +0.073 A 
ATOM     20  C   UNL     1       9.623   5.168   8.757  0.00  0.00    +0.163 A 
BRANCH  20  21
ATOM     21  C   UNL     1       9.074   4.554   9.971  0.00  0.00    +0.232 C 
BRANCH  21   4
ATOM      4  O   UNL     1      10.068   4.510  10.999  0.00  0.00    -0.387 OA
ATOM     24  H   UNL     1       9.608   4.654  11.843  0.00  0.00    +0.210 HD
ENDBRANCH  21   4
ENDBRANCH  20  21
ENDBRANCH  16  18
ENDBRANCH   7  16
TORSDOF 8
ENDMDL
MODEL 2
REMARK VINA RESULT:      -6.1     14.847     16.980
REMARK  Name = 56775612
REMARK  8 active torsions:
REMARK  status: ('A' for Active; 'I' for Inactive)
REMARK    1  A    between atoms: O_2  and  C_17
REMARK    2  A    between atoms: O_4  and  C_21
REMARK    3  A    between atoms: N_5  and  C_7
REMARK    4  A    between atoms: N_5  and  C_8
REMARK    5  A    between atoms: C_7  and  C_16
REMARK    6  A    between atoms: C_11  and  C_17
REMARK    7  A    between atoms: C_16  and  C_18
REMARK    8  A    between atoms: C_20  and  C_21
REMARK                            x       y       z     vdW  Elec       q    Type
REMARK                         _______ _______ _______ _____ _____    ______ ____
ROOT
ATOM      1  O   UNL     1      11.384   7.774  18.470  0.00  0.00    -0.376 OA
ATOM      7  C   UNL     1      12.711   8.100  20.110  0.00  0.00    +0.072 C 
ATOM     14  C   UNL     1      11.600   8.863  19.396  0.00  0.00    +0.184 C 
ATOM     15  C   UNL     1      12.360   6.960  19.161  0.00  0.00    +0.184 C 
ENDROOT
BRANCH   7   5
ATOM      5  N   UNL     1      14.002   8.665  19.713  0.00  0.00    -0.304 NA
ATOM     22  H   UNL     1      14.178   9.614  20.044  0.00  0.00    +0.123 HD
BRANCH   5   8
ATOM      8  C   UNL     1      15.074   7.772  20.150  0.00  0.00    +0.054 C 
ATOM      9  C   UNL     1      16.178   8.584  20.835  0.00  0.00    +0.019 C 
ATOM     10  C   UNL     1      15.631   6.979  18.963  0.00  0.00    +0.019 C 
ATOM     11  C   UNL     1      17.906   6.892  20.076  0.00  0.00    +0.015 C 
ATOM     12  C   UNL     1      17.345   7.692  21.259  0.00  0.00    +0.007 C 
ATOM     13  C   UNL     1      16.797   6.087  19.386  0.00  0.00    +0.007 C 
BRANCH  11  17
ATOM     17  C   UNL     1      19.035   5.971  20.536  0.00  0.00    +0.159 C 
BRANCH  17   2
ATOM      2  O   UNL     1      19.113   4.877  19.641  0.00  0.00    -0.395 OA
ATOM     23  H   UNL     1      18.215   4.722  19.299  0.00  0.00    +0.209 HD
ENDBRANCH  17   2
ENDBRANCH  11  17
ENDBRANCH   5   8
ENDBRANCH   7   5
BRANCH   7  16
ATOM     16  C   UNL     1      12.603   7.873  21.587  0.00  0.00    +0.085 C 
BRANCH  16  18
ATOM      3  O   UNL     1      12.714  11.158  23.089  0.00  0.00    -0.357 OA
ATOM      6  N   UNL     1      13.281  10.116  22.365  0.00  0.00    -0.083 NA
ATOM     18  C   UNL     1      12.334   9.175  22.313  0.00  0.00    +0.086 A 
ATOM     19  C   UNL     1      11.160   9.563  22.981  0.00  0.00    +0.073 A 
ATOM     20  C   UNL     1      11.450  10.817  23.451  0.00  0.00    +0.163 A 
BRANCH  20  21
ATOM     21  C   UNL     1      10.701  11.811  24.227  0.00  0.00    +0.232 C 
BRANCH  21   4
ATOM      4  O   UNL     1      10.825  11.543  25.627  0.00  0.00    -0.387 OA
ATOM     24  H   UNL     1      11.775  11.476  25.819  0.00  0.00    +0.210 HD
ENDBRANCH  21   4
ENDBRANCH  20  21
ENDBRANCH  16  18
ENDBRANCH   7  16
TORSDOF 8
ENDMDL
MODEL 3
REMARK VINA RESULT:      -5.9     13.992     17.586
REMARK  Name = 56775612
REMARK  8 active torsions:
REMARK  status: ('A' for Active; 'I' for Inactive)
REMARK    1  A    between atoms: O_2  and  C_17
REMARK    2  A    between atoms: O_4  and  C_21
REMARK    3  A    between atoms: N_5  and  C_7
REMARK    4  A    between atoms: N_5  and  C_8
REMARK    5  A    between atoms: C_7  and  C_16
REMARK    6  A    between atoms: C_11  and  C_17
REMARK    7  A    between atoms: C_16  and  C_18
REMARK    8  A    between atoms: C_20  and  C_21
REMARK                            x       y       z     vdW  Elec       q    Type
REMARK                         _______ _______ _______ _____ _____    ______ ____
ROOT
ATOM      1  O   UNL     1      13.375   7.333  17.109  0.00  0.00    -0.376 OA
ATOM      7  C   UNL     1      13.469   8.012  19.131  0.00  0.00    +0.072 C 
ATOM     14  C   UNL     1      12.455   7.321  18.224  0.00  0.00    +0.184 C 
ATOM     15  C   UNL     1      14.414   7.901  17.939  0.00  0.00    +0.184 C 
ENDROOT
BRANCH   7   5
ATOM      5  N   UNL     1      13.077   9.414  19.294  0.00  0.00    -0.304 NA
ATOM     22  H   UNL     1      12.329   9.728  18.677  0.00  0.00    +0.123 HD
BRANCH   5   8
ATOM      8  C   UNL     1      12.713   9.653  20.690  0.00  0.00    +0.054 C 
ATOM      9  C   UNL     1      11.202   9.472  20.870  0.00  0.00    +0.019 C 
ATOM     10  C   UNL     1      13.156  11.052  21.131  0.00  0.00    +0.019 C 
ATOM     11  C   UNL     1      11.214  11.164  22.756  0.00  0.00    +0.015 C 
ATOM     12  C   UNL     1      10.772   9.765  22.307  0.00  0.00    +0.007 C 
ATOM     13  C   UNL     1      12.726  11.346  22.567  0.00  0.00    +0.007 C 
BRANCH  11  17
ATOM     17  C   UNL     1      10.819  11.413  24.211  0.00  0.00    +0.159 C 
BRANCH  17   2
ATOM      2  O   UNL     1      11.515  10.490  25.028  0.00  0.00    -0.395 OA
ATOM     23  H   UNL     1      12.246  10.975  25.449  0.00  0.00    +0.209 HD
ENDBRANCH  17   2
ENDBRANCH  11  17
ENDBRANCH   5   8
ENDBRANCH   7   5
BRANCH   7  16
ATOM     16  C   UNL     1      13.851   7.359  20.423  0.00  0.00    +0.085 C 
BRANCH  16  18
ATOM      3  O   UNL     1      17.347   7.886  21.171  0.00  0.00    -0.357 OA
ATOM      6  N   UNL     1      16.008   8.254  21.226  0.00  0.00    -0.083 NA
ATOM     18  C   UNL     1      15.358   7.290  20.566  0.00  0.00    +0.086 A 
ATOM     19  C   UNL     1      16.227   6.299  20.078  0.00  0.00    +0.073 A 
ATOM     20  C   UNL     1      17.465   6.720  20.485  0.00  0.00    +0.163 A 
BRANCH  20  21
ATOM     21  C   UNL     1      18.822   6.186  20.332  0.00  0.00    +0.232 C 
BRANCH  21   4
ATOM      4  O   UNL     1      18.832   5.121  19.376  0.00  0.00    -0.387 OA
ATOM     24  H   UNL     1      19.113   4.320  19.848  0.00  0.00    +0.210 HD
ENDBRANCH  21   4
ENDBRANCH  20  21
ENDBRANCH  16  18
ENDBRANCH   7  16
TORSDOF 8
ENDMDL
MODEL 4
REMARK VINA RESULT:      -5.8     22.966     25.681
REMARK  Name = 56775612
REMARK  8 active torsions:
REMARK  status: ('A' for Active; 'I' for Inactive)
REMARK    1  A    between atoms: O_2  and  C_17
REMARK    2  A    between atoms: O_4  and  C_21
REMARK    3  A    between atoms: N_5  and  C_7
REMARK    4  A    between atoms: N_5  and  C_8
REMARK    5  A    between atoms: C_7  and  C_16
REMARK    6  A    between atoms: C_11  and  C_17
REMARK    7  A    between atoms: C_16  and  C_18
REMARK    8  A    between atoms: C_20  and  C_21
REMARK                            x       y       z     vdW  Elec       q    Type
REMARK                         _______ _______ _______ _____ _____    ______ ____
ROOT
ATOM      1  O   UNL     1      -3.966  -9.801  11.537  0.00  0.00    -0.376 OA
ATOM      7  C   UNL     1      -4.080 -11.010  13.292  0.00  0.00    +0.072 C 
ATOM     14  C   UNL     1      -5.000 -10.079  12.509  0.00  0.00    +0.184 C 
ATOM     15  C   UNL     1      -3.075 -10.742  12.178  0.00  0.00    +0.184 C 
ENDROOT
BRANCH   7   5
ATOM      5  N   UNL     1      -3.634 -10.321  14.506  0.00  0.00    -0.304 NA
ATOM     22  H   UNL     1      -3.708  -9.304  14.477  0.00  0.00    +0.123 HD
BRANCH   5   8
ATOM      8  C   UNL     1      -4.367 -10.848  15.656  0.00  0.00    +0.054 C 
ATOM      9  C   UNL     1      -5.439  -9.843  16.091  0.00  0.00    +0.019 C 
ATOM     10  C   UNL     1      -3.408 -11.163  16.808  0.00  0.00    +0.019 C 
ATOM     11  C   UNL     1      -5.240 -10.654  18.484  0.00  0.00    +0.015 C 
ATOM     12  C   UNL     1      -6.194 -10.334  17.327  0.00  0.00    +0.007 C 
ATOM     13  C   UNL     1      -4.162 -11.653  18.044  0.00  0.00    +0.007 C 
BRANCH  11  17
ATOM     17  C   UNL     1      -6.013 -11.191  19.688  0.00  0.00    +0.159 C 
BRANCH  17   2
ATOM      2  O   UNL     1      -6.944 -10.206  20.097  0.00  0.00    -0.395 OA
ATOM     23  H   UNL     1      -7.512 -10.613  20.773  0.00  0.00    +0.209 HD
ENDBRANCH  17   2
ENDBRANCH  11  17
ENDBRANCH   5   8
ENDBRANCH   7   5
BRANCH   7  16
ATOM     16  C   UNL     1      -4.520 -12.418  13.550  0.00  0.00    +0.085 C 
BRANCH  16  18
ATOM      3  O   UNL     1      -2.341 -14.920  12.118  0.00  0.00    -0.357 OA
ATOM      6  N   UNL     1      -3.501 -14.155  12.121  0.00  0.00    -0.083 NA
ATOM     18  C   UNL     1      -3.412 -13.397  13.218  0.00  0.00    +0.086 A 
ATOM     19  C   UNL     1      -2.230 -13.639  13.939  0.00  0.00    +0.073 A 
ATOM     20  C   UNL     1      -1.592 -14.604  13.206  0.00  0.00    +0.163 A 
BRANCH  20  21
ATOM     21  C   UNL     1      -0.324 -15.325  13.359  0.00  0.00    +0.232 C 
BRANCH  21   4
ATOM      4  O   UNL     1       0.779 -14.450  13.100  0.00  0.00    -0.387 OA
ATOM     24  H   UNL     1       1.320 -14.874  12.413  0.00  0.00    +0.210 HD
ENDBRANCH  21   4
ENDBRANCH  20  21
ENDBRANCH  16  18
ENDBRANCH   7  16
TORSDOF 8
ENDMDL
MODEL 5
REMARK VINA RESULT:      -5.8      2.255      2.725
REMARK  Name = 56775612
REMARK  8 active torsions:
REMARK  status: ('A' for Active; 'I' for Inactive)
REMARK    1  A    between atoms: O_2  and  C_17
REMARK    2  A    between atoms: O_4  and  C_21
REMARK    3  A    between atoms: N_5  and  C_7
REMARK    4  A    between atoms: N_5  and  C_8
REMARK    5  A    between atoms: C_7  and  C_16
REMARK    6  A    between atoms: C_11  and  C_17
REMARK    7  A    between atoms: C_16  and  C_18
REMARK    8  A    between atoms: C_20  and  C_21
REMARK                            x       y       z     vdW  Elec       q    Type
REMARK                         _______ _______ _______ _____ _____    ______ ____
ROOT
ATOM      1  O   UNL     1      11.649   9.232   5.498  0.00  0.00    -0.376 OA
ATOM      7  C   UNL     1      10.786   7.282   5.413  0.00  0.00    +0.072 C 
ATOM     14  C   UNL     1      11.522   8.141   6.437  0.00  0.00    +0.184 C 
ATOM     15  C   UNL     1      10.875   8.509   4.513  0.00  0.00    +0.184 C 
ENDROOT
BRANCH   7   5
ATOM      5  N   UNL     1      11.705   6.258   4.909  0.00  0.00    -0.304 NA
ATOM     22  H   UNL     1      11.751   5.406   5.468  0.00  0.00    +0.123 HD
BRANCH   5   8
ATOM      8  C   UNL     1      11.356   5.937   3.526  0.00  0.00    +0.054 C 
ATOM      9  C   UNL     1      10.891   4.479   3.435  0.00  0.00    +0.019 C 
ATOM     10  C   UNL     1      12.546   6.193   2.596  0.00  0.00    +0.019 C 
ATOM     11  C   UNL     1      11.753   4.343   1.056  0.00  0.00    +0.015 C 
ATOM     12  C   UNL     1      10.566   4.086   1.994  0.00  0.00    +0.007 C 
ATOM     13  C   UNL     1      12.223   5.800   1.155  0.00  0.00    +0.007 C 
BRANCH  11  17
ATOM     17  C   UNL     1      11.387   3.992  -0.385  0.00  0.00    +0.159 C 
BRANCH  17   2
ATOM      2  O   UNL     1      10.073   4.453  -0.638  0.00  0.00    -0.395 OA
ATOM     23  H   UNL     1       9.659   3.817  -1.246  0.00  0.00    +0.209 HD
ENDBRANCH  17   2
ENDBRANCH  11  17
ENDBRANCH   5   8
ENDBRANCH   7   5
BRANCH   7  16
ATOM     16  C   UNL     1       9.436   6.734   5.761  0.00  0.00    +0.085 C 
BRANCH  16  18
ATOM      3  O   UNL     1       9.887   4.013   8.096  0.00  0.00    -0.357 OA
ATOM      6  N   UNL     1       9.922   4.555   6.817  0.00  0.00    -0.083 NA
ATOM     18  C   UNL     1       9.520   5.821   6.967  0.00  0.00    +0.086 A 
ATOM     19  C   UNL     1       9.221   6.130   8.305  0.00  0.00    +0.073 A 
ATOM     20  C   UNL     1       9.468   4.960   8.974  0.00  0.00    +0.163 A 
BRANCH  20  21
ATOM     21  C   UNL     1       9.372   4.553  10.380  0.00  0.00    +0.232 C 
BRANCH  21   4
ATOM      4  O   UNL     1       8.071   4.848  10.896  0.00  0.00    -0.387 OA
ATOM     24  H   UNL     1       7.703   5.557  10.342  0.00  0.00    +0.210 HD
ENDBRANCH  21   4
ENDBRANCH  20  21
ENDBRANCH  16  18
ENDBRANCH   7  16
TORSDOF 8
ENDMDL
MODEL 6
REMARK VINA RESULT:      -5.6     24.715     27.539
REMARK  Name = 56775612
REMARK  8 active torsions:
REMARK  status: ('A' for Active; 'I' for Inactive)
REMARK    1  A    between atoms: O_2  and  C_17
REMARK    2  A    between atoms: O_4  and  C_21
REMARK    3  A    between atoms: N_5  and  C_7
REMARK    4  A    between atoms: N_5  and  C_8
REMARK    5  A    between atoms: C_7  and  C_16
REMARK    6  A    between atoms: C_11  and  C_17
REMARK    7  A    between atoms: C_16  and  C_18
REMARK    8  A    between atoms: C_20  and  C_21
REMARK                            x       y       z     vdW  Elec       q    Type
REMARK                         _______ _______ _______ _____ _____    ______ ____
ROOT
ATOM      1  O   UNL     1      -9.495 -11.636  20.364  0.00  0.00    -0.376 OA
ATOM      7  C   UNL     1      -9.048 -10.760  18.470  0.00  0.00    +0.072 C 
ATOM     14  C   UNL     1      -8.698 -12.037  19.226  0.00  0.00    +0.184 C 
ATOM     15  C   UNL     1      -9.942 -10.451  19.666  0.00  0.00    +0.184 C 
ENDROOT
BRANCH   7   5
ATOM      5  N   UNL     1      -7.891  -9.862  18.500  0.00  0.00    -0.304 NA
ATOM     22  H   UNL     1      -7.581  -9.587  19.432  0.00  0.00    +0.123 HD
BRANCH   5   8
ATOM      8  C   UNL     1      -6.787 -10.473  17.762  0.00  0.00    +0.054 C 
ATOM      9  C   UNL     1      -5.601 -10.708  18.703  0.00  0.00    +0.019 C 
ATOM     10  C   UNL     1      -6.381  -9.594  16.574  0.00  0.00    +0.019 C 
ATOM     11  C   UNL     1      -3.994 -10.425  16.765  0.00  0.00    +0.015 C 
ATOM     12  C   UNL     1      -4.405 -11.298  17.957  0.00  0.00    +0.007 C 
ATOM     13  C   UNL     1      -5.185 -10.184  15.828  0.00  0.00    +0.007 C 
BRANCH  11  17
ATOM     17  C   UNL     1      -2.831 -11.061  16.005  0.00  0.00    +0.159 C 
BRANCH  17   2
ATOM      2  O   UNL     1      -1.691 -11.055  16.845  0.00  0.00    -0.395 OA
ATOM     23  H   UNL     1      -1.472 -11.983  17.038  0.00  0.00    +0.209 HD
ENDBRANCH  17   2
ENDBRANCH  11  17
ENDBRANCH   5   8
ENDBRANCH   7   5
BRANCH   7  16
ATOM     16  C   UNL     1      -9.667 -10.867  17.110  0.00  0.00    +0.085 C 
BRANCH  16  18
ATOM      3  O   UNL     1     -10.073  -7.848  15.165  0.00  0.00    -0.357 OA
ATOM      6  N   UNL     1      -9.591  -9.139  15.348  0.00  0.00    -0.083 NA
ATOM     18  C   UNL     1     -10.011  -9.495  16.565  0.00  0.00    +0.086 A 
ATOM     19  C   UNL     1     -10.754  -8.480  17.192  0.00  0.00    +0.073 A 
ATOM     20  C   UNL     1     -10.764  -7.467  16.270  0.00  0.00    +0.163 A 
BRANCH  20  21
ATOM     21  C   UNL     1     -11.346  -6.120  16.246  0.00  0.00    +0.232 C 
BRANCH  21   4
ATOM      4  O   UNL     1     -11.031  -5.465  15.014  0.00  0.00    -0.387 OA
ATOM     24  H   UNL     1     -10.281  -5.944  14.623  0.00  0.00    +0.210 HD
ENDBRANCH  21   4
ENDBRANCH  20  21
ENDBRANCH  16  18
ENDBRANCH   7  16
TORSDOF 8
ENDMDL
MODEL 7
REMARK VINA RESULT:      -5.6     22.711     25.382
REMARK  Name = 56775612
REMARK  8 active torsions:
REMARK  status: ('A' for Active; 'I' for Inactive)
REMARK    1  A    between atoms: O_2  and  C_17
REMARK    2  A    between atoms: O_4  and  C_21
REMARK    3  A    between atoms: N_5  and  C_7
REMARK    4  A    between atoms: N_5  and  C_8
REMARK    5  A    between atoms: C_7  and  C_16
REMARK    6  A    between atoms: C_11  and  C_17
REMARK    7  A    between atoms: C_16  and  C_18
REMARK    8  A    between atoms: C_20  and  C_21
REMARK                            x       y       z     vdW  Elec       q    Type
REMARK                         _______ _______ _______ _____ _____    ______ ____
ROOT
ATOM      1  O   UNL     1      -1.510 -11.590  12.943  0.00  0.00    -0.376 OA
ATOM      7  C   UNL     1      -3.449 -11.176  13.731  0.00  0.00    +0.072 C 
ATOM     14  C   UNL     1      -2.529 -10.607  12.656  0.00  0.00    +0.184 C 
ATOM     15  C   UNL     1      -2.369 -12.237  13.910  0.00  0.00    +0.184 C 
ENDROOT
BRANCH   7   5
ATOM      5  N   UNL     1      -3.430 -10.281  14.891  0.00  0.00    -0.304 NA
ATOM     22  H   UNL     1      -3.682  -9.313  14.694  0.00  0.00    +0.123 HD
BRANCH   5   8
ATOM      8  C   UNL     1      -4.296 -10.826  15.935  0.00  0.00    +0.054 C 
ATOM      9  C   UNL     1      -5.344  -9.782  16.336  0.00  0.00    +0.019 C 
ATOM     10  C   UNL     1      -3.468 -11.268  17.146  0.00  0.00    +0.019 C 
ATOM     11  C   UNL     1      -5.416 -10.742  18.680  0.00  0.00    +0.015 C 
ATOM     12  C   UNL     1      -6.238 -10.294  17.465  0.00  0.00    +0.007 C 
ATOM     13  C   UNL     1      -4.362 -11.780  18.275  0.00  0.00    +0.007 C 
BRANCH  11  17
ATOM     17  C   UNL     1      -6.327 -11.297  19.773  0.00  0.00    +0.159 C 
BRANCH  17   2
ATOM      2  O   UNL     1      -7.355 -10.355  20.021  0.00  0.00    -0.395 OA
ATOM     23  H   UNL     1      -8.008 -10.788  20.597  0.00  0.00    +0.209 HD
ENDBRANCH  17   2
ENDBRANCH  11  17
ENDBRANCH   5   8
ENDBRANCH   7   5
BRANCH   7  16
ATOM     16  C   UNL     1      -4.833 -11.606  13.350  0.00  0.00    +0.085 C 
BRANCH  16  18
ATOM      3  O   UNL     1      -6.578  -8.724  12.044  0.00  0.00    -0.357 OA
ATOM      6  N   UNL     1      -6.054  -9.476  13.088  0.00  0.00    -0.083 NA
ATOM     18  C   UNL     1      -5.512 -10.548  12.504  0.00  0.00    +0.086 A 
ATOM     19  C   UNL     1      -5.663 -10.528  11.107  0.00  0.00    +0.073 A 
ATOM     20  C   UNL     1      -6.339  -9.361  10.869  0.00  0.00    +0.163 A 
BRANCH  20  21
ATOM     21  C   UNL     1      -6.830  -8.699   9.655  0.00  0.00    +0.232 C 
BRANCH  21   4
ATOM      4  O   UNL     1      -5.765  -7.997   9.007  0.00  0.00    -0.387 OA
ATOM     24  H   UNL     1      -5.166  -8.669   8.640  0.00  0.00    +0.210 HD
ENDBRANCH  21   4
ENDBRANCH  20  21
ENDBRANCH  16  18
ENDBRANCH   7  16
TORSDOF 8
ENDMDL
MODEL 8
REMARK VINA RESULT:      -5.4     22.061     25.219
REMARK  Name = 56775612
REMARK  8 active torsions:
REMARK  status: ('A' for Active; 'I' for Inactive)
REMARK    1  A    between atoms: O_2  and  C_17
REMARK    2  A    between atoms: O_4  and  C_21
REMARK    3  A    between atoms: N_5  and  C_7
REMARK    4  A    between atoms: N_5  and  C_8
REMARK    5  A    between atoms: C_7  and  C_16
REMARK    6  A    between atoms: C_11  and  C_17
REMARK    7  A    between atoms: C_16  and  C_18
REMARK    8  A    between atoms: C_20  and  C_21
REMARK                            x       y       z     vdW  Elec       q    Type
REMARK                         _______ _______ _______ _____ _____    ______ ____
ROOT
ATOM      1  O   UNL     1      -5.330 -12.760  18.727  0.00  0.00    -0.376 OA
ATOM      7  C   UNL     1      -4.610 -11.480  17.178  0.00  0.00    +0.072 C 
ATOM     14  C   UNL     1      -5.828 -12.364  17.429  0.00  0.00    +0.184 C 
ATOM     15  C   UNL     1      -4.199 -11.869  18.593  0.00  0.00    +0.184 C 
ENDROOT
BRANCH   7   5
ATOM      5  N   UNL     1      -3.726 -12.156  16.225  0.00  0.00    -0.304 NA
ATOM     22  H   UNL     1      -4.092 -13.025  15.838  0.00  0.00    +0.123 HD
BRANCH   5   8
ATOM      8  C   UNL     1      -3.380 -11.229  15.149  0.00  0.00    +0.054 C 
ATOM      9  C   UNL     1      -3.937 -11.749  13.819  0.00  0.00    +0.019 C 
ATOM     10  C   UNL     1      -1.861 -11.037  15.071  0.00  0.00    +0.019 C 
ATOM     11  C   UNL     1      -2.032 -10.635  12.574  0.00  0.00    +0.015 C 
ATOM     12  C   UNL     1      -3.551 -10.834  12.657  0.00  0.00    +0.007 C 
ATOM     13  C   UNL     1      -1.474 -10.123  13.909  0.00  0.00    +0.007 C 
BRANCH  11  17
ATOM     17  C   UNL     1      -1.675  -9.677  11.438  0.00  0.00    +0.159 C 
BRANCH  17   2
ATOM      2  O   UNL     1      -2.760  -9.636  10.530  0.00  0.00    -0.395 OA
ATOM     23  H   UNL     1      -2.931 -10.551  10.246  0.00  0.00    +0.209 HD
ENDBRANCH  17   2
ENDBRANCH  11  17
ENDBRANCH   5   8
ENDBRANCH   7   5
BRANCH   7  16
ATOM     16  C   UNL     1      -4.818 -10.032  16.855  0.00  0.00    +0.085 C 
BRANCH  16  18
ATOM      3  O   UNL     1      -8.105  -9.591  15.420  0.00  0.00    -0.357 OA
ATOM      6  N   UNL     1      -6.762  -9.936  15.335  0.00  0.00    -0.083 NA
ATOM     18  C   UNL     1      -6.278  -9.749  16.567  0.00  0.00    +0.086 A 
ATOM     19  C   UNL     1      -7.261  -9.291  17.462  0.00  0.00    +0.073 A 
ATOM     20  C   UNL     1      -8.390  -9.209  16.692  0.00  0.00    +0.163 A 
BRANCH  20  21
ATOM     21  C   UNL     1      -9.776  -8.809  16.959  0.00  0.00    +0.232 C 
BRANCH  21   4
ATOM      4  O   UNL     1      -9.806  -7.579  17.690  0.00  0.00    -0.387 OA
ATOM     24  H   UNL     1      -8.928  -7.174  17.597  0.00  0.00    +0.210 HD
ENDBRANCH  21   4
ENDBRANCH  20  21
ENDBRANCH  16  18
ENDBRANCH   7  16
TORSDOF 8
ENDMDL
MODEL 9
REMARK VINA RESULT:      -5.3     23.385     26.767
REMARK  Name = 56775612
REMARK  8 active torsions:
REMARK  status: ('A' for Active; 'I' for Inactive)
REMARK    1  A    between atoms: O_2  and  C_17
REMARK    2  A    between atoms: O_4  and  C_21
REMARK    3  A    between atoms: N_5  and  C_7
REMARK    4  A    between atoms: N_5  and  C_8
REMARK    5  A    between atoms: C_7  and  C_16
REMARK    6  A    between atoms: C_11  and  C_17
REMARK    7  A    between atoms: C_16  and  C_18
REMARK    8  A    between atoms: C_20  and  C_21
REMARK                            x       y       z     vdW  Elec       q    Type
REMARK                         _______ _______ _______ _____ _____    ______ ____
ROOT
ATOM      1  O   UNL     1      -8.784 -12.215  19.429  0.00  0.00    -0.376 OA
ATOM      7  C   UNL     1      -7.601 -11.087  18.057  0.00  0.00    +0.072 C 
ATOM     14  C   UNL     1      -9.038 -11.589  18.151  0.00  0.00    +0.184 C 
ATOM     15  C   UNL     1      -7.438 -11.690  19.448  0.00  0.00    +0.184 C 
ENDROOT
BRANCH   7   5
ATOM      5  N   UNL     1      -6.874 -11.917  17.093  0.00  0.00    -0.304 NA
ATOM     22  H   UNL     1      -7.414 -12.209  16.279  0.00  0.00    +0.123 HD
BRANCH   5   8
ATOM      8  C   UNL     1      -5.663 -11.216  16.670  0.00  0.00    +0.054 C 
ATOM      9  C   UNL     1      -5.474 -11.374  15.158  0.00  0.00    +0.019 C 
ATOM     10  C   UNL     1      -4.442 -11.739  17.435  0.00  0.00    +0.019 C 
ATOM     11  C   UNL     1      -2.961 -11.215  15.446  0.00  0.00    +0.015 C 
ATOM     12  C   UNL     1      -4.187 -10.698  14.683  0.00  0.00    +0.007 C 
ATOM     13  C   UNL     1      -3.156 -11.064  16.960  0.00  0.00    +0.007 C 
BRANCH  11  17
ATOM     17  C   UNL     1      -1.697 -10.488  14.990  0.00  0.00    +0.159 C 
BRANCH  17   2
ATOM      2  O   UNL     1      -0.701 -10.657  15.981  0.00  0.00    -0.395 OA
ATOM     23  H   UNL     1      -0.978 -10.140  16.757  0.00  0.00    +0.209 HD
ENDBRANCH  17   2
ENDBRANCH  11  17
ENDBRANCH   5   8
ENDBRANCH   7   5
BRANCH   7  16
ATOM     16  C   UNL     1      -7.354  -9.622  17.867  0.00  0.00    +0.085 C 
BRANCH  16  18
ATOM      3  O   UNL     1      -9.537  -8.631  15.163  0.00  0.00    -0.357 OA
ATOM      6  N   UNL     1      -8.476  -9.362  15.683  0.00  0.00    -0.083 NA
ATOM     18  C   UNL     1      -8.411  -9.010  16.970  0.00  0.00    +0.086 A 
ATOM     19  C   UNL     1      -9.396  -8.068  17.316  0.00  0.00    +0.073 A 
ATOM     20  C   UNL     1     -10.077  -7.864  16.145  0.00  0.00    +0.163 A 
BRANCH  20  21
ATOM     21  C   UNL     1     -11.216  -7.021  15.766  0.00  0.00    +0.232 C 
BRANCH  21   4
ATOM      4  O   UNL     1     -11.168  -5.775  16.467  0.00  0.00    -0.387 OA
ATOM     24  H   UNL     1     -10.488  -5.865  17.156  0.00  0.00    +0.210 HD
ENDBRANCH  21   4
ENDBRANCH  20  21
ENDBRANCH  16  18
ENDBRANCH   7  16
TORSDOF 8
ENDMDL
MODEL 10
REMARK VINA RESULT:      -5.3      3.683      4.533
REMARK  Name = 56775612
REMARK  8 active torsions:
REMARK  status: ('A' for Active; 'I' for Inactive)
REMARK    1  A    between atoms: O_2  and  C_17
REMARK    2  A    between atoms: O_4  and  C_21
REMARK    3  A    between atoms: N_5  and  C_7
REMARK    4  A    between atoms: N_5  and  C_8
REMARK    5  A    between atoms: C_7  and  C_16
REMARK    6  A    between atoms: C_11  and  C_17
REMARK    7  A    between atoms: C_16  and  C_18
REMARK    8  A    between atoms: C_20  and  C_21
REMARK                            x       y       z     vdW  Elec       q    Type
REMARK                         _______ _______ _______ _____ _____    ______ ____
ROOT
ATOM      1  O   UNL     1      10.016  10.920   6.351  0.00  0.00    -0.376 OA
ATOM      7  C   UNL     1      10.852   8.968   6.573  0.00  0.00    +0.072 C 
ATOM     14  C   UNL     1       9.849   9.851   7.310  0.00  0.00    +0.184 C 
ATOM     15  C   UNL     1      10.901  10.101   5.553  0.00  0.00    +0.184 C 
ENDROOT
BRANCH   7   5
ATOM      5  N   UNL     1      12.109   8.953   7.324  0.00  0.00    -0.304 NA
ATOM     22  H   UNL     1      12.190   8.208   8.016  0.00  0.00    +0.123 HD
BRANCH   5   8
ATOM      8  C   UNL     1      13.230   8.896   6.387  0.00  0.00    +0.054 C 
ATOM      9  C   UNL     1      13.976   7.568   6.553  0.00  0.00    +0.019 C 
ATOM     10  C   UNL     1      14.171  10.086   6.600  0.00  0.00    +0.019 C 
ATOM     11  C   UNL     1      16.136   8.681   5.832  0.00  0.00    +0.015 C 
ATOM     12  C   UNL     1      15.190   7.490   5.626  0.00  0.00    +0.007 C 
ATOM     13  C   UNL     1      15.385  10.009   5.674  0.00  0.00    +0.007 C 
BRANCH  11  17
ATOM     17  C   UNL     1      17.312   8.608   4.859  0.00  0.00    +0.159 C 
BRANCH  17   2
ATOM      2  O   UNL     1      17.079   7.546   3.953  0.00  0.00    -0.395 OA
ATOM     23  H   UNL     1      17.297   6.719   4.418  0.00  0.00    +0.209 HD
ENDBRANCH  17   2
ENDBRANCH  11  17
ENDBRANCH   5   8
ENDBRANCH   7   5
BRANCH   7  16
ATOM     16  C   UNL     1      10.425   7.605   6.122  0.00  0.00    +0.085 C 
BRANCH  16  18
ATOM      3  O   UNL     1      10.960   5.252   8.812  0.00  0.00    -0.357 OA
ATOM      6  N   UNL     1      11.405   6.021   7.744  0.00  0.00    -0.083 NA
ATOM     18  C   UNL     1      10.317   6.658   7.300  0.00  0.00    +0.086 A 
ATOM     19  C   UNL     1       9.169   6.333   8.042  0.00  0.00    +0.073 A 
ATOM     20  C   UNL     1       9.627   5.446   8.980  0.00  0.00    +0.163 A 
BRANCH  20  21
ATOM     21  C   UNL     1       8.991   4.703  10.074  0.00  0.00    +0.232 C 
BRANCH  21   4
ATOM      4  O   UNL     1       9.961   4.347  11.063  0.00  0.00    -0.387 OA
ATOM     24  H   UNL     1      10.203   3.420  10.900  0.00  0.00    +0.210 HD
ENDBRANCH  21   4
ENDBRANCH  20  21
ENDBRANCH  16  18
ENDBRANCH   7  16
TORSDOF 8
ENDMDL
