REMARK  Name = 51137893
REMARK  5 active torsions:
REMARK  status: ('A' for Active; 'I' for Inactive)
REMARK    1  A    between atoms: N_1  and  C_9
REMARK    2  A    between atoms: N_2  and  C_13
REMARK    3  A    between atoms: C_4  and  C_8
REMARK    4  A    between atoms: C_9  and  C_10
REMARK    5  A    between atoms: C_14  and  C_21
REMARK                            x       y       z     vdW  Elec       q    Type
REMARK                         _______ _______ _______ _____ _____    ______ ____
ROOT
ATOM      1  N   UNL     1      -1.620  -0.073   0.026  0.00  0.00    -0.297 NA
ATOM      4  C   UNL     1       0.575  -0.368   0.799  0.00  0.00    +0.070 C 
ATOM      5  C   UNL     1      -0.113   0.742   1.613  0.00  0.00    +0.028 C 
ATOM      6  C   UNL     1      -0.316  -0.551  -0.438  0.00  0.00    +0.096 C 
ATOM      7  C   UNL     1      -1.327   1.143   0.786  0.00  0.00    +0.085 C 
ENDROOT
BRANCH   4   8
ATOM      2  N   UNL     1       2.931  -1.104   0.291  0.00  0.00    -0.330 N 
ATOM      3  N   UNL     1       2.558   1.087   0.264  0.00  0.00    -0.232 NA
ATOM      8  C   UNL     1       2.020  -0.097   0.450  0.00  0.00    +0.115 A 
ATOM     11  C   UNL     1       4.138  -0.531  -0.018  0.00  0.00    +0.069 A 
ATOM     12  C   UNL     1       3.879   0.837  -0.029  0.00  0.00    +0.089 A 
ATOM     13  C   UNL     1       2.674  -2.520   0.425  0.00  0.00    +0.150 C 
ATOM     15  C   UNL     1       5.396  -1.075  -0.281  0.00  0.00    +0.028 A 
ATOM     17  C   UNL     1       4.925   1.730  -0.318  0.00  0.00    +0.030 A 
ATOM     19  C   UNL     1       6.425  -0.172  -0.566  0.00  0.00    +0.002 A 
ATOM     20  C   UNL     1       6.196   1.206  -0.585  0.00  0.00    +0.002 A 
ENDBRANCH   4   8
BRANCH   1   9
ATOM      9  C   UNL     1      -2.545   0.169  -1.071  0.00  0.00    +0.119 C 
BRANCH   9  10
ATOM     10  C   UNL     1      -3.973   0.229  -0.598  0.00  0.00    -0.030 A 
ATOM     14  C   UNL     1      -4.671  -0.933  -0.272  0.00  0.00    -0.046 A 
ATOM     16  C   UNL     1      -4.597   1.472  -0.486  0.00  0.00    +0.005 A 
ATOM     18  C   UNL     1      -5.993  -0.854   0.165  0.00  0.00    +0.003 A 
ATOM     21  C   UNL     1      -4.024  -2.275  -0.383  0.00  0.00    +0.044 C 
ATOM     22  C   UNL     1      -5.920   1.551  -0.050  0.00  0.00    +0.000 A 
ATOM     23  C   UNL     1      -6.617   0.388   0.276  0.00  0.00    +0.000 A 
ENDBRANCH   9  10
ENDBRANCH   1   9
TORSDOF 3
