REMARK  Name = 11883399
REMARK  6 active torsions:
REMARK  status: ('A' for Active; 'I' for Inactive)
REMARK    1  A    between atoms: O_6  and  C_15
REMARK    2  A    between atoms: O_6  and  C_25
REMARK    3  A    between atoms: N_9  and  C_14
REMARK    4  A    between atoms: N_10  and  C_18
REMARK    5  A    between atoms: N_11  and  C_26
REMARK    6  A    between atoms: C_29  and  C_32
REMARK                            x       y       z     vdW  Elec       q    Type
REMARK                         _______ _______ _______ _____ _____    ______ ____
ROOT
ATOM      4  O   UNL     1      -0.983   1.014   1.014  0.00  0.00    -0.368 OA
ATOM      5  O   UNL     1      -1.623   3.724  -0.270  0.00  0.00    -0.368 OA
ATOM     12  C   UNL     1      -2.099   2.393  -0.560  0.00  0.00    +0.173 C 
ATOM     13  C   UNL     1      -0.928   1.453  -0.353  0.00  0.00    +0.192 C 
ATOM     14  C   UNL     1      -3.099   1.960   0.486  0.00  0.00    +0.131 C 
ATOM     15  C   UNL     1       0.260   2.351  -0.605  0.00  0.00    +0.235 C 
ATOM     16  C   UNL     1      -2.200   1.484   1.614  0.00  0.00    +0.185 C 
ATOM     17  C   UNL     1      -0.209   3.669  -0.029  0.00  0.00    +0.207 C 
ENDROOT
BRANCH  14   9
ATOM      7  O   UNL     1      -5.748   1.304   1.392  0.00  0.00    -0.253 OA
ATOM      9  N   UNL     1      -3.939   0.894  -0.002  0.00  0.00    -0.292 N 
ATOM     10  N   UNL     1      -5.811  -0.435  -0.144  0.00  0.00    -0.297 N 
ATOM     23  C   UNL     1      -5.217   0.648   0.498  0.00  0.00    +0.300 C 
ATOM     33  H   UNL     1      -3.563   0.255  -0.695  0.00  0.00    +0.151 HD
ATOM     34  H   UNL     1      -5.255  -0.952  -0.819  0.00  0.00    +0.151 HD
BRANCH  10  18
ATOM     18  C   UNL     1      -7.139  -0.913   0.174  0.00  0.00    +0.074 C 
ATOM     19  C   UNL     1      -7.832  -1.483  -1.068  0.00  0.00    +0.022 C 
ATOM     20  C   UNL     1      -7.096  -1.943   1.308  0.00  0.00    +0.022 C 
ATOM     21  C   UNL     1      -7.236  -2.820  -1.509  0.00  0.00    +0.002 C 
ATOM     22  C   UNL     1      -6.501  -3.279   0.864  0.00  0.00    +0.002 C 
ATOM     24  C   UNL     1      -7.214  -3.831  -0.367  0.00  0.00    +0.000 C 
ENDBRANCH  10  18
ENDBRANCH  14   9
BRANCH  15   6
ATOM      6  O   UNL     1       1.447   1.898   0.005  0.00  0.00    -0.442 OA
BRANCH   6  25
ATOM      8  O   UNL     1       2.021   0.801  -1.918  0.00  0.00    -0.226 OA
ATOM     11  N   UNL     1       3.390   0.753  -0.019  0.00  0.00    -0.251 N 
ATOM     25  C   UNL     1       2.280   1.108  -0.760  0.00  0.00    +0.405 C 
ATOM     35  H   UNL     1       3.427   1.108   0.933  0.00  0.00    +0.158 HD
BRANCH  11  26
ATOM     26  C   UNL     1       4.485  -0.046  -0.420  0.00  0.00    +0.037 A 
ATOM     27  C   UNL     1       5.527  -0.301   0.471  0.00  0.00    +0.035 A 
ATOM     28  C   UNL     1       4.523  -0.579  -1.709  0.00  0.00    +0.023 A 
ATOM     29  C   UNL     1       6.607  -1.089   0.074  0.00  0.00    +0.057 A 
ATOM     30  C   UNL     1       5.603  -1.367  -2.106  0.00  0.00    +0.002 A 
ATOM     31  C   UNL     1       6.645  -1.622  -1.214  0.00  0.00    +0.012 A 
BRANCH  29  32
ATOM      1  F   UNL     1       8.710  -2.146   0.504  0.00  0.00    -0.166 F 
ATOM      2  F   UNL     1       8.356  -0.234   1.464  0.00  0.00    -0.166 F 
ATOM      3  F   UNL     1       7.302  -2.006   2.155  0.00  0.00    -0.166 F 
ATOM     32  C   UNL     1       7.721  -1.362   1.027  0.00  0.00    +0.417 C 
ENDBRANCH  29  32
ENDBRANCH  11  26
ENDBRANCH   6  25
ENDBRANCH  15   6
TORSDOF 6
