REMARK  Name = 75368494
REMARK  3 active torsions:
REMARK  status: ('A' for Active; 'I' for Inactive)
REMARK    1  A    between atoms: N_4  and  C_9
REMARK    2  A    between atoms: C_18  and  C_19
REMARK    3  A    between atoms: C_24  and  C_25
REMARK                            x       y       z     vdW  Elec       q    Type
REMARK                         _______ _______ _______ _____ _____    ______ ____
ROOT
ATOM      2  O   UNL     1      -3.209   2.629   0.351  0.00  0.00    -0.252 OA
ATOM      3  O   UNL     1       3.767   2.502  -0.021  0.00  0.00    -0.270 OA
ATOM      4  N   UNL     1      -2.731   0.328   0.155  0.00  0.00    -0.280 N 
ATOM      5  N   UNL     1      -1.020   1.776   0.322  0.00  0.00    -0.278 N 
ATOM      6  N   UNL     1       1.653   1.587  -0.415  0.00  0.00    -0.294 N 
ATOM      7  C   UNL     1      -0.394   0.464   0.339  0.00  0.00    +0.112 C 
ATOM      8  C   UNL     1      -1.539  -0.489   0.010  0.00  0.00    +0.133 C 
ATOM     10  C   UNL     1       0.772   0.425  -0.644  0.00  0.00    +0.132 C 
ATOM     11  C   UNL     1      -0.201   2.969   0.444  0.00  0.00    +0.128 C 
ATOM     12  C   UNL     1      -2.419   1.696   0.288  0.00  0.00    +0.305 C 
ATOM     13  C   UNL     1       0.984   2.891  -0.517  0.00  0.00    +0.127 C 
ATOM     18  C   UNL     1       3.026   1.531  -0.168  0.00  0.00    +0.247 C 
ENDROOT
BRANCH  18  19
ATOM     19  C   UNL     1       3.656   0.209  -0.059  0.00  0.00    +0.037 A 
ATOM     20  C   UNL     1       4.169  -0.415  -1.197  0.00  0.00    +0.013 A 
ATOM     21  C   UNL     1       3.740  -0.423   1.181  0.00  0.00    +0.013 A 
ATOM     22  C   UNL     1       4.766  -1.671  -1.093  0.00  0.00    +0.004 A 
ATOM     23  C   UNL     1       4.338  -1.679   1.285  0.00  0.00    +0.004 A 
ATOM     24  C   UNL     1       4.851  -2.303   0.148  0.00  0.00    -0.050 A 
ATOM     25  C   UNL     1       5.490  -3.646   0.258  0.00  0.00    +0.044 C 
ENDBRANCH  18  19
BRANCH   4   9
ATOM      1  O   UNL     1      -5.750  -2.535  -0.248  0.00  0.00    -0.380 OA
ATOM      9  C   UNL     1      -4.056  -0.226   0.034  0.00  0.00    +0.082 C 
ATOM     14  C   UNL     1      -4.365  -1.164   1.201  0.00  0.00    +0.050 C 
ATOM     15  C   UNL     1      -4.229  -0.959  -1.297  0.00  0.00    +0.050 C 
ATOM     16  C   UNL     1      -5.712  -1.847   1.001  0.00  0.00    +0.161 C 
ATOM     17  C   UNL     1      -5.584  -1.651  -1.357  0.00  0.00    +0.161 C 
ENDBRANCH   4   9
TORSDOF 2
