REMARK  Name = 56775608
REMARK  8 active torsions:
REMARK  status: ('A' for Active; 'I' for Inactive)
REMARK    1  A    between atoms: O_6  and  C_23
REMARK    2  A    between atoms: N_7  and  C_9
REMARK    3  A    between atoms: N_7  and  C_13
REMARK    4  A    between atoms: C_9  and  C_12
REMARK    5  A    between atoms: C_12  and  C_14
REMARK    6  A    between atoms: C_13  and  C_15
REMARK    7  A    between atoms: C_17  and  C_23
REMARK    8  A    between atoms: C_22  and  C_24
REMARK                            x       y       z     vdW  Elec       q    Type
REMARK                         _______ _______ _______ _____ _____    ______ ____
ROOT
ATOM      7  N   UNL     1       0.712  -0.967   0.294  0.00  0.00    -0.302 NA
ATOM     25  H   UNL     1       0.977  -0.081   0.723  0.00  0.00    +0.123 HD
ENDROOT
BRANCH   7   9
ATOM      4  O   UNL     1       1.880  -3.627   1.161  0.00  0.00    -0.376 OA
ATOM      9  C   UNL     1       1.827  -1.858  -0.032  0.00  0.00    +0.072 C 
ATOM     10  C   UNL     1       1.304  -3.287  -0.121  0.00  0.00    +0.184 C 
ATOM     11  C   UNL     1       2.485  -2.318   1.264  0.00  0.00    +0.184 C 
BRANCH   9  12
ATOM     12  C   UNL     1       2.690  -1.332  -1.138  0.00  0.00    +0.085 C 
BRANCH  12  14
ATOM      5  O   UNL     1       5.151   0.965   0.175  0.00  0.00    -0.357 OA
ATOM      8  N   UNL     1       4.702  -0.314  -0.134  0.00  0.00    -0.083 NA
ATOM     14  C   UNL     1       3.492  -0.135  -0.672  0.00  0.00    +0.086 A 
ATOM     16  C   UNL     1       3.128   1.222  -0.728  0.00  0.00    +0.073 A 
ATOM     17  C   UNL     1       4.205   1.870  -0.184  0.00  0.00    +0.163 A 
BRANCH  17  23
ATOM     23  C   UNL     1       4.518   3.281   0.074  0.00  0.00    +0.232 C 
BRANCH  23   6
ATOM      6  O   UNL     1       4.391   3.571   1.468  0.00  0.00    -0.387 OA
ATOM     26  H   UNL     1       4.608   4.512   1.583  0.00  0.00    +0.210 HD
ENDBRANCH  23   6
ENDBRANCH  17  23
ENDBRANCH  12  14
ENDBRANCH   9  12
ENDBRANCH   7   9
BRANCH   7  13
ATOM     13  C   UNL     1      -0.072  -0.716  -0.916  0.00  0.00    +0.117 C 
BRANCH  13  15
ATOM     15  C   UNL     1      -1.481  -0.332  -0.610  0.00  0.00    -0.034 A 
ATOM     18  C   UNL     1      -2.400  -1.306  -0.219  0.00  0.00    +0.005 A 
ATOM     19  C   UNL     1      -1.880   1.001  -0.715  0.00  0.00    +0.005 A 
ATOM     20  C   UNL     1      -3.717  -0.947   0.068  0.00  0.00    +0.012 A 
ATOM     21  C   UNL     1      -3.197   1.359  -0.428  0.00  0.00    +0.012 A 
ATOM     22  C   UNL     1      -4.115   0.385  -0.037  0.00  0.00    +0.055 A 
BRANCH  22  24
ATOM      1  F   UNL     1      -5.633   1.669   1.294  0.00  0.00    -0.166 F 
ATOM      2  F   UNL     1      -6.289  -0.299   0.642  0.00  0.00    -0.166 F 
ATOM      3  F   UNL     1      -6.178   1.343  -0.780  0.00  0.00    -0.166 F 
ATOM     24  C   UNL     1      -5.523   0.769   0.273  0.00  0.00    +0.417 C 
ENDBRANCH  22  24
ENDBRANCH  13  15
ENDBRANCH   7  13
TORSDOF 8
