MODEL 1
REMARK VINA RESULT:      -7.0      0.000      0.000
REMARK  Name = 11867377
REMARK  12 active torsions:
REMARK  status: ('A' for Active; 'I' for Inactive)
REMARK    1  A    between atoms: O_3  and  C_14
REMARK    2  A    between atoms: O_3  and  C_18
REMARK    3  A    between atoms: O_6  and  C_28
REMARK    4  A    between atoms: O_6  and  C_33
REMARK    5  A    between atoms: O_7  and  C_29
REMARK    6  A    between atoms: O_7  and  C_34
REMARK    7  A    between atoms: N_8  and  C_13
REMARK    8  A    between atoms: N_9  and  C_22
REMARK    9  A    between atoms: N_10  and  C_25
REMARK   10  A    between atoms: N_10  and  C_31
REMARK   11  A    between atoms: N_10  and  C_32
REMARK   12  A    between atoms: C_17  and  C_19
REMARK                            x       y       z     vdW  Elec       q    Type
REMARK                         _______ _______ _______ _____ _____    ______ ____
ROOT
ATOM      1  O   UNL     1      13.296   8.046  20.837  0.00  0.00    -0.368 OA
ATOM      2  O   UNL     1      13.514   8.314  17.790  0.00  0.00    -0.368 OA
ATOM     11  C   UNL     1      14.520   8.314  18.824  0.00  0.00    +0.173 C 
ATOM     12  C   UNL     1      13.927   9.041  20.014  0.00  0.00    +0.192 C 
ATOM     13  C   UNL     1      14.743   6.909  19.332  0.00  0.00    +0.130 C 
ATOM     14  C   UNL     1      12.914   9.954  19.367  0.00  0.00    +0.235 C 
ATOM     15  C   UNL     1      13.605   6.740  20.324  0.00  0.00    +0.185 C 
ATOM     16  C   UNL     1      12.399   9.105  18.228  0.00  0.00    +0.207 C 
ENDROOT
BRANCH  13   8
ATOM      4  O   UNL     1      17.030   5.479  18.345  0.00  0.00    -0.270 OA
ATOM      8  N   UNL     1      16.027   6.785  19.979  0.00  0.00    -0.304 N 
ATOM     17  C   UNL     1      17.077   6.069  19.421  0.00  0.00    +0.244 C 
ATOM     35  H   UNL     1      16.107   7.155  20.920  0.00  0.00    +0.149 HD
BRANCH  17  19
ATOM     19  C   UNL     1      18.326   6.014  20.224  0.00  0.00    +0.037 A 
ATOM     20  C   UNL     1      18.485   6.857  21.324  0.00  0.00    +0.015 A 
ATOM     21  C   UNL     1      19.339   5.120  19.879  0.00  0.00    +0.015 A 
ATOM     23  C   UNL     1      19.658   6.805  22.078  0.00  0.00    +0.024 A 
ATOM     24  C   UNL     1      20.511   5.068  20.632  0.00  0.00    +0.024 A 
ATOM     25  C   UNL     1      20.670   5.911  21.732  0.00  0.00    +0.029 A 
BRANCH  25  10
ATOM     10  N   UNL     1      21.856   5.860  22.494  0.00  0.00    -0.336 N 
ATOM     31  C   UNL     1      23.089   5.381  21.901  0.00  0.00    +0.129 C 
ATOM     32  C   UNL     1      21.855   6.274  23.883  0.00  0.00    +0.129 C 
ENDBRANCH  25  10
ENDBRANCH  17  19
ENDBRANCH  13   8
BRANCH  14   3
ATOM      3  O   UNL     1      11.881  10.357  20.239  0.00  0.00    -0.442 OA
BRANCH   3  18
ATOM      5  O   UNL     1      12.757  12.420  20.692  0.00  0.00    -0.226 OA
ATOM      9  N   UNL     1      11.623  11.180  22.322  0.00  0.00    -0.251 N 
ATOM     18  C   UNL     1      12.145  11.427  21.068  0.00  0.00    +0.405 C 
ATOM     36  H   UNL     1      11.144  10.291  22.443  0.00  0.00    +0.158 HD
BRANCH   9  22
ATOM     22  C   UNL     1      11.670  12.013  23.464  0.00  0.00    +0.043 A 
ATOM     26  C   UNL     1      12.612  11.773  24.464  0.00  0.00    +0.069 A 
ATOM     27  C   UNL     1      10.775  13.076  23.588  0.00  0.00    +0.069 A 
ATOM     28  C   UNL     1      10.822  13.898  24.713  0.00  0.00    +0.125 A 
ATOM     29  C   UNL     1      12.659  12.596  25.589  0.00  0.00    +0.125 A 
ATOM     30  C   UNL     1      11.764  13.658  25.714  0.00  0.00    +0.091 A 
BRANCH  28   6
ATOM      6  O   UNL     1       9.950  14.937  24.836  0.00  0.00    -0.495 OA
ATOM     33  C   UNL     1       9.412  15.479  23.631  0.00  0.00    +0.277 C 
ENDBRANCH  28   6
BRANCH  29   7
ATOM      7  O   UNL     1      13.580  12.363  26.564  0.00  0.00    -0.495 OA
ATOM     34  C   UNL     1      14.811  11.761  26.165  0.00  0.00    +0.277 C 
ENDBRANCH  29   7
ENDBRANCH   9  22
ENDBRANCH   3  18
ENDBRANCH  14   3
TORSDOF 8
ENDMDL
MODEL 2
REMARK VINA RESULT:      -6.9     26.345     30.437
REMARK  Name = 11867377
REMARK  12 active torsions:
REMARK  status: ('A' for Active; 'I' for Inactive)
REMARK    1  A    between atoms: O_3  and  C_14
REMARK    2  A    between atoms: O_3  and  C_18
REMARK    3  A    between atoms: O_6  and  C_28
REMARK    4  A    between atoms: O_6  and  C_33
REMARK    5  A    between atoms: O_7  and  C_29
REMARK    6  A    between atoms: O_7  and  C_34
REMARK    7  A    between atoms: N_8  and  C_13
REMARK    8  A    between atoms: N_9  and  C_22
REMARK    9  A    between atoms: N_10  and  C_25
REMARK   10  A    between atoms: N_10  and  C_31
REMARK   11  A    between atoms: N_10  and  C_32
REMARK   12  A    between atoms: C_17  and  C_19
REMARK                            x       y       z     vdW  Elec       q    Type
REMARK                         _______ _______ _______ _____ _____    ______ ____
ROOT
ATOM      1  O   UNL     1     -15.473   6.491  23.742  0.00  0.00    -0.368 OA
ATOM      2  O   UNL     1     -16.312   4.440  21.623  0.00  0.00    -0.368 OA
ATOM     11  C   UNL     1     -15.672   4.281  22.906  0.00  0.00    +0.173 C 
ATOM     12  C   UNL     1     -14.731   5.457  23.075  0.00  0.00    +0.192 C 
ATOM     13  C   UNL     1     -16.681   4.462  24.015  0.00  0.00    +0.130 C 
ATOM     14  C   UNL     1     -14.413   5.829  21.647  0.00  0.00    +0.235 C 
ATOM     15  C   UNL     1     -16.751   5.974  24.144  0.00  0.00    +0.185 C 
ATOM     16  C   UNL     1     -15.726   5.562  20.947  0.00  0.00    +0.207 C 
ENDROOT
BRANCH  13   8
ATOM      4  O   UNL     1     -18.326   3.425  26.130  0.00  0.00    -0.270 OA
ATOM      8  N   UNL     1     -16.225   3.851  25.241  0.00  0.00    -0.304 N 
ATOM     17  C   UNL     1     -17.101   3.378  26.208  0.00  0.00    +0.244 C 
ATOM     35  H   UNL     1     -15.228   3.874  25.425  0.00  0.00    +0.149 HD
BRANCH  17  19
ATOM     19  C   UNL     1     -16.474   2.799  27.425  0.00  0.00    +0.037 A 
ATOM     20  C   UNL     1     -15.843   3.634  28.348  0.00  0.00    +0.015 A 
ATOM     21  C   UNL     1     -16.517   1.423  27.645  0.00  0.00    +0.015 A 
ATOM     23  C   UNL     1     -15.255   3.090  29.491  0.00  0.00    +0.024 A 
ATOM     24  C   UNL     1     -15.930   0.880  28.787  0.00  0.00    +0.024 A 
ATOM     25  C   UNL     1     -15.298   1.714  29.710  0.00  0.00    +0.029 A 
BRANCH  25  10
ATOM     10  N   UNL     1     -14.702   1.165  30.864  0.00  0.00    -0.336 N 
ATOM     31  C   UNL     1     -13.799   1.960  31.673  0.00  0.00    +0.129 C 
ATOM     32  C   UNL     1     -14.974  -0.205  31.251  0.00  0.00    +0.129 C 
ENDBRANCH  25  10
ENDBRANCH  17  19
ENDBRANCH  13   8
BRANCH  14   3
ATOM      3  O   UNL     1     -13.991   7.166  21.494  0.00  0.00    -0.442 OA
BRANCH   3  18
ATOM      5  O   UNL     1     -11.767   6.797  21.110  0.00  0.00    -0.226 OA
ATOM      9  N   UNL     1     -13.008   8.296  19.809  0.00  0.00    -0.251 N 
ATOM     18  C   UNL     1     -12.807   7.373  20.817  0.00  0.00    +0.405 C 
ATOM     36  H   UNL     1     -13.951   8.668  19.720  0.00  0.00    +0.158 HD
BRANCH   9  22
ATOM     22  C   UNL     1     -12.062   8.791  18.882  0.00  0.00    +0.043 A 
ATOM     26  C   UNL     1     -11.520  10.065  19.050  0.00  0.00    +0.069 A 
ATOM     27  C   UNL     1     -11.669   8.003  17.800  0.00  0.00    +0.069 A 
ATOM     28  C   UNL     1     -10.735   8.490  16.886  0.00  0.00    +0.125 A 
ATOM     29  C   UNL     1     -10.586  10.552  18.136  0.00  0.00    +0.125 A 
ATOM     30  C   UNL     1     -10.194   9.764  17.054  0.00  0.00    +0.091 A 
BRANCH  28   6
ATOM      6  O   UNL     1     -10.350   7.721  15.829  0.00  0.00    -0.495 OA
ATOM     33  C   UNL     1     -10.645   8.216  14.524  0.00  0.00    +0.277 C 
ENDBRANCH  28   6
BRANCH  29   7
ATOM      7  O   UNL     1     -10.056  11.795  18.301  0.00  0.00    -0.495 OA
ATOM     34  C   UNL     1     -10.953  12.901  18.202  0.00  0.00    +0.277 C 
ENDBRANCH  29   7
ENDBRANCH   9  22
ENDBRANCH   3  18
ENDBRANCH  14   3
TORSDOF 8
ENDMDL
MODEL 3
REMARK VINA RESULT:      -6.8     26.019     30.301
REMARK  Name = 11867377
REMARK  12 active torsions:
REMARK  status: ('A' for Active; 'I' for Inactive)
REMARK    1  A    between atoms: O_3  and  C_14
REMARK    2  A    between atoms: O_3  and  C_18
REMARK    3  A    between atoms: O_6  and  C_28
REMARK    4  A    between atoms: O_6  and  C_33
REMARK    5  A    between atoms: O_7  and  C_29
REMARK    6  A    between atoms: O_7  and  C_34
REMARK    7  A    between atoms: N_8  and  C_13
REMARK    8  A    between atoms: N_9  and  C_22
REMARK    9  A    between atoms: N_10  and  C_25
REMARK   10  A    between atoms: N_10  and  C_31
REMARK   11  A    between atoms: N_10  and  C_32
REMARK   12  A    between atoms: C_17  and  C_19
REMARK                            x       y       z     vdW  Elec       q    Type
REMARK                         _______ _______ _______ _____ _____    ______ ____
ROOT
ATOM      1  O   UNL     1     -15.523   6.769  23.730  0.00  0.00    -0.368 OA
ATOM      2  O   UNL     1     -15.834   4.193  22.096  0.00  0.00    -0.368 OA
ATOM     11  C   UNL     1     -15.326   4.425  23.426  0.00  0.00    +0.173 C 
ATOM     12  C   UNL     1     -14.578   5.742  23.386  0.00  0.00    +0.192 C 
ATOM     13  C   UNL     1     -16.468   4.686  24.379  0.00  0.00    +0.130 C 
ATOM     14  C   UNL     1     -14.155   5.834  21.939  0.00  0.00    +0.235 C 
ATOM     15  C   UNL     1     -16.756   6.159  24.142  0.00  0.00    +0.185 C 
ATOM     16  C   UNL     1     -15.333   5.216  21.222  0.00  0.00    +0.207 C 
ENDROOT
BRANCH  13   8
ATOM      4  O   UNL     1     -17.561   2.707  26.151  0.00  0.00    -0.270 OA
ATOM      8  N   UNL     1     -16.075   4.442  25.746  0.00  0.00    -0.304 N 
ATOM     17  C   UNL     1     -16.665   3.458  26.526  0.00  0.00    +0.244 C 
ATOM     35  H   UNL     1     -15.416   5.093  26.160  0.00  0.00    +0.149 HD
BRANCH  17  19
ATOM     19  C   UNL     1     -16.165   3.349  27.922  0.00  0.00    +0.037 A 
ATOM     20  C   UNL     1     -16.163   4.471  28.751  0.00  0.00    +0.015 A 
ATOM     21  C   UNL     1     -15.699   2.126  28.403  0.00  0.00    +0.015 A 
ATOM     23  C   UNL     1     -15.695   4.368  30.062  0.00  0.00    +0.024 A 
ATOM     24  C   UNL     1     -15.231   2.023  29.712  0.00  0.00    +0.024 A 
ATOM     25  C   UNL     1     -15.229   3.145  30.542  0.00  0.00    +0.029 A 
BRANCH  25  10
ATOM     10  N   UNL     1     -14.754   3.043  31.866  0.00  0.00    -0.336 N 
ATOM     31  C   UNL     1     -15.679   3.065  32.981  0.00  0.00    +0.129 C 
ATOM     32  C   UNL     1     -13.333   2.928  32.129  0.00  0.00    +0.129 C 
ENDBRANCH  25  10
ENDBRANCH  17  19
ENDBRANCH  13   8
BRANCH  14   3
ATOM      3  O   UNL     1     -13.903   7.153  21.509  0.00  0.00    -0.442 OA
BRANCH   3  18
ATOM      5  O   UNL     1     -11.700   6.765  21.033  0.00  0.00    -0.226 OA
ATOM      9  N   UNL     1     -12.962   8.327  19.829  0.00  0.00    -0.251 N 
ATOM     18  C   UNL     1     -12.741   7.366  20.797  0.00  0.00    +0.405 C 
ATOM     36  H   UNL     1     -13.901   8.715  19.786  0.00  0.00    +0.158 HD
BRANCH   9  22
ATOM     22  C   UNL     1     -12.041   8.839  18.886  0.00  0.00    +0.043 A 
ATOM     26  C   UNL     1     -11.618   8.044  17.821  0.00  0.00    +0.069 A 
ATOM     27  C   UNL     1     -11.558  10.141  19.021  0.00  0.00    +0.069 A 
ATOM     28  C   UNL     1     -10.651  10.647  18.091  0.00  0.00    +0.125 A 
ATOM     29  C   UNL     1     -10.711   8.551  16.891  0.00  0.00    +0.125 A 
ATOM     30  C   UNL     1     -10.227   9.852  17.026  0.00  0.00    +0.091 A 
BRANCH  28   6
ATOM      6  O   UNL     1     -10.179  11.918  18.221  0.00  0.00    -0.495 OA
ATOM     33  C   UNL     1      -9.406  12.438  17.140  0.00  0.00    +0.277 C 
ENDBRANCH  28   6
BRANCH  29   7
ATOM      7  O   UNL     1     -10.299   7.776  15.851  0.00  0.00    -0.495 OA
ATOM     34  C   UNL     1     -10.701   8.178  14.542  0.00  0.00    +0.277 C 
ENDBRANCH  29   7
ENDBRANCH   9  22
ENDBRANCH   3  18
ENDBRANCH  14   3
TORSDOF 8
ENDMDL
MODEL 4
REMARK VINA RESULT:      -6.7     27.570     31.031
REMARK  Name = 11867377
REMARK  12 active torsions:
REMARK  status: ('A' for Active; 'I' for Inactive)
REMARK    1  A    between atoms: O_3  and  C_14
REMARK    2  A    between atoms: O_3  and  C_18
REMARK    3  A    between atoms: O_6  and  C_28
REMARK    4  A    between atoms: O_6  and  C_33
REMARK    5  A    between atoms: O_7  and  C_29
REMARK    6  A    between atoms: O_7  and  C_34
REMARK    7  A    between atoms: N_8  and  C_13
REMARK    8  A    between atoms: N_9  and  C_22
REMARK    9  A    between atoms: N_10  and  C_25
REMARK   10  A    between atoms: N_10  and  C_31
REMARK   11  A    between atoms: N_10  and  C_32
REMARK   12  A    between atoms: C_17  and  C_19
REMARK                            x       y       z     vdW  Elec       q    Type
REMARK                         _______ _______ _______ _____ _____    ______ ____
ROOT
ATOM      1  O   UNL     1      -3.826 -12.147  14.337  0.00  0.00    -0.368 OA
ATOM      2  O   UNL     1      -1.917 -10.892  16.383  0.00  0.00    -0.368 OA
ATOM     11  C   UNL     1      -3.295 -10.610  16.063  0.00  0.00    +0.173 C 
ATOM     12  C   UNL     1      -3.441 -10.781  14.564  0.00  0.00    +0.192 C 
ATOM     13  C   UNL     1      -4.192 -11.680  16.639  0.00  0.00    +0.130 C 
ATOM     14  C   UNL     1      -2.044 -10.503  14.065  0.00  0.00    +0.235 C 
ATOM     15  C   UNL     1      -4.090 -12.781  15.598  0.00  0.00    +0.185 C 
ATOM     16  C   UNL     1      -1.189 -11.096  15.163  0.00  0.00    +0.207 C 
ENDROOT
BRANCH  13   8
ATOM      4  O   UNL     1      -5.431 -10.671  19.026  0.00  0.00    -0.270 OA
ATOM      8  N   UNL     1      -5.549 -11.207  16.772  0.00  0.00    -0.304 N 
ATOM     17  C   UNL     1      -6.060 -10.737  17.974  0.00  0.00    +0.244 C 
ATOM     35  H   UNL     1      -6.162 -11.332  15.973  0.00  0.00    +0.149 HD
BRANCH  17  19
ATOM     19  C   UNL     1      -7.484 -10.311  17.953  0.00  0.00    +0.037 A 
ATOM     20  C   UNL     1      -8.435 -11.021  18.686  0.00  0.00    +0.015 A 
ATOM     21  C   UNL     1      -7.870  -9.202  17.200  0.00  0.00    +0.015 A 
ATOM     23  C   UNL     1      -9.771 -10.621  18.666  0.00  0.00    +0.024 A 
ATOM     24  C   UNL     1      -9.205  -8.803  17.180  0.00  0.00    +0.024 A 
ATOM     25  C   UNL     1     -10.156  -9.513  17.913  0.00  0.00    +0.029 A 
BRANCH  25  10
ATOM     10  N   UNL     1     -11.508  -9.110  17.892  0.00  0.00    -0.336 N 
ATOM     31  C   UNL     1     -11.988  -8.202  16.869  0.00  0.00    +0.129 C 
ATOM     32  C   UNL     1     -12.432  -9.588  18.902  0.00  0.00    +0.129 C 
ENDBRANCH  25  10
ENDBRANCH  17  19
ENDBRANCH  13   8
BRANCH  14   3
ATOM      3  O   UNL     1      -1.769 -11.080  12.808  0.00  0.00    -0.442 OA
BRANCH   3  18
ATOM      5  O   UNL     1      -1.598  -9.432  11.231  0.00  0.00    -0.226 OA
ATOM      9  N   UNL     1      -3.382 -10.948  11.238  0.00  0.00    -0.251 N 
ATOM     18  C   UNL     1      -2.205 -10.390  11.696  0.00  0.00    +0.405 C 
ATOM     36  H   UNL     1      -3.736 -11.746  11.761  0.00  0.00    +0.158 HD
BRANCH   9  22
ATOM     22  C   UNL     1      -4.160 -10.548  10.127  0.00  0.00    +0.043 A 
ATOM     26  C   UNL     1      -4.982  -9.425  10.219  0.00  0.00    +0.069 A 
ATOM     27  C   UNL     1      -4.105 -11.277   8.939  0.00  0.00    +0.069 A 
ATOM     28  C   UNL     1      -4.871 -10.882   7.843  0.00  0.00    +0.125 A 
ATOM     29  C   UNL     1      -5.748  -9.030   9.122  0.00  0.00    +0.125 A 
ATOM     30  C   UNL     1      -5.693  -9.759   7.935  0.00  0.00    +0.091 A 
BRANCH  28   6
ATOM      6  O   UNL     1      -4.817 -11.593   6.682  0.00  0.00    -0.495 OA
ATOM     33  C   UNL     1      -5.522 -11.060   5.561  0.00  0.00    +0.277 C 
ENDBRANCH  28   6
BRANCH  29   7
ATOM      7  O   UNL     1      -6.549  -7.933   9.211  0.00  0.00    -0.495 OA
ATOM     34  C   UNL     1      -7.957  -8.148   9.126  0.00  0.00    +0.277 C 
ENDBRANCH  29   7
ENDBRANCH   9  22
ENDBRANCH   3  18
ENDBRANCH  14   3
TORSDOF 8
ENDMDL
MODEL 5
REMARK VINA RESULT:      -6.7     27.434     30.859
REMARK  Name = 11867377
REMARK  12 active torsions:
REMARK  status: ('A' for Active; 'I' for Inactive)
REMARK    1  A    between atoms: O_3  and  C_14
REMARK    2  A    between atoms: O_3  and  C_18
REMARK    3  A    between atoms: O_6  and  C_28
REMARK    4  A    between atoms: O_6  and  C_33
REMARK    5  A    between atoms: O_7  and  C_29
REMARK    6  A    between atoms: O_7  and  C_34
REMARK    7  A    between atoms: N_8  and  C_13
REMARK    8  A    between atoms: N_9  and  C_22
REMARK    9  A    between atoms: N_10  and  C_25
REMARK   10  A    between atoms: N_10  and  C_31
REMARK   11  A    between atoms: N_10  and  C_32
REMARK   12  A    between atoms: C_17  and  C_19
REMARK                            x       y       z     vdW  Elec       q    Type
REMARK                         _______ _______ _______ _____ _____    ______ ____
ROOT
ATOM      1  O   UNL     1      -3.718 -12.034  14.325  0.00  0.00    -0.368 OA
ATOM      2  O   UNL     1      -1.841 -10.797  16.411  0.00  0.00    -0.368 OA
ATOM     11  C   UNL     1      -3.208 -10.502  16.062  0.00  0.00    +0.173 C 
ATOM     12  C   UNL     1      -3.325 -10.672  14.560  0.00  0.00    +0.192 C 
ATOM     13  C   UNL     1      -4.128 -11.563  16.619  0.00  0.00    +0.130 C 
ATOM     14  C   UNL     1      -1.915 -10.407  14.091  0.00  0.00    +0.235 C 
ATOM     15  C   UNL     1      -4.014 -12.666  15.581  0.00  0.00    +0.185 C 
ATOM     16  C   UNL     1      -1.089 -11.008  15.206  0.00  0.00    +0.207 C 
ENDROOT
BRANCH  13   8
ATOM      4  O   UNL     1      -5.451 -10.673  19.008  0.00  0.00    -0.270 OA
ATOM      8  N   UNL     1      -5.483 -11.078  16.724  0.00  0.00    -0.304 N 
ATOM     17  C   UNL     1      -6.037 -10.669  17.929  0.00  0.00    +0.244 C 
ATOM     35  H   UNL     1      -6.063 -11.147  15.895  0.00  0.00    +0.149 HD
BRANCH  17  19
ATOM     19  C   UNL     1      -7.453 -10.221  17.874  0.00  0.00    +0.037 A 
ATOM     20  C   UNL     1      -8.402 -10.807  18.712  0.00  0.00    +0.015 A 
ATOM     21  C   UNL     1      -7.832  -9.214  16.987  0.00  0.00    +0.015 A 
ATOM     23  C   UNL     1      -9.731 -10.385  18.661  0.00  0.00    +0.024 A 
ATOM     24  C   UNL     1      -9.161  -8.793  16.935  0.00  0.00    +0.024 A 
ATOM     25  C   UNL     1     -10.110  -9.379  17.772  0.00  0.00    +0.029 A 
BRANCH  25  10
ATOM     10  N   UNL     1     -11.454  -8.956  17.720  0.00  0.00    -0.336 N 
ATOM     31  C   UNL     1     -11.860  -7.913  16.798  0.00  0.00    +0.129 C 
ATOM     32  C   UNL     1     -12.446  -9.547  18.597  0.00  0.00    +0.129 C 
ENDBRANCH  25  10
ENDBRANCH  17  19
ENDBRANCH  13   8
BRANCH  14   3
ATOM      3  O   UNL     1      -1.620 -10.987  12.840  0.00  0.00    -0.442 OA
BRANCH   3  18
ATOM      5  O   UNL     1      -1.414  -9.397  11.208  0.00  0.00    -0.226 OA
ATOM      9  N   UNL     1      -3.270 -10.821  11.313  0.00  0.00    -0.251 N 
ATOM     18  C   UNL     1      -2.054 -10.309  11.720  0.00  0.00    +0.405 C 
ATOM     36  H   UNL     1      -3.647 -11.584  11.870  0.00  0.00    +0.158 HD
BRANCH   9  22
ATOM     22  C   UNL     1      -4.060 -10.415  10.212  0.00  0.00    +0.043 A 
ATOM     26  C   UNL     1      -4.070 -11.175   9.042  0.00  0.00    +0.069 A 
ATOM     27  C   UNL     1      -4.831  -9.256  10.298  0.00  0.00    +0.069 A 
ATOM     28  C   UNL     1      -5.611  -8.856   9.213  0.00  0.00    +0.125 A 
ATOM     29  C   UNL     1      -4.851 -10.775   7.958  0.00  0.00    +0.125 A 
ATOM     30  C   UNL     1      -5.621  -9.615   8.043  0.00  0.00    +0.091 A 
BRANCH  28   6
ATOM      6  O   UNL     1      -6.365  -7.725   9.296  0.00  0.00    -0.495 OA
ATOM     33  C   UNL     1      -7.525  -7.655   8.468  0.00  0.00    +0.277 C 
ENDBRANCH  28   6
BRANCH  29   7
ATOM      7  O   UNL     1      -4.861 -11.517   6.817  0.00  0.00    -0.495 OA
ATOM     34  C   UNL     1      -4.084 -12.713   6.813  0.00  0.00    +0.277 C 
ENDBRANCH  29   7
ENDBRANCH   9  22
ENDBRANCH   3  18
ENDBRANCH  14   3
TORSDOF 8
ENDMDL
MODEL 6
REMARK VINA RESULT:      -6.7      0.421      2.321
REMARK  Name = 11867377
REMARK  12 active torsions:
REMARK  status: ('A' for Active; 'I' for Inactive)
REMARK    1  A    between atoms: O_3  and  C_14
REMARK    2  A    between atoms: O_3  and  C_18
REMARK    3  A    between atoms: O_6  and  C_28
REMARK    4  A    between atoms: O_6  and  C_33
REMARK    5  A    between atoms: O_7  and  C_29
REMARK    6  A    between atoms: O_7  and  C_34
REMARK    7  A    between atoms: N_8  and  C_13
REMARK    8  A    between atoms: N_9  and  C_22
REMARK    9  A    between atoms: N_10  and  C_25
REMARK   10  A    between atoms: N_10  and  C_31
REMARK   11  A    between atoms: N_10  and  C_32
REMARK   12  A    between atoms: C_17  and  C_19
REMARK                            x       y       z     vdW  Elec       q    Type
REMARK                         _______ _______ _______ _____ _____    ______ ____
ROOT
ATOM      1  O   UNL     1      13.391   8.178  20.770  0.00  0.00    -0.368 OA
ATOM      2  O   UNL     1      13.710   8.091  17.721  0.00  0.00    -0.368 OA
ATOM     11  C   UNL     1      14.683   8.198  18.781  0.00  0.00    +0.173 C 
ATOM     12  C   UNL     1      14.063   9.065  19.860  0.00  0.00    +0.192 C 
ATOM     13  C   UNL     1      14.867   6.859  19.454  0.00  0.00    +0.130 C 
ATOM     14  C   UNL     1      13.086   9.910  19.078  0.00  0.00    +0.235 C 
ATOM     15  C   UNL     1      13.696   6.819  20.421  0.00  0.00    +0.185 C 
ATOM     16  C   UNL     1      12.594   8.940  18.027  0.00  0.00    +0.207 C 
ENDROOT
BRANCH  13   8
ATOM      4  O   UNL     1      17.320   5.732  18.471  0.00  0.00    -0.270 OA
ATOM      8  N   UNL     1      16.128   6.795  20.154  0.00  0.00    -0.304 N 
ATOM     17  C   UNL     1      17.264   6.228  19.593  0.00  0.00    +0.244 C 
ATOM     35  H   UNL     1      16.131   7.086  21.126  0.00  0.00    +0.149 HD
BRANCH  17  19
ATOM     19  C   UNL     1      18.476   6.216  20.453  0.00  0.00    +0.037 A 
ATOM     20  C   UNL     1      18.560   7.070  21.552  0.00  0.00    +0.015 A 
ATOM     21  C   UNL     1      19.530   5.350  20.161  0.00  0.00    +0.015 A 
ATOM     23  C   UNL     1      19.698   7.058  22.359  0.00  0.00    +0.024 A 
ATOM     24  C   UNL     1      20.667   5.338  20.967  0.00  0.00    +0.024 A 
ATOM     25  C   UNL     1      20.752   6.193  22.066  0.00  0.00    +0.029 A 
BRANCH  25  10
ATOM     10  N   UNL     1      21.903   6.183  22.881  0.00  0.00    -0.336 N 
ATOM     31  C   UNL     1      21.788   6.356  24.315  0.00  0.00    +0.129 C 
ATOM     32  C   UNL     1      23.217   6.013  22.293  0.00  0.00    +0.129 C 
ENDBRANCH  25  10
ENDBRANCH  17  19
ENDBRANCH  13   8
BRANCH  14   3
ATOM      3  O   UNL     1      12.032  10.422  19.863  0.00  0.00    -0.442 OA
BRANCH   3  18
ATOM      5  O   UNL     1      13.193  12.282  20.514  0.00  0.00    -0.226 OA
ATOM      9  N   UNL     1      11.580  11.293  21.893  0.00  0.00    -0.251 N 
ATOM     18  C   UNL     1      12.348  11.427  20.753  0.00  0.00    +0.405 C 
ATOM     36  H   UNL     1      10.927  10.513  21.907  0.00  0.00    +0.158 HD
BRANCH   9  22
ATOM     22  C   UNL     1      11.588  12.108  23.048  0.00  0.00    +0.043 A 
ATOM     26  C   UNL     1      10.763  13.231  23.114  0.00  0.00    +0.069 A 
ATOM     27  C   UNL     1      12.419  11.788  24.122  0.00  0.00    +0.069 A 
ATOM     28  C   UNL     1      12.426  12.592  25.261  0.00  0.00    +0.125 A 
ATOM     29  C   UNL     1      10.770  14.035  24.255  0.00  0.00    +0.125 A 
ATOM     30  C   UNL     1      11.601  13.715  25.328  0.00  0.00    +0.091 A 
BRANCH  28   6
ATOM      6  O   UNL     1      13.236  12.280  26.311  0.00  0.00    -0.495 OA
ATOM     33  C   UNL     1      14.641  12.434  26.115  0.00  0.00    +0.277 C 
ENDBRANCH  28   6
BRANCH  29   7
ATOM      7  O   UNL     1       9.964  15.130  24.320  0.00  0.00    -0.495 OA
ATOM     34  C   UNL     1       8.925  15.231  23.347  0.00  0.00    +0.277 C 
ENDBRANCH  29   7
ENDBRANCH   9  22
ENDBRANCH   3  18
ENDBRANCH  14   3
TORSDOF 8
ENDMDL
MODEL 7
REMARK VINA RESULT:      -6.6      3.611      7.171
REMARK  Name = 11867377
REMARK  12 active torsions:
REMARK  status: ('A' for Active; 'I' for Inactive)
REMARK    1  A    between atoms: O_3  and  C_14
REMARK    2  A    between atoms: O_3  and  C_18
REMARK    3  A    between atoms: O_6  and  C_28
REMARK    4  A    between atoms: O_6  and  C_33
REMARK    5  A    between atoms: O_7  and  C_29
REMARK    6  A    between atoms: O_7  and  C_34
REMARK    7  A    between atoms: N_8  and  C_13
REMARK    8  A    between atoms: N_9  and  C_22
REMARK    9  A    between atoms: N_10  and  C_25
REMARK   10  A    between atoms: N_10  and  C_31
REMARK   11  A    between atoms: N_10  and  C_32
REMARK   12  A    between atoms: C_17  and  C_19
REMARK                            x       y       z     vdW  Elec       q    Type
REMARK                         _______ _______ _______ _____ _____    ______ ____
ROOT
ATOM      1  O   UNL     1      19.819   6.198  20.373  0.00  0.00    -0.368 OA
ATOM      2  O   UNL     1      19.924   8.523  22.369  0.00  0.00    -0.368 OA
ATOM     11  C   UNL     1      20.038   7.098  22.556  0.00  0.00    +0.173 C 
ATOM     12  C   UNL     1      19.079   6.449  21.579  0.00  0.00    +0.192 C 
ATOM     13  C   UNL     1      21.397   6.621  22.100  0.00  0.00    +0.130 C 
ATOM     14  C   UNL     1      18.037   7.523  21.382  0.00  0.00    +0.235 C 
ATOM     15  C   UNL     1      21.207   6.492  20.598  0.00  0.00    +0.185 C 
ATOM     16  C   UNL     1      18.866   8.786  21.436  0.00  0.00    +0.207 C 
ENDROOT
BRANCH  13   8
ATOM      4  O   UNL     1      23.974   5.352  22.097  0.00  0.00    -0.270 OA
ATOM      8  N   UNL     1      21.733   5.351  22.697  0.00  0.00    -0.304 N 
ATOM     17  C   UNL     1      23.013   4.817  22.643  0.00  0.00    +0.244 C 
ATOM     35  H   UNL     1      20.968   4.800  23.072  0.00  0.00    +0.149 HD
BRANCH  17  19
ATOM     19  C   UNL     1      23.191   3.488  23.283  0.00  0.00    +0.037 A 
ATOM     20  C   UNL     1      23.843   2.464  22.596  0.00  0.00    +0.015 A 
ATOM     21  C   UNL     1      22.706   3.263  24.572  0.00  0.00    +0.015 A 
ATOM     23  C   UNL     1      24.010   1.216  23.198  0.00  0.00    +0.024 A 
ATOM     24  C   UNL     1      22.872   2.017  25.173  0.00  0.00    +0.024 A 
ATOM     25  C   UNL     1      23.524   0.993  24.486  0.00  0.00    +0.029 A 
BRANCH  25  10
ATOM     10  N   UNL     1      23.692  -0.269  25.092  0.00  0.00    -0.336 N 
ATOM     31  C   UNL     1      24.974  -0.943  25.045  0.00  0.00    +0.129 C 
ATOM     32  C   UNL     1      22.579  -0.916  25.760  0.00  0.00    +0.129 C 
ENDBRANCH  25  10
ENDBRANCH  17  19
ENDBRANCH  13   8
BRANCH  14   3
ATOM      3  O   UNL     1      17.328   7.405  20.168  0.00  0.00    -0.442 OA
BRANCH   3  18
ATOM      5  O   UNL     1      15.502   6.208  20.849  0.00  0.00    -0.226 OA
ATOM      9  N   UNL     1      15.287   8.174  19.596  0.00  0.00    -0.251 N 
ATOM     18  C   UNL     1      15.971   7.173  20.258  0.00  0.00    +0.405 C 
ATOM     36  H   UNL     1      15.856   8.897  19.162  0.00  0.00    +0.158 HD
BRANCH   9  22
ATOM     22  C   UNL     1      13.889   8.319  19.446  0.00  0.00    +0.043 A 
ATOM     26  C   UNL     1      13.277   7.979  18.239  0.00  0.00    +0.069 A 
ATOM     27  C   UNL     1      13.120   8.801  20.506  0.00  0.00    +0.069 A 
ATOM     28  C   UNL     1      11.741   8.943  20.359  0.00  0.00    +0.125 A 
ATOM     29  C   UNL     1      11.897   8.121  18.092  0.00  0.00    +0.125 A 
ATOM     30  C   UNL     1      11.130   8.603  19.152  0.00  0.00    +0.091 A 
BRANCH  28   6
ATOM      6  O   UNL     1      10.990   9.413  21.394  0.00  0.00    -0.495 OA
ATOM     33  C   UNL     1      10.701   8.501  22.452  0.00  0.00    +0.277 C 
ENDBRANCH  28   6
BRANCH  29   7
ATOM      7  O   UNL     1      11.301   7.788  16.915  0.00  0.00    -0.495 OA
ATOM     34  C   UNL     1      10.705   8.847  16.167  0.00  0.00    +0.277 C 
ENDBRANCH  29   7
ENDBRANCH   9  22
ENDBRANCH   3  18
ENDBRANCH  14   3
TORSDOF 8
ENDMDL
MODEL 8
REMARK VINA RESULT:      -6.6     27.651     31.505
REMARK  Name = 11867377
REMARK  12 active torsions:
REMARK  status: ('A' for Active; 'I' for Inactive)
REMARK    1  A    between atoms: O_3  and  C_14
REMARK    2  A    between atoms: O_3  and  C_18
REMARK    3  A    between atoms: O_6  and  C_28
REMARK    4  A    between atoms: O_6  and  C_33
REMARK    5  A    between atoms: O_7  and  C_29
REMARK    6  A    between atoms: O_7  and  C_34
REMARK    7  A    between atoms: N_8  and  C_13
REMARK    8  A    between atoms: N_9  and  C_22
REMARK    9  A    between atoms: N_10  and  C_25
REMARK   10  A    between atoms: N_10  and  C_31
REMARK   11  A    between atoms: N_10  and  C_32
REMARK   12  A    between atoms: C_17  and  C_19
REMARK                            x       y       z     vdW  Elec       q    Type
REMARK                         _______ _______ _______ _____ _____    ______ ____
ROOT
ATOM      1  O   UNL     1      -6.930 -11.689  16.962  0.00  0.00    -0.368 OA
ATOM      2  O   UNL     1      -6.692 -10.859  19.904  0.00  0.00    -0.368 OA
ATOM     11  C   UNL     1      -7.255 -10.181  18.763  0.00  0.00    +0.173 C 
ATOM     12  C   UNL     1      -6.374 -10.514  17.575  0.00  0.00    +0.192 C 
ATOM     13  C   UNL     1      -8.591 -10.788  18.405  0.00  0.00    +0.130 C 
ATOM     14  C   UNL     1      -5.043 -10.800  18.227  0.00  0.00    +0.235 C 
ATOM     15  C   UNL     1      -8.185 -12.002  17.587  0.00  0.00    +0.185 C 
ATOM     16  C   UNL     1      -5.456 -11.475  19.515  0.00  0.00    +0.207 C 
ENDROOT
BRANCH  13   8
ATOM      4  O   UNL     1     -11.086  -9.596  19.182  0.00  0.00    -0.270 OA
ATOM      8  N   UNL     1      -9.389  -9.873  17.624  0.00  0.00    -0.304 N 
ATOM     17  C   UNL     1     -10.587  -9.348  18.088  0.00  0.00    +0.244 C 
ATOM     35  H   UNL     1      -9.096  -9.705  16.668  0.00  0.00    +0.149 HD
BRANCH  17  19
ATOM     19  C   UNL     1     -11.303  -8.440  17.154  0.00  0.00    +0.037 A 
ATOM     20  C   UNL     1     -12.443  -8.885  16.484  0.00  0.00    +0.015 A 
ATOM     21  C   UNL     1     -10.836  -7.142  16.946  0.00  0.00    +0.015 A 
ATOM     23  C   UNL     1     -13.115  -8.033  15.608  0.00  0.00    +0.024 A 
ATOM     24  C   UNL     1     -11.507  -6.290  16.070  0.00  0.00    +0.024 A 
ATOM     25  C   UNL     1     -12.647  -6.736  15.401  0.00  0.00    +0.029 A 
BRANCH  25  10
ATOM     10  N   UNL     1     -13.325  -5.875  14.513  0.00  0.00    -0.336 N 
ATOM     31  C   UNL     1     -12.591  -4.903  13.728  0.00  0.00    +0.129 C 
ATOM     32  C   UNL     1     -14.768  -5.941  14.385  0.00  0.00    +0.129 C 
ENDBRANCH  25  10
ENDBRANCH  17  19
ENDBRANCH  13   8
BRANCH  14   3
ATOM      3  O   UNL     1      -4.198 -11.617  17.447  0.00  0.00    -0.442 OA
BRANCH   3  18
ATOM      5  O   UNL     1      -2.499 -10.446  16.459  0.00  0.00    -0.226 OA
ATOM      9  N   UNL     1      -4.354 -11.188  15.239  0.00  0.00    -0.251 N 
ATOM     18  C   UNL     1      -3.577 -11.021  16.368  0.00  0.00    +0.405 C 
ATOM     36  H   UNL     1      -5.225 -11.699  15.362  0.00  0.00    +0.158 HD
BRANCH   9  22
ATOM     22  C   UNL     1      -4.089 -10.734  13.926  0.00  0.00    +0.043 A 
ATOM     26  C   UNL     1      -5.137 -10.309  13.109  0.00  0.00    +0.069 A 
ATOM     27  C   UNL     1      -2.778 -10.712  13.448  0.00  0.00    +0.069 A 
ATOM     28  C   UNL     1      -2.516 -10.264  12.154  0.00  0.00    +0.125 A 
ATOM     29  C   UNL     1      -4.873  -9.860  11.815  0.00  0.00    +0.125 A 
ATOM     30  C   UNL     1      -3.563  -9.838  11.338  0.00  0.00    +0.091 A 
BRANCH  28   6
ATOM      6  O   UNL     1      -1.236 -10.240  11.687  0.00  0.00    -0.495 OA
ATOM     33  C   UNL     1      -0.769  -9.011  11.134  0.00  0.00    +0.277 C 
ENDBRANCH  28   6
BRANCH  29   7
ATOM      7  O   UNL     1      -5.895  -9.444  11.018  0.00  0.00    -0.495 OA
ATOM     34  C   UNL     1      -7.216  -9.820  11.407  0.00  0.00    +0.277 C 
ENDBRANCH  29   7
ENDBRANCH   9  22
ENDBRANCH   3  18
ENDBRANCH  14   3
TORSDOF 8
ENDMDL
MODEL 9
REMARK VINA RESULT:      -6.5      4.410      7.970
REMARK  Name = 11867377
REMARK  12 active torsions:
REMARK  status: ('A' for Active; 'I' for Inactive)
REMARK    1  A    between atoms: O_3  and  C_14
REMARK    2  A    between atoms: O_3  and  C_18
REMARK    3  A    between atoms: O_6  and  C_28
REMARK    4  A    between atoms: O_6  and  C_33
REMARK    5  A    between atoms: O_7  and  C_29
REMARK    6  A    between atoms: O_7  and  C_34
REMARK    7  A    between atoms: N_8  and  C_13
REMARK    8  A    between atoms: N_9  and  C_22
REMARK    9  A    between atoms: N_10  and  C_25
REMARK   10  A    between atoms: N_10  and  C_31
REMARK   11  A    between atoms: N_10  and  C_32
REMARK   12  A    between atoms: C_17  and  C_19
REMARK                            x       y       z     vdW  Elec       q    Type
REMARK                         _______ _______ _______ _____ _____    ______ ____
ROOT
ATOM      1  O   UNL     1      21.151   6.284  20.311  0.00  0.00    -0.368 OA
ATOM      2  O   UNL     1      19.983   7.252  22.976  0.00  0.00    -0.368 OA
ATOM     11  C   UNL     1      20.593   6.001  22.599  0.00  0.00    +0.173 C 
ATOM     12  C   UNL     1      20.156   5.711  21.176  0.00  0.00    +0.192 C 
ATOM     13  C   UNL     1      22.091   6.164  22.491  0.00  0.00    +0.130 C 
ATOM     14  C   UNL     1      18.842   6.448  21.082  0.00  0.00    +0.235 C 
ATOM     15  C   UNL     1      22.252   6.757  21.102  0.00  0.00    +0.185 C 
ATOM     16  C   UNL     1      19.102   7.675  21.925  0.00  0.00    +0.207 C 
ENDROOT
BRANCH  13   8
ATOM      4  O   UNL     1      22.419   4.596  24.876  0.00  0.00    -0.270 OA
ATOM      8  N   UNL     1      22.765   4.893  22.601  0.00  0.00    -0.304 N 
ATOM     17  C   UNL     1      22.873   4.207  23.803  0.00  0.00    +0.244 C 
ATOM     35  H   UNL     1      23.258   4.559  21.779  0.00  0.00    +0.149 HD
BRANCH  17  19
ATOM     19  C   UNL     1      23.619   2.923  23.754  0.00  0.00    +0.037 A 
ATOM     20  C   UNL     1      24.376   2.599  22.628  0.00  0.00    +0.015 A 
ATOM     21  C   UNL     1      23.564   2.043  24.834  0.00  0.00    +0.015 A 
ATOM     23  C   UNL     1      25.078   1.394  22.583  0.00  0.00    +0.024 A 
ATOM     24  C   UNL     1      24.264   0.838  24.789  0.00  0.00    +0.024 A 
ATOM     25  C   UNL     1      25.021   0.514  23.663  0.00  0.00    +0.029 A 
BRANCH  25  10
ATOM     10  N   UNL     1      25.729  -0.705  23.616  0.00  0.00    -0.336 N 
ATOM     31  C   UNL     1      25.717  -1.606  24.752  0.00  0.00    +0.129 C 
ATOM     32  C   UNL     1      26.490  -1.068  22.437  0.00  0.00    +0.129 C 
ENDBRANCH  25  10
ENDBRANCH  17  19
ENDBRANCH  13   8
BRANCH  14   3
ATOM      3  O   UNL     1      18.475   6.779  19.761  0.00  0.00    -0.442 OA
BRANCH   3  18
ATOM      5  O   UNL     1      17.035   5.311  18.760  0.00  0.00    -0.226 OA
ATOM      9  N   UNL     1      16.291   7.333  19.677  0.00  0.00    -0.251 N 
ATOM     18  C   UNL     1      17.226   6.374  19.340  0.00  0.00    +0.405 C 
ATOM     36  H   UNL     1      16.644   8.155  20.161  0.00  0.00    +0.158 HD
BRANCH   9  22
ATOM     22  C   UNL     1      14.899   7.315  19.432  0.00  0.00    +0.043 A 
ATOM     26  C   UNL     1      14.021   6.880  20.424  0.00  0.00    +0.069 A 
ATOM     27  C   UNL     1      14.403   7.735  18.197  0.00  0.00    +0.069 A 
ATOM     28  C   UNL     1      13.030   7.718  17.955  0.00  0.00    +0.125 A 
ATOM     29  C   UNL     1      12.647   6.864  20.182  0.00  0.00    +0.125 A 
ATOM     30  C   UNL     1      12.152   7.283  18.947  0.00  0.00    +0.091 A 
BRANCH  28   6
ATOM      6  O   UNL     1      12.545   8.129  16.750  0.00  0.00    -0.495 OA
ATOM     33  C   UNL     1      12.812   9.477  16.367  0.00  0.00    +0.277 C 
ENDBRANCH  28   6
BRANCH  29   7
ATOM      7  O   UNL     1      11.791   6.440  21.151  0.00  0.00    -0.495 OA
ATOM     34  C   UNL     1      11.022   7.439  21.820  0.00  0.00    +0.277 C 
ENDBRANCH  29   7
ENDBRANCH   9  22
ENDBRANCH   3  18
ENDBRANCH  14   3
TORSDOF 8
ENDMDL
MODEL 10
REMARK VINA RESULT:      -6.4     27.816     31.603
REMARK  Name = 11867377
REMARK  12 active torsions:
REMARK  status: ('A' for Active; 'I' for Inactive)
REMARK    1  A    between atoms: O_3  and  C_14
REMARK    2  A    between atoms: O_3  and  C_18
REMARK    3  A    between atoms: O_6  and  C_28
REMARK    4  A    between atoms: O_6  and  C_33
REMARK    5  A    between atoms: O_7  and  C_29
REMARK    6  A    between atoms: O_7  and  C_34
REMARK    7  A    between atoms: N_8  and  C_13
REMARK    8  A    between atoms: N_9  and  C_22
REMARK    9  A    between atoms: N_10  and  C_25
REMARK   10  A    between atoms: N_10  and  C_31
REMARK   11  A    between atoms: N_10  and  C_32
REMARK   12  A    between atoms: C_17  and  C_19
REMARK                            x       y       z     vdW  Elec       q    Type
REMARK                         _______ _______ _______ _____ _____    ______ ____
ROOT
ATOM      1  O   UNL     1      -7.296 -12.218  17.560  0.00  0.00    -0.368 OA
ATOM      2  O   UNL     1      -6.122 -10.739  19.975  0.00  0.00    -0.368 OA
ATOM     11  C   UNL     1      -6.885 -10.268  18.845  0.00  0.00    +0.173 C 
ATOM     12  C   UNL     1      -6.431 -11.073  17.643  0.00  0.00    +0.192 C 
ATOM     13  C   UNL     1      -8.338 -10.644  19.005  0.00  0.00    +0.130 C 
ATOM     14  C   UNL     1      -5.023 -11.464  18.025  0.00  0.00    +0.235 C 
ATOM     15  C   UNL     1      -8.354 -12.084  18.522  0.00  0.00    +0.185 C 
ATOM     16  C   UNL     1      -5.146 -11.684  19.515  0.00  0.00    +0.207 C 
ENDROOT
BRANCH  13   8
ATOM      4  O   UNL     1     -11.072  -9.943  19.539  0.00  0.00    -0.270 OA
ATOM      8  N   UNL     1      -9.188  -9.808  18.192  0.00  0.00    -0.304 N 
ATOM     17  C   UNL     1     -10.503  -9.525  18.534  0.00  0.00    +0.244 C 
ATOM     35  H   UNL     1      -8.822  -9.515  17.292  0.00  0.00    +0.149 HD
BRANCH  17  19
ATOM     19  C   UNL     1     -11.254  -8.670  17.578  0.00  0.00    +0.037 A 
ATOM     20  C   UNL     1     -12.559  -9.006  17.218  0.00  0.00    +0.015 A 
ATOM     21  C   UNL     1     -10.654  -7.531  17.042  0.00  0.00    +0.015 A 
ATOM     23  C   UNL     1     -13.263  -8.202  16.321  0.00  0.00    +0.024 A 
ATOM     24  C   UNL     1     -11.358  -6.728  16.145  0.00  0.00    +0.024 A 
ATOM     25  C   UNL     1     -12.663  -7.064  15.785  0.00  0.00    +0.029 A 
BRANCH  25  10
ATOM     10  N   UNL     1     -13.375  -6.253  14.877  0.00  0.00    -0.336 N 
ATOM     31  C   UNL     1     -12.679  -5.277  14.063  0.00  0.00    +0.129 C 
ATOM     32  C   UNL     1     -14.814  -6.376  14.755  0.00  0.00    +0.129 C 
ENDBRANCH  25  10
ENDBRANCH  17  19
ENDBRANCH  13   8
BRANCH  14   3
ATOM      3  O   UNL     1      -4.557 -12.613  17.354  0.00  0.00    -0.442 OA
BRANCH   3  18
ATOM      5  O   UNL     1      -4.937 -13.489  15.275  0.00  0.00    -0.226 OA
ATOM      9  N   UNL     1      -4.011 -11.358  15.563  0.00  0.00    -0.251 N 
ATOM     18  C   UNL     1      -4.536 -12.566  15.976  0.00  0.00    +0.405 C 
ATOM     36  H   UNL     1      -3.731 -10.713  16.298  0.00  0.00    +0.158 HD
BRANCH   9  22
ATOM     22  C   UNL     1      -3.813 -10.902  14.239  0.00  0.00    +0.043 A 
ATOM     26  C   UNL     1      -2.520 -10.750  13.739  0.00  0.00    +0.069 A 
ATOM     27  C   UNL     1      -4.912 -10.607  13.432  0.00  0.00    +0.069 A 
ATOM     28  C   UNL     1      -4.718 -10.159  12.126  0.00  0.00    +0.125 A 
ATOM     29  C   UNL     1      -2.325 -10.302  12.432  0.00  0.00    +0.125 A 
ATOM     30  C   UNL     1      -3.424 -10.006  11.626  0.00  0.00    +0.091 A 
BRANCH  28   6
ATOM      6  O   UNL     1      -5.790  -9.871  11.337  0.00  0.00    -0.495 OA
ATOM     33  C   UNL     1      -5.837  -8.569  10.755  0.00  0.00    +0.277 C 
ENDBRANCH  28   6
BRANCH  29   7
ATOM      7  O   UNL     1      -1.064 -10.154  11.944  0.00  0.00    -0.495 OA
ATOM     34  C   UNL     1      -0.824  -9.036  11.091  0.00  0.00    +0.277 C 
ENDBRANCH  29   7
ENDBRANCH   9  22
ENDBRANCH   3  18
ENDBRANCH  14   3
TORSDOF 8
ENDMDL
