REMARK  Name = 45783564
REMARK  9 active torsions:
REMARK  status: ('A' for Active; 'I' for Inactive)
REMARK    1  A    between atoms: O_3  and  C_24
REMARK    2  A    between atoms: O_3  and  C_25
REMARK    3  A    between atoms: O_4  and  C_26
REMARK    4  A    between atoms: O_4  and  C_27
REMARK    5  A    between atoms: N_5  and  C_13
REMARK    6  A    between atoms: C_9  and  C_14
REMARK    7  A    between atoms: C_13  and  C_15
REMARK    8  A    between atoms: C_17  and  C_19
REMARK    9  A    between atoms: C_25  and  C_26
REMARK                            x       y       z     vdW  Elec       q    Type
REMARK                         _______ _______ _______ _____ _____    ______ ____
ROOT
ATOM      2  O   UNL     1      -2.395   0.170  -1.989  0.00  0.00    -0.336 OA
ATOM      6  N   UNL     1      -1.275   0.984  -0.228  0.00  0.00    -0.190 NA
ATOM      7  N   UNL     1      -1.042  -0.101  -2.229  0.00  0.00    -0.056 NA
ATOM     14  C   UNL     1      -2.444   0.810  -0.791  0.00  0.00    +0.245 A 
ATOM     17  C   UNL     1      -0.446   0.409  -1.147  0.00  0.00    +0.204 A 
ENDROOT
BRANCH  17  19
ATOM      8  N   UNL     1       2.892   0.894   0.420  0.00  0.00    -0.221 NA
ATOM     19  C   UNL     1       0.975   0.363  -0.954  0.00  0.00    +0.041 A 
ATOM     21  C   UNL     1       1.807  -0.226  -1.900  0.00  0.00    +0.018 A 
ATOM     22  C   UNL     1       1.562   0.904   0.178  0.00  0.00    +0.126 A 
ATOM     23  C   UNL     1       3.180  -0.256  -1.687  0.00  0.00    +0.068 A 
ATOM     24  C   UNL     1       3.669   0.312  -0.522  0.00  0.00    +0.215 A 
BRANCH  24   3
ATOM      3  O   UNL     1       5.019   0.296  -0.289  0.00  0.00    -0.474 OA
BRANCH   3  25
ATOM     25  C   UNL     1       5.467   0.893   0.922  0.00  0.00    +0.258 C 
BRANCH  25  26
ATOM     26  C   UNL     1       6.974   0.757   1.013  0.00  0.00    +0.200 C 
BRANCH  26   4
ATOM      4  O   UNL     1       7.316  -0.624   1.019  0.00  0.00    -0.380 OA
ATOM     27  C   UNL     1       8.723  -0.811   1.081  0.00  0.00    +0.194 C 
ENDBRANCH  26   4
ENDBRANCH  25  26
ENDBRANCH   3  25
ENDBRANCH  24   3
ENDBRANCH  17  19
BRANCH  14   9
ATOM      5  N   UNL     1      -4.136   0.646   1.026  0.00  0.00    -0.287 NA
ATOM      9  C   UNL     1      -3.817   1.215  -0.298  0.00  0.00    +0.146 C 
ATOM     10  C   UNL     1      -3.958   2.737  -0.114  0.00  0.00    +0.030 C 
ATOM     11  C   UNL     1      -4.416   2.923   1.325  0.00  0.00    +0.017 C 
ATOM     12  C   UNL     1      -5.047   1.590   1.673  0.00  0.00    +0.085 C 
BRANCH   5  13
ATOM     13  C   UNL     1      -4.698  -0.697   0.954  0.00  0.00    +0.127 C 
BRANCH  13  15
ATOM      1  S   UNL     1      -3.704  -2.760  -0.624  0.00  0.00    -0.100 S 
ATOM     15  C   UNL     1      -3.632  -1.741   0.750  0.00  0.00    +0.004 A 
ATOM     16  C   UNL     1      -2.543  -2.021   1.546  0.00  0.00    +0.012 A 
ATOM     18  C   UNL     1      -1.756  -3.086   1.020  0.00  0.00    +0.008 A 
ATOM     20  C   UNL     1      -2.274  -3.579  -0.157  0.00  0.00    +0.045 A 
ENDBRANCH  13  15
ENDBRANCH   5  13
ENDBRANCH  14   9
TORSDOF 8
