MODEL 1
REMARK VINA RESULT:      -6.5      0.000      0.000
REMARK  Name = 75536970
REMARK  2 active torsions:
REMARK  status: ('A' for Active; 'I' for Inactive)
REMARK    1  A    between atoms: N_5  and  C_12
REMARK    2  A    between atoms: C_13  and  C_16
REMARK                            x       y       z     vdW  Elec       q    Type
REMARK                         _______ _______ _______ _____ _____    ______ ____
ROOT
ATOM      1  O   UNL     1      12.994   6.539  20.767  0.00  0.00    -0.252 OA
ATOM      2  O   UNL     1      10.298  11.920  24.213  0.00  0.00    -0.276 OA
ATOM      3  N   UNL     1      12.927   8.508  22.014  0.00  0.00    -0.278 N 
ATOM      4  N   UNL     1      11.958  10.963  22.902  0.00  0.00    -0.298 N 
ATOM      5  N   UNL     1      14.943   7.858  21.207  0.00  0.00    -0.254 N 
ATOM      6  C   UNL     1      13.864   9.447  22.588  0.00  0.00    +0.113 C 
ATOM      7  C   UNL     1      13.356  10.878  22.438  0.00  0.00    +0.132 C 
ATOM      8  C   UNL     1      15.163   9.149  21.849  0.00  0.00    +0.139 C 
ATOM      9  C   UNL     1      11.519   8.592  22.365  0.00  0.00    +0.128 C 
ATOM     10  C   UNL     1      11.034  10.033  22.234  0.00  0.00    +0.127 C 
ATOM     11  C   UNL     1      13.561   7.503  21.265  0.00  0.00    +0.309 C 
ATOM     13  C   UNL     1      11.479  11.849  23.863  0.00  0.00    +0.213 C 
ATOM     16  C   UNL     1      12.493  12.765  24.501  0.00  0.00    +0.109 C 
ENDROOT
BRANCH   5  12
ATOM     12  C   UNL     1      15.988   7.139  20.559  0.00  0.00    +0.038 A 
ATOM     14  C   UNL     1      15.780   6.598  19.291  0.00  0.00    +0.023 A 
ATOM     15  C   UNL     1      17.220   6.976  21.193  0.00  0.00    +0.023 A 
ATOM     17  C   UNL     1      16.803   5.893  18.656  0.00  0.00    +0.002 A 
ATOM     18  C   UNL     1      18.243   6.272  20.559  0.00  0.00    +0.002 A 
ATOM     19  C   UNL     1      18.035   5.730  19.290  0.00  0.00    +0.000 A 
ENDBRANCH   5  12
TORSDOF 1
ENDMDL
MODEL 2
REMARK VINA RESULT:      -6.3      2.696      3.952
REMARK  Name = 75536970
REMARK  2 active torsions:
REMARK  status: ('A' for Active; 'I' for Inactive)
REMARK    1  A    between atoms: N_5  and  C_12
REMARK    2  A    between atoms: C_13  and  C_16
REMARK                            x       y       z     vdW  Elec       q    Type
REMARK                         _______ _______ _______ _____ _____    ______ ____
ROOT
ATOM      1  O   UNL     1      16.724   5.814  18.250  0.00  0.00    -0.252 OA
ATOM      2  O   UNL     1      10.421   8.497  19.337  0.00  0.00    -0.276 OA
ATOM      3  N   UNL     1      14.950   6.802  19.398  0.00  0.00    -0.278 N 
ATOM      4  N   UNL     1      12.698   8.394  19.780  0.00  0.00    -0.298 N 
ATOM      5  N   UNL     1      16.944   6.686  20.468  0.00  0.00    -0.254 N 
ATOM      6  C   UNL     1      14.671   7.282  20.731  0.00  0.00    +0.113 C 
ATOM      7  C   UNL     1      13.852   8.570  20.681  0.00  0.00    +0.132 C 
ATOM      8  C   UNL     1      16.054   7.428  21.354  0.00  0.00    +0.139 C 
ATOM      9  C   UNL     1      13.869   6.687  18.433  0.00  0.00    +0.128 C 
ATOM     10  C   UNL     1      13.047   7.972  18.415  0.00  0.00    +0.127 C 
ATOM     11  C   UNL     1      16.275   6.357  19.251  0.00  0.00    +0.309 C 
ATOM     13  C   UNL     1      11.367   8.624  20.119  0.00  0.00    +0.213 C 
ATOM     16  C   UNL     1      11.097   9.050  21.540  0.00  0.00    +0.109 C 
ENDROOT
BRANCH   5  12
ATOM     12  C   UNL     1      18.306   6.427  20.797  0.00  0.00    +0.038 A 
ATOM     14  C   UNL     1      18.938   7.175  21.790  0.00  0.00    +0.023 A 
ATOM     15  C   UNL     1      19.007   5.425  20.126  0.00  0.00    +0.023 A 
ATOM     17  C   UNL     1      20.272   6.922  22.112  0.00  0.00    +0.002 A 
ATOM     18  C   UNL     1      20.341   5.172  20.447  0.00  0.00    +0.002 A 
ATOM     19  C   UNL     1      20.973   5.921  21.440  0.00  0.00    +0.000 A 
ENDBRANCH   5  12
TORSDOF 1
ENDMDL
MODEL 3
REMARK VINA RESULT:      -6.1      3.177      7.171
REMARK  Name = 75536970
REMARK  2 active torsions:
REMARK  status: ('A' for Active; 'I' for Inactive)
REMARK    1  A    between atoms: N_5  and  C_12
REMARK    2  A    between atoms: C_13  and  C_16
REMARK                            x       y       z     vdW  Elec       q    Type
REMARK                         _______ _______ _______ _____ _____    ______ ____
ROOT
ATOM      1  O   UNL     1      10.477   9.019  22.646  0.00  0.00    -0.252 OA
ATOM      2  O   UNL     1      13.737   7.411  16.740  0.00  0.00    -0.276 OA
ATOM      3  N   UNL     1      11.676   9.331  20.671  0.00  0.00    -0.278 N 
ATOM      4  N   UNL     1      13.471   8.738  18.627  0.00  0.00    -0.298 N 
ATOM      5  N   UNL     1      11.458  11.118  22.047  0.00  0.00    -0.254 N 
ATOM      6  C   UNL     1      12.257  10.428  19.931  0.00  0.00    +0.113 C 
ATOM      7  C   UNL     1      13.603  10.024  19.335  0.00  0.00    +0.132 C 
ATOM      8  C   UNL     1      12.324  11.553  20.957  0.00  0.00    +0.139 C 
ATOM      9  C   UNL     1      11.594   8.015  20.060  0.00  0.00    +0.128 C 
ATOM     10  C   UNL     1      12.940   7.639  19.448  0.00  0.00    +0.127 C 
ATOM     11  C   UNL     1      11.114   9.742  21.891  0.00  0.00    +0.309 C 
ATOM     13  C   UNL     1      13.831   8.505  17.301  0.00  0.00    +0.213 C 
ATOM     16  C   UNL     1      14.363   9.686  16.530  0.00  0.00    +0.109 C 
ENDROOT
BRANCH   5  12
ATOM     12  C   UNL     1      11.107  11.974  23.131  0.00  0.00    +0.038 A 
ATOM     14  C   UNL     1      10.575  13.238  22.876  0.00  0.00    +0.023 A 
ATOM     15  C   UNL     1      11.293  11.548  24.445  0.00  0.00    +0.023 A 
ATOM     17  C   UNL     1      10.231  14.077  23.937  0.00  0.00    +0.002 A 
ATOM     18  C   UNL     1      10.949  12.386  25.506  0.00  0.00    +0.002 A 
ATOM     19  C   UNL     1      10.418  13.651  25.252  0.00  0.00    +0.000 A 
ENDBRANCH   5  12
TORSDOF 1
ENDMDL
MODEL 4
REMARK VINA RESULT:      -5.9      2.913      5.067
REMARK  Name = 75536970
REMARK  2 active torsions:
REMARK  status: ('A' for Active; 'I' for Inactive)
REMARK    1  A    between atoms: N_5  and  C_12
REMARK    2  A    between atoms: C_13  and  C_16
REMARK                            x       y       z     vdW  Elec       q    Type
REMARK                         _______ _______ _______ _____ _____    ______ ____
ROOT
ATOM      1  O   UNL     1      18.991   8.601  22.362  0.00  0.00    -0.252 OA
ATOM      2  O   UNL     1      12.252   8.545  20.726  0.00  0.00    -0.276 OA
ATOM      3  N   UNL     1      17.037   8.046  21.217  0.00  0.00    -0.278 N 
ATOM      4  N   UNL     1      14.329   7.514  20.853  0.00  0.00    -0.298 N 
ATOM      5  N   UNL     1      18.911   6.881  20.700  0.00  0.00    -0.254 N 
ATOM      6  C   UNL     1      16.647   7.216  20.101  0.00  0.00    +0.113 C 
ATOM      7  C   UNL     1      15.315   6.525  20.381  0.00  0.00    +0.132 C 
ATOM      8  C   UNL     1      17.832   6.274  19.928  0.00  0.00    +0.139 C 
ATOM      9  C   UNL     1      16.082   8.983  21.785  0.00  0.00    +0.128 C 
ATOM     10  C   UNL     1      14.749   8.282  22.035  0.00  0.00    +0.127 C 
ATOM     11  C   UNL     1      18.402   7.927  21.527  0.00  0.00    +0.309 C 
ATOM     13  C   UNL     1      13.071   7.730  20.294  0.00  0.00    +0.213 C 
ATOM     16  C   UNL     1      12.721   6.904  19.083  0.00  0.00    +0.109 C 
ENDROOT
BRANCH   5  12
ATOM     12  C   UNL     1      20.250   6.398  20.652  0.00  0.00    +0.038 A 
ATOM     14  C   UNL     1      20.500   5.027  20.715  0.00  0.00    +0.023 A 
ATOM     15  C   UNL     1      21.312   7.295  20.539  0.00  0.00    +0.023 A 
ATOM     17  C   UNL     1      21.812   4.554  20.668  0.00  0.00    +0.002 A 
ATOM     18  C   UNL     1      22.623   6.823  20.493  0.00  0.00    +0.002 A 
ATOM     19  C   UNL     1      22.873   5.452  20.557  0.00  0.00    +0.000 A 
ENDBRANCH   5  12
TORSDOF 1
ENDMDL
MODEL 5
REMARK VINA RESULT:      -5.9      6.574     10.879
REMARK  Name = 75536970
REMARK  2 active torsions:
REMARK  status: ('A' for Active; 'I' for Inactive)
REMARK    1  A    between atoms: N_5  and  C_12
REMARK    2  A    between atoms: C_13  and  C_16
REMARK                            x       y       z     vdW  Elec       q    Type
REMARK                         _______ _______ _______ _____ _____    ______ ____
ROOT
ATOM      1  O   UNL     1      21.948   7.292  20.114  0.00  0.00    -0.252 OA
ATOM      2  O   UNL     1      26.615   2.289  21.248  0.00  0.00    -0.276 OA
ATOM      3  N   UNL     1      22.795   5.209  20.733  0.00  0.00    -0.278 N 
ATOM      4  N   UNL     1      24.478   2.992  20.673  0.00  0.00    -0.298 N 
ATOM      5  N   UNL     1      20.541   5.425  20.629  0.00  0.00    -0.254 N 
ATOM      6  C   UNL     1      22.290   3.953  21.237  0.00  0.00    +0.113 C 
ATOM      7  C   UNL     1      23.021   2.779  20.592  0.00  0.00    +0.132 C 
ATOM      8  C   UNL     1      20.798   4.022  20.933  0.00  0.00    +0.139 C 
ATOM      9  C   UNL     1      24.228   5.449  20.706  0.00  0.00    +0.128 C 
ATOM     10  C   UNL     1      24.945   4.256  20.081  0.00  0.00    +0.127 C 
ATOM     11  C   UNL     1      21.770   6.129  20.454  0.00  0.00    +0.309 C 
ATOM     13  C   UNL     1      25.396   2.099  21.219  0.00  0.00    +0.213 C 
ATOM     16  C   UNL     1      24.834   0.830  21.807  0.00  0.00    +0.109 C 
ENDROOT
BRANCH   5  12
ATOM     12  C   UNL     1      19.224   5.942  20.464  0.00  0.00    +0.038 A 
ATOM     14  C   UNL     1      18.430   5.500  19.406  0.00  0.00    +0.023 A 
ATOM     15  C   UNL     1      18.728   6.888  21.361  0.00  0.00    +0.023 A 
ATOM     17  C   UNL     1      17.139   6.007  19.244  0.00  0.00    +0.002 A 
ATOM     18  C   UNL     1      17.439   7.394  21.199  0.00  0.00    +0.002 A 
ATOM     19  C   UNL     1      16.644   6.953  20.140  0.00  0.00    +0.000 A 
ENDBRANCH   5  12
TORSDOF 1
ENDMDL
MODEL 6
REMARK VINA RESULT:      -5.8     26.937     28.456
REMARK  Name = 75536970
REMARK  2 active torsions:
REMARK  status: ('A' for Active; 'I' for Inactive)
REMARK    1  A    between atoms: N_5  and  C_12
REMARK    2  A    between atoms: C_13  and  C_16
REMARK                            x       y       z     vdW  Elec       q    Type
REMARK                         _______ _______ _______ _____ _____    ______ ____
ROOT
ATOM      1  O   UNL     1      -4.073 -12.149  18.472  0.00  0.00    -0.252 OA
ATOM      2  O   UNL     1     -10.622 -10.983  20.436  0.00  0.00    -0.276 OA
ATOM      3  N   UNL     1      -6.209 -11.214  18.470  0.00  0.00    -0.278 N 
ATOM      4  N   UNL     1      -8.970 -11.099  18.807  0.00  0.00    -0.298 N 
ATOM      5  N   UNL     1      -4.858 -10.721  16.719  0.00  0.00    -0.254 N 
ATOM      6  C   UNL     1      -6.951 -10.237  17.707  0.00  0.00    +0.113 C 
ATOM      7  C   UNL     1      -8.396 -10.688  17.512  0.00  0.00    +0.132 C 
ATOM      8  C   UNL     1      -6.145 -10.104  16.421  0.00  0.00    +0.139 C 
ATOM      9  C   UNL     1      -6.760 -11.724  19.714  0.00  0.00    +0.128 C 
ATOM     10  C   UNL     1      -8.212 -12.146  19.508  0.00  0.00    +0.127 C 
ATOM     11  C   UNL     1      -4.925 -11.445  17.948  0.00  0.00    +0.309 C 
ATOM     13  C   UNL     1     -10.147 -10.602  19.363  0.00  0.00    +0.213 C 
ATOM     16  C   UNL     1     -10.861  -9.528  18.581  0.00  0.00    +0.109 C 
ENDROOT
BRANCH   5  12
ATOM     12  C   UNL     1      -3.749 -10.644  15.828  0.00  0.00    +0.038 A 
ATOM     14  C   UNL     1      -2.455 -10.522  16.334  0.00  0.00    +0.023 A 
ATOM     15  C   UNL     1      -3.957 -10.692  14.450  0.00  0.00    +0.023 A 
ATOM     17  C   UNL     1      -1.369 -10.445  15.461  0.00  0.00    +0.002 A 
ATOM     18  C   UNL     1      -2.871 -10.616  13.577  0.00  0.00    +0.002 A 
ATOM     19  C   UNL     1      -1.577 -10.492  14.083  0.00  0.00    +0.000 A 
ENDBRANCH   5  12
TORSDOF 1
ENDMDL
MODEL 7
REMARK VINA RESULT:      -5.8     29.929     31.221
REMARK  Name = 75536970
REMARK  2 active torsions:
REMARK  status: ('A' for Active; 'I' for Inactive)
REMARK    1  A    between atoms: N_5  and  C_12
REMARK    2  A    between atoms: C_13  and  C_16
REMARK                            x       y       z     vdW  Elec       q    Type
REMARK                         _______ _______ _______ _____ _____    ______ ____
ROOT
ATOM      1  O   UNL     1     -15.919   6.568  31.488  0.00  0.00    -0.252 OA
ATOM      2  O   UNL     1     -16.099   0.337  28.448  0.00  0.00    -0.276 OA
ATOM      3  N   UNL     1     -15.240   4.415  30.901  0.00  0.00    -0.278 N 
ATOM      4  N   UNL     1     -15.504   1.732  30.206  0.00  0.00    -0.298 N 
ATOM      5  N   UNL     1     -14.062   5.469  32.525  0.00  0.00    -0.254 N 
ATOM      6  C   UNL     1     -14.137   3.525  31.180  0.00  0.00    +0.113 C 
ATOM      7  C   UNL     1     -14.629   2.089  31.338  0.00  0.00    +0.132 C 
ATOM      8  C   UNL     1     -13.504   4.126  32.429  0.00  0.00    +0.139 C 
ATOM      9  C   UNL     1     -16.189   4.079  29.853  0.00  0.00    +0.128 C 
ATOM     10  C   UNL     1     -16.651   2.633  30.012  0.00  0.00    +0.127 C 
ATOM     11  C   UNL     1     -15.161   5.617  31.626  0.00  0.00    +0.309 C 
ATOM     13  C   UNL     1     -15.335   0.630  29.372  0.00  0.00    +0.213 C 
ATOM     16  C   UNL     1     -14.132  -0.239  29.638  0.00  0.00    +0.109 C 
ENDROOT
BRANCH   5  12
ATOM     12  C   UNL     1     -13.586   6.429  33.464  0.00  0.00    +0.038 A 
ATOM     14  C   UNL     1     -13.025   7.624  33.016  0.00  0.00    +0.023 A 
ATOM     15  C   UNL     1     -13.683   6.174  34.832  0.00  0.00    +0.023 A 
ATOM     17  C   UNL     1     -12.558   8.564  33.935  0.00  0.00    +0.002 A 
ATOM     18  C   UNL     1     -13.216   7.114  35.751  0.00  0.00    +0.002 A 
ATOM     19  C   UNL     1     -12.654   8.309  35.303  0.00  0.00    +0.000 A 
ENDBRANCH   5  12
TORSDOF 1
ENDMDL
MODEL 8
REMARK VINA RESULT:      -5.8     17.079     18.936
REMARK  Name = 75536970
REMARK  2 active torsions:
REMARK  status: ('A' for Active; 'I' for Inactive)
REMARK    1  A    between atoms: N_5  and  C_12
REMARK    2  A    between atoms: C_13  and  C_16
REMARK                            x       y       z     vdW  Elec       q    Type
REMARK                         _______ _______ _______ _____ _____    ______ ____
ROOT
ATOM      1  O   UNL     1      10.038   7.139   1.658  0.00  0.00    -0.252 OA
ATOM      2  O   UNL     1       8.550   7.550   8.419  0.00  0.00    -0.276 OA
ATOM      3  N   UNL     1       9.784   6.456   3.873  0.00  0.00    -0.278 N 
ATOM      4  N   UNL     1       9.769   6.672   6.649  0.00  0.00    -0.298 N 
ATOM      5  N   UNL     1      10.809   5.017   2.454  0.00  0.00    -0.254 N 
ATOM      6  C   UNL     1       9.974   5.255   4.653  0.00  0.00    +0.113 C 
ATOM      7  C   UNL     1      10.552   5.589   6.026  0.00  0.00    +0.132 C 
ATOM      8  C   UNL     1      10.873   4.397   3.772  0.00  0.00    +0.139 C 
ATOM      9  C   UNL     1       9.094   7.593   4.459  0.00  0.00    +0.128 C 
ATOM     10  C   UNL     1       9.667   7.896   5.840  0.00  0.00    +0.127 C 
ATOM     11  C   UNL     1      10.191   6.301   2.537  0.00  0.00    +0.309 C 
ATOM     13  C   UNL     1       9.177   6.618   7.909  0.00  0.00    +0.213 C 
ATOM     16  C   UNL     1       9.326   5.325   8.669  0.00  0.00    +0.109 C 
ENDROOT
BRANCH   5  12
ATOM     12  C   UNL     1      11.376   4.411   1.296  0.00  0.00    +0.038 A 
ATOM     14  C   UNL     1      12.615   3.777   1.377  0.00  0.00    +0.023 A 
ATOM     15  C   UNL     1      10.690   4.449   0.082  0.00  0.00    +0.023 A 
ATOM     17  C   UNL     1      13.171   3.183   0.242  0.00  0.00    +0.002 A 
ATOM     18  C   UNL     1      11.244   3.855  -1.052  0.00  0.00    +0.002 A 
ATOM     19  C   UNL     1      12.485   3.222  -0.972  0.00  0.00    +0.000 A 
ENDBRANCH   5  12
TORSDOF 1
ENDMDL
MODEL 9
REMARK VINA RESULT:      -5.8     27.654     28.395
REMARK  Name = 75536970
REMARK  2 active torsions:
REMARK  status: ('A' for Active; 'I' for Inactive)
REMARK    1  A    between atoms: N_5  and  C_12
REMARK    2  A    between atoms: C_13  and  C_16
REMARK                            x       y       z     vdW  Elec       q    Type
REMARK                         _______ _______ _______ _____ _____    ______ ____
ROOT
ATOM      1  O   UNL     1      -7.641  -9.590  13.401  0.00  0.00    -0.252 OA
ATOM      2  O   UNL     1      -6.399 -11.347  19.994  0.00  0.00    -0.276 OA
ATOM      3  N   UNL     1      -6.477 -10.400  15.252  0.00  0.00    -0.278 N 
ATOM      4  N   UNL     1      -5.689 -10.594  17.916  0.00  0.00    -0.298 N 
ATOM      5  N   UNL     1      -5.313 -10.142  13.325  0.00  0.00    -0.254 N 
ATOM      6  C   UNL     1      -5.175 -10.955  15.541  0.00  0.00    +0.113 C 
ATOM      7  C   UNL     1      -4.652 -10.438  16.879  0.00  0.00    +0.132 C 
ATOM      8  C   UNL     1      -4.341 -10.555  14.331  0.00  0.00    +0.139 C 
ATOM      9  C   UNL     1      -7.520 -10.445  16.264  0.00  0.00    +0.128 C 
ATOM     10  C   UNL     1      -6.973  -9.948  17.599  0.00  0.00    +0.127 C 
ATOM     11  C   UNL     1      -6.606  -9.996  13.913  0.00  0.00    +0.309 C 
ATOM     13  C   UNL     1      -5.523 -11.255  19.130  0.00  0.00    +0.213 C 
ATOM     16  C   UNL     1      -4.178 -11.891  19.373  0.00  0.00    +0.109 C 
ENDROOT
BRANCH   5  12
ATOM     12  C   UNL     1      -4.946  -9.861  11.977  0.00  0.00    +0.038 A 
ATOM     14  C   UNL     1      -5.450  -8.728  11.339  0.00  0.00    +0.023 A 
ATOM     15  C   UNL     1      -4.081 -10.718  11.297  0.00  0.00    +0.023 A 
ATOM     17  C   UNL     1      -5.091  -8.453  10.019  0.00  0.00    +0.002 A 
ATOM     18  C   UNL     1      -3.721 -10.443   9.978  0.00  0.00    +0.002 A 
ATOM     19  C   UNL     1      -4.226  -9.311   9.338  0.00  0.00    +0.000 A 
ENDBRANCH   5  12
TORSDOF 1
ENDMDL
MODEL 10
REMARK VINA RESULT:      -5.7      2.256      3.607
REMARK  Name = 75536970
REMARK  2 active torsions:
REMARK  status: ('A' for Active; 'I' for Inactive)
REMARK    1  A    between atoms: N_5  and  C_12
REMARK    2  A    between atoms: C_13  and  C_16
REMARK                            x       y       z     vdW  Elec       q    Type
REMARK                         _______ _______ _______ _____ _____    ______ ____
ROOT
ATOM      1  O   UNL     1      17.970   9.593  20.991  0.00  0.00    -0.252 OA
ATOM      2  O   UNL     1      11.058  10.070  21.275  0.00  0.00    -0.276 OA
ATOM      3  N   UNL     1      15.743   8.902  21.017  0.00  0.00    -0.278 N 
ATOM      4  N   UNL     1      13.043   8.941  21.694  0.00  0.00    -0.298 N 
ATOM      5  N   UNL     1      17.332   7.291  21.145  0.00  0.00    -0.254 N 
ATOM      6  C   UNL     1      15.004   7.662  20.953  0.00  0.00    +0.113 C 
ATOM      7  C   UNL     1      13.808   7.697  21.900  0.00  0.00    +0.132 C 
ATOM      8  C   UNL     1      16.052   6.607  21.284  0.00  0.00    +0.139 C 
ATOM      9  C   UNL     1      15.037  10.168  20.906  0.00  0.00    +0.128 C 
ATOM     10  C   UNL     1      13.830  10.175  21.841  0.00  0.00    +0.127 C 
ATOM     11  C   UNL     1      17.134   8.701  21.039  0.00  0.00    +0.309 C 
ATOM     13  C   UNL     1      11.680   9.014  21.415  0.00  0.00    +0.213 C 
ATOM     16  C   UNL     1      10.949   7.703  21.277  0.00  0.00    +0.109 C 
ENDROOT
BRANCH   5  12
ATOM     12  C   UNL     1      18.577   6.601  21.197  0.00  0.00    +0.038 A 
ATOM     14  C   UNL     1      18.925   5.714  20.179  0.00  0.00    +0.023 A 
ATOM     15  C   UNL     1      19.448   6.812  22.266  0.00  0.00    +0.023 A 
ATOM     17  C   UNL     1      20.145   5.037  20.230  0.00  0.00    +0.002 A 
ATOM     18  C   UNL     1      20.667   6.136  22.317  0.00  0.00    +0.002 A 
ATOM     19  C   UNL     1      21.015   5.248  21.299  0.00  0.00    +0.000 A 
ENDBRANCH   5  12
TORSDOF 1
ENDMDL
