MODEL 1
REMARK VINA RESULT:      -7.4      0.000      0.000
REMARK  Name = 26743832
REMARK  6 active torsions:
REMARK  status: ('A' for Active; 'I' for Inactive)
REMARK    1  A    between atoms: O_1  and  C_8
REMARK    2  A    between atoms: N_3  and  C_10
REMARK    3  A    between atoms: C_6  and  C_11
REMARK    4  A    between atoms: C_10  and  C_12
REMARK    5  A    between atoms: C_13  and  C_16
REMARK    6  A    between atoms: C_22  and  C_25
REMARK                            x       y       z     vdW  Elec       q    Type
REMARK                         _______ _______ _______ _____ _____    ______ ____
ROOT
ATOM      3  N   UNL     1      12.366   8.686  20.015  0.00  0.00    -0.285 NA
ATOM      6  C   UNL     1      13.127   8.291  21.217  0.00  0.00    +0.149 C 
ATOM      7  C   UNL     1      12.214   7.292  21.952  0.00  0.00    +0.061 C 
ATOM      8  C   UNL     1      10.946   7.225  21.110  0.00  0.00    +0.130 C 
ATOM      9  C   UNL     1      10.952   8.540  20.354  0.00  0.00    +0.116 C 
ENDROOT
BRANCH   6  11
ATOM      2  O   UNL     1      14.502   6.688  19.989  0.00  0.00    -0.336 OA
ATOM      4  N   UNL     1      15.665   8.046  21.337  0.00  0.00    -0.190 NA
ATOM      5  N   UNL     1      15.846   6.320  19.844  0.00  0.00    -0.056 NA
ATOM     11  C   UNL     1      14.483   7.709  20.884  0.00  0.00    +0.245 A 
ATOM     13  C   UNL     1      16.469   7.166  20.670  0.00  0.00    +0.202 A 
BRANCH  13  16
ATOM     16  C   UNL     1      17.892   7.161  20.851  0.00  0.00    +0.023 A 
ATOM     20  C   UNL     1      18.629   6.014  20.554  0.00  0.00    +0.015 A 
ATOM     21  C   UNL     1      18.539   8.304  21.321  0.00  0.00    +0.012 A 
ATOM     22  C   UNL     1      20.013   6.010  20.729  0.00  0.00    -0.050 A 
ATOM     23  C   UNL     1      19.922   8.300  21.496  0.00  0.00    +0.001 A 
ATOM     24  C   UNL     1      20.660   7.153  21.199  0.00  0.00    +0.003 A 
ATOM     25  C   UNL     1      20.801   4.785  20.413  0.00  0.00    +0.044 C 
ENDBRANCH  13  16
ENDBRANCH   6  11
BRANCH   8   1
ATOM      1  O   UNL     1       9.802   7.098  21.933  0.00  0.00    -0.390 OA
ATOM     26  H   UNL     1       9.235   7.870  21.764  0.00  0.00    +0.210 HD
ENDBRANCH   8   1
BRANCH   3  10
ATOM     10  C   UNL     1      12.682  10.030  19.550  0.00  0.00    +0.120 C 
BRANCH  10  12
ATOM     12  C   UNL     1      13.315  10.017  18.183  0.00  0.00    -0.033 A 
ATOM     14  C   UNL     1      14.068  11.110  17.753  0.00  0.00    +0.005 A 
ATOM     15  C   UNL     1      13.149   8.912  17.348  0.00  0.00    +0.005 A 
ATOM     17  C   UNL     1      14.654  11.098  16.488  0.00  0.00    +0.000 A 
ATOM     18  C   UNL     1      13.736   8.900  16.083  0.00  0.00    +0.000 A 
ATOM     19  C   UNL     1      14.489   9.994  15.653  0.00  0.00    +0.000 A 
ENDBRANCH  10  12
ENDBRANCH   3  10
TORSDOF 5
ENDMDL
MODEL 2
REMARK VINA RESULT:      -6.8     25.332     28.685
REMARK  Name = 26743832
REMARK  6 active torsions:
REMARK  status: ('A' for Active; 'I' for Inactive)
REMARK    1  A    between atoms: O_1  and  C_8
REMARK    2  A    between atoms: N_3  and  C_10
REMARK    3  A    between atoms: C_6  and  C_11
REMARK    4  A    between atoms: C_10  and  C_12
REMARK    5  A    between atoms: C_13  and  C_16
REMARK    6  A    between atoms: C_22  and  C_25
REMARK                            x       y       z     vdW  Elec       q    Type
REMARK                         _______ _______ _______ _____ _____    ______ ____
ROOT
ATOM      3  N   UNL     1      -3.163 -10.569  14.247  0.00  0.00    -0.285 NA
ATOM      6  C   UNL     1      -3.443 -11.260  15.522  0.00  0.00    +0.149 C 
ATOM      7  C   UNL     1      -2.263 -10.888  16.440  0.00  0.00    +0.061 C 
ATOM      8  C   UNL     1      -1.351 -10.023  15.579  0.00  0.00    +0.130 C 
ATOM      9  C   UNL     1      -1.710 -10.430  14.162  0.00  0.00    +0.116 C 
ENDROOT
BRANCH   6  11
ATOM      2  O   UNL     1      -5.339  -9.724  15.658  0.00  0.00    -0.336 OA
ATOM      4  N   UNL     1      -5.507 -11.507  17.004  0.00  0.00    -0.190 NA
ATOM      5  N   UNL     1      -6.557  -9.585  16.336  0.00  0.00    -0.056 NA
ATOM     11  C   UNL     1      -4.785 -10.879  16.109  0.00  0.00    +0.245 A 
ATOM     13  C   UNL     1      -6.584 -10.674  17.110  0.00  0.00    +0.202 A 
BRANCH  13  16
ATOM     16  C   UNL     1      -7.672 -10.962  18.000  0.00  0.00    +0.023 A 
ATOM     20  C   UNL     1      -8.845 -10.208  17.935  0.00  0.00    +0.015 A 
ATOM     21  C   UNL     1      -7.559 -11.997  18.928  0.00  0.00    +0.012 A 
ATOM     22  C   UNL     1      -9.903 -10.489  18.799  0.00  0.00    -0.050 A 
ATOM     23  C   UNL     1      -8.617 -12.278  19.791  0.00  0.00    +0.001 A 
ATOM     24  C   UNL     1      -9.790 -11.525  19.726  0.00  0.00    +0.003 A 
ATOM     25  C   UNL     1     -11.156  -9.684  18.730  0.00  0.00    +0.044 C 
ENDBRANCH  13  16
ENDBRANCH   6  11
BRANCH   8   1
ATOM      1  O   UNL     1       0.008 -10.282  15.871  0.00  0.00    -0.390 OA
ATOM     26  H   UNL     1       0.319  -9.575  16.463  0.00  0.00    +0.210 HD
ENDBRANCH   8   1
BRANCH   3  10
ATOM     10  C   UNL     1      -3.717 -11.254  13.088  0.00  0.00    +0.120 C 
BRANCH  10  12
ATOM     12  C   UNL     1      -4.048 -10.295  11.974  0.00  0.00    -0.033 A 
ATOM     14  C   UNL     1      -5.250  -9.586  11.999  0.00  0.00    +0.005 A 
ATOM     15  C   UNL     1      -3.154 -10.116  10.919  0.00  0.00    +0.005 A 
ATOM     17  C   UNL     1      -5.557  -8.698  10.969  0.00  0.00    +0.000 A 
ATOM     18  C   UNL     1      -3.461  -9.228   9.888  0.00  0.00    +0.000 A 
ATOM     19  C   UNL     1      -4.663  -8.519   9.914  0.00  0.00    +0.000 A 
ENDBRANCH  10  12
ENDBRANCH   3  10
TORSDOF 5
ENDMDL
MODEL 3
REMARK VINA RESULT:      -6.8     25.357     28.548
REMARK  Name = 26743832
REMARK  6 active torsions:
REMARK  status: ('A' for Active; 'I' for Inactive)
REMARK    1  A    between atoms: O_1  and  C_8
REMARK    2  A    between atoms: N_3  and  C_10
REMARK    3  A    between atoms: C_6  and  C_11
REMARK    4  A    between atoms: C_10  and  C_12
REMARK    5  A    between atoms: C_13  and  C_16
REMARK    6  A    between atoms: C_22  and  C_25
REMARK                            x       y       z     vdW  Elec       q    Type
REMARK                         _______ _______ _______ _____ _____    ______ ____
ROOT
ATOM      3  N   UNL     1      -3.183 -10.527  14.220  0.00  0.00    -0.285 NA
ATOM      6  C   UNL     1      -3.525 -11.148  15.515  0.00  0.00    +0.149 C 
ATOM      7  C   UNL     1      -2.335 -10.818  16.437  0.00  0.00    +0.061 C 
ATOM      8  C   UNL     1      -1.358 -10.048  15.559  0.00  0.00    +0.130 C 
ATOM      9  C   UNL     1      -1.723 -10.486  14.153  0.00  0.00    +0.116 C 
ENDROOT
BRANCH   6  11
ATOM      2  O   UNL     1      -4.993 -10.701  17.417  0.00  0.00    -0.336 OA
ATOM      4  N   UNL     1      -5.890 -10.193  15.428  0.00  0.00    -0.190 NA
ATOM      5  N   UNL     1      -6.277 -10.207  17.684  0.00  0.00    -0.056 NA
ATOM     11  C   UNL     1      -4.846 -10.659  16.067  0.00  0.00    +0.245 A 
ATOM     13  C   UNL     1      -6.742  -9.930  16.462  0.00  0.00    +0.202 A 
BRANCH  13  16
ATOM     16  C   UNL     1      -8.051  -9.386  16.240  0.00  0.00    +0.023 A 
ATOM     20  C   UNL     1      -8.696  -9.598  15.021  0.00  0.00    +0.015 A 
ATOM     21  C   UNL     1      -8.680  -8.650  17.244  0.00  0.00    +0.012 A 
ATOM     22  C   UNL     1      -9.970  -9.071  14.806  0.00  0.00    -0.050 A 
ATOM     23  C   UNL     1      -9.952  -8.123  17.029  0.00  0.00    +0.001 A 
ATOM     24  C   UNL     1     -10.598  -8.334  15.810  0.00  0.00    +0.003 A 
ATOM     25  C   UNL     1     -10.660  -9.295  13.504  0.00  0.00    +0.044 C 
ENDBRANCH  13  16
ENDBRANCH   6  11
BRANCH   8   1
ATOM      1  O   UNL     1      -0.022 -10.382  15.881  0.00  0.00    -0.390 OA
ATOM     26  H   UNL     1       0.136 -10.102  16.799  0.00  0.00    +0.210 HD
ENDBRANCH   8   1
BRANCH   3  10
ATOM     10  C   UNL     1      -3.765 -11.219  13.079  0.00  0.00    +0.120 C 
BRANCH  10  12
ATOM     12  C   UNL     1      -4.078 -10.275  11.949  0.00  0.00    -0.033 A 
ATOM     14  C   UNL     1      -5.290  -9.582  11.934  0.00  0.00    +0.005 A 
ATOM     15  C   UNL     1      -3.158 -10.091  10.917  0.00  0.00    +0.005 A 
ATOM     17  C   UNL     1      -5.580  -8.707  10.888  0.00  0.00    +0.000 A 
ATOM     18  C   UNL     1      -3.448  -9.216   9.871  0.00  0.00    +0.000 A 
ATOM     19  C   UNL     1      -4.660  -8.524   9.857  0.00  0.00    +0.000 A 
ENDBRANCH  10  12
ENDBRANCH   3  10
TORSDOF 5
ENDMDL
MODEL 4
REMARK VINA RESULT:      -6.7      3.026      4.341
REMARK  Name = 26743832
REMARK  6 active torsions:
REMARK  status: ('A' for Active; 'I' for Inactive)
REMARK    1  A    between atoms: O_1  and  C_8
REMARK    2  A    between atoms: N_3  and  C_10
REMARK    3  A    between atoms: C_6  and  C_11
REMARK    4  A    between atoms: C_10  and  C_12
REMARK    5  A    between atoms: C_13  and  C_16
REMARK    6  A    between atoms: C_22  and  C_25
REMARK                            x       y       z     vdW  Elec       q    Type
REMARK                         _______ _______ _______ _____ _____    ______ ____
ROOT
ATOM      3  N   UNL     1      11.912  10.542  23.144  0.00  0.00    -0.285 NA
ATOM      6  C   UNL     1      12.912  11.544  22.723  0.00  0.00    +0.149 C 
ATOM      7  C   UNL     1      13.299  12.283  24.017  0.00  0.00    +0.061 C 
ATOM      8  C   UNL     1      12.432  11.658  25.103  0.00  0.00    +0.130 C 
ATOM      9  C   UNL     1      11.257  11.085  24.333  0.00  0.00    +0.116 C 
ENDROOT
BRANCH   6  11
ATOM      2  O   UNL     1      14.890  11.763  21.305  0.00  0.00    -0.336 OA
ATOM      4  N   UNL     1      14.496   9.673  22.010  0.00  0.00    -0.190 NA
ATOM      5  N   UNL     1      15.909  10.970  20.760  0.00  0.00    -0.056 NA
ATOM     11  C   UNL     1      14.102  10.922  22.025  0.00  0.00    +0.245 A 
ATOM     13  C   UNL     1      15.608   9.752  21.221  0.00  0.00    +0.202 A 
BRANCH  13  16
ATOM     16  C   UNL     1      16.397   8.594  20.914  0.00  0.00    +0.023 A 
ATOM     20  C   UNL     1      17.642   8.418  21.519  0.00  0.00    +0.015 A 
ATOM     21  C   UNL     1      15.918   7.643  20.014  0.00  0.00    +0.012 A 
ATOM     22  C   UNL     1      18.408   7.291  21.222  0.00  0.00    -0.050 A 
ATOM     23  C   UNL     1      16.683   6.516  19.717  0.00  0.00    +0.001 A 
ATOM     24  C   UNL     1      17.929   6.340  20.321  0.00  0.00    +0.003 A 
ATOM     25  C   UNL     1      19.739   7.102  21.867  0.00  0.00    +0.044 C 
ENDBRANCH  13  16
ENDBRANCH   6  11
BRANCH   8   1
ATOM      1  O   UNL     1      12.020  12.633  26.041  0.00  0.00    -0.390 OA
ATOM     26  H   UNL     1      12.818  12.961  26.491  0.00  0.00    +0.210 HD
ENDBRANCH   8   1
BRANCH   3  10
ATOM     10  C   UNL     1      10.957  10.208  22.097  0.00  0.00    +0.120 C 
BRANCH  10  12
ATOM     12  C   UNL     1      11.376   8.985  21.324  0.00  0.00    -0.033 A 
ATOM     14  C   UNL     1      11.426   7.743  21.958  0.00  0.00    +0.005 A 
ATOM     15  C   UNL     1      11.713   9.093  19.975  0.00  0.00    +0.005 A 
ATOM     17  C   UNL     1      11.813   6.610  21.243  0.00  0.00    +0.000 A 
ATOM     18  C   UNL     1      12.100   7.961  19.260  0.00  0.00    +0.000 A 
ATOM     19  C   UNL     1      12.150   6.718  19.894  0.00  0.00    +0.000 A 
ENDBRANCH  10  12
ENDBRANCH   3  10
TORSDOF 5
ENDMDL
MODEL 5
REMARK VINA RESULT:      -6.7      1.945      5.824
REMARK  Name = 26743832
REMARK  6 active torsions:
REMARK  status: ('A' for Active; 'I' for Inactive)
REMARK    1  A    between atoms: O_1  and  C_8
REMARK    2  A    between atoms: N_3  and  C_10
REMARK    3  A    between atoms: C_6  and  C_11
REMARK    4  A    between atoms: C_10  and  C_12
REMARK    5  A    between atoms: C_13  and  C_16
REMARK    6  A    between atoms: C_22  and  C_25
REMARK                            x       y       z     vdW  Elec       q    Type
REMARK                         _______ _______ _______ _____ _____    ______ ____
ROOT
ATOM      3  N   UNL     1      13.112   7.538  20.399  0.00  0.00    -0.285 NA
ATOM      6  C   UNL     1      12.328   8.253  19.372  0.00  0.00    +0.149 C 
ATOM      7  C   UNL     1      10.977   8.555  20.046  0.00  0.00    +0.061 C 
ATOM      8  C   UNL     1      11.080   7.931  21.433  0.00  0.00    +0.130 C 
ATOM      9  C   UNL     1      12.145   6.864  21.263  0.00  0.00    +0.116 C 
ENDROOT
BRANCH   6  11
ATOM      2  O   UNL     1      12.771  10.650  19.549  0.00  0.00    -0.336 OA
ATOM      4  N   UNL     1      13.849   9.643  17.864  0.00  0.00    -0.190 NA
ATOM      5  N   UNL     1      13.514  11.651  18.910  0.00  0.00    -0.056 NA
ATOM     11  C   UNL     1      13.024   9.500  18.871  0.00  0.00    +0.245 A 
ATOM     13  C   UNL     1      14.122  10.979  17.928  0.00  0.00    +0.202 A 
BRANCH  13  16
ATOM     16  C   UNL     1      15.009  11.611  16.994  0.00  0.00    +0.023 A 
ATOM     20  C   UNL     1      14.921  11.311  15.634  0.00  0.00    +0.015 A 
ATOM     21  C   UNL     1      15.958  12.528  17.446  0.00  0.00    +0.012 A 
ATOM     22  C   UNL     1      15.783  11.928  14.727  0.00  0.00    -0.050 A 
ATOM     23  C   UNL     1      16.820  13.144  16.540  0.00  0.00    +0.001 A 
ATOM     24  C   UNL     1      16.732  12.845  15.180  0.00  0.00    +0.003 A 
ATOM     25  C   UNL     1      15.690  11.608  13.274  0.00  0.00    +0.044 C 
ENDBRANCH  13  16
ENDBRANCH   6  11
BRANCH   8   1
ATOM      1  O   UNL     1       9.840   7.378  21.828  0.00  0.00    -0.390 OA
ATOM     26  H   UNL     1      10.005   6.459  22.104  0.00  0.00    +0.210 HD
ENDBRANCH   8   1
BRANCH   3  10
ATOM     10  C   UNL     1      14.085   6.611  19.838  0.00  0.00    +0.120 C 
BRANCH  10  12
ATOM     12  C   UNL     1      15.494   6.969  20.229  0.00  0.00    -0.033 A 
ATOM     14  C   UNL     1      16.566   6.227  19.731  0.00  0.00    +0.005 A 
ATOM     15  C   UNL     1      15.728   8.042  21.089  0.00  0.00    +0.005 A 
ATOM     17  C   UNL     1      17.871   6.559  20.092  0.00  0.00    +0.000 A 
ATOM     18  C   UNL     1      17.033   8.374  21.451  0.00  0.00    +0.000 A 
ATOM     19  C   UNL     1      18.105   7.632  20.953  0.00  0.00    +0.000 A 
ENDBRANCH  10  12
ENDBRANCH   3  10
TORSDOF 5
ENDMDL
MODEL 6
REMARK VINA RESULT:      -6.4      1.821      2.441
REMARK  Name = 26743832
REMARK  6 active torsions:
REMARK  status: ('A' for Active; 'I' for Inactive)
REMARK    1  A    between atoms: O_1  and  C_8
REMARK    2  A    between atoms: N_3  and  C_10
REMARK    3  A    between atoms: C_6  and  C_11
REMARK    4  A    between atoms: C_10  and  C_12
REMARK    5  A    between atoms: C_13  and  C_16
REMARK    6  A    between atoms: C_22  and  C_25
REMARK                            x       y       z     vdW  Elec       q    Type
REMARK                         _______ _______ _______ _____ _____    ______ ____
ROOT
ATOM      3  N   UNL     1      13.843   9.457  17.632  0.00  0.00    -0.285 NA
ATOM      6  C   UNL     1      13.730   8.734  18.914  0.00  0.00    +0.149 C 
ATOM      7  C   UNL     1      12.445   7.894  18.781  0.00  0.00    +0.061 C 
ATOM      8  C   UNL     1      11.884   8.247  17.409  0.00  0.00    +0.130 C 
ATOM      9  C   UNL     1      12.482   9.611  17.122  0.00  0.00    +0.116 C 
ENDROOT
BRANCH   6  11
ATOM      2  O   UNL     1      15.026   6.686  18.599  0.00  0.00    -0.336 OA
ATOM      4  N   UNL     1      15.964   8.156  20.005  0.00  0.00    -0.190 NA
ATOM      5  N   UNL     1      16.223   6.101  19.032  0.00  0.00    -0.056 NA
ATOM     11  C   UNL     1      14.950   7.893  19.219  0.00  0.00    +0.245 A 
ATOM     13  C   UNL     1      16.718   7.027  19.858  0.00  0.00    +0.202 A 
BRANCH  13  16
ATOM     16  C   UNL     1      17.964   6.858  20.549  0.00  0.00    +0.023 A 
ATOM     20  C   UNL     1      18.831   5.828  20.183  0.00  0.00    +0.015 A 
ATOM     21  C   UNL     1      18.309   7.726  21.585  0.00  0.00    +0.012 A 
ATOM     22  C   UNL     1      20.043   5.666  20.855  0.00  0.00    -0.050 A 
ATOM     23  C   UNL     1      19.520   7.564  22.256  0.00  0.00    +0.001 A 
ATOM     24  C   UNL     1      20.388   6.534  21.891  0.00  0.00    +0.003 A 
ATOM     25  C   UNL     1      20.970   4.566  20.465  0.00  0.00    +0.044 C 
ENDBRANCH  13  16
ENDBRANCH   6  11
BRANCH   8   1
ATOM      1  O   UNL     1      10.471   8.289  17.440  0.00  0.00    -0.390 OA
ATOM     26  H   UNL     1      10.212   9.186  17.715  0.00  0.00    +0.210 HD
ENDBRANCH   8   1
BRANCH   3  10
ATOM     10  C   UNL     1      14.531  10.735  17.752  0.00  0.00    +0.120 C 
BRANCH  10  12
ATOM     12  C   UNL     1      14.728  11.395  16.413  0.00  0.00    -0.033 A 
ATOM     14  C   UNL     1      14.403  12.743  16.245  0.00  0.00    +0.005 A 
ATOM     15  C   UNL     1      15.234  10.662  15.340  0.00  0.00    +0.005 A 
ATOM     17  C   UNL     1      14.586  13.355  15.006  0.00  0.00    +0.000 A 
ATOM     18  C   UNL     1      15.417  11.273  14.101  0.00  0.00    +0.000 A 
ATOM     19  C   UNL     1      15.092  12.621  13.933  0.00  0.00    +0.000 A 
ENDBRANCH  10  12
ENDBRANCH   3  10
TORSDOF 5
ENDMDL
MODEL 7
REMARK VINA RESULT:      -6.4     17.042     20.589
REMARK  Name = 26743832
REMARK  6 active torsions:
REMARK  status: ('A' for Active; 'I' for Inactive)
REMARK    1  A    between atoms: O_1  and  C_8
REMARK    2  A    between atoms: N_3  and  C_10
REMARK    3  A    between atoms: C_6  and  C_11
REMARK    4  A    between atoms: C_10  and  C_12
REMARK    5  A    between atoms: C_13  and  C_16
REMARK    6  A    between atoms: C_22  and  C_25
REMARK                            x       y       z     vdW  Elec       q    Type
REMARK                         _______ _______ _______ _____ _____    ______ ____
ROOT
ATOM      3  N   UNL     1      13.487   3.902  -0.571  0.00  0.00    -0.285 NA
ATOM      6  C   UNL     1      13.680   3.658   0.873  0.00  0.00    +0.149 C 
ATOM      7  C   UNL     1      14.972   4.415   1.231  0.00  0.00    +0.061 C 
ATOM      8  C   UNL     1      15.456   5.015  -0.083  0.00  0.00    +0.130 C 
ATOM      9  C   UNL     1      14.818   4.127  -1.134  0.00  0.00    +0.116 C 
ENDROOT
BRANCH   6  11
ATOM      2  O   UNL     1      11.905   3.147   2.472  0.00  0.00    -0.336 OA
ATOM      4  N   UNL     1      11.937   5.281   1.792  0.00  0.00    -0.190 NA
ATOM      5  N   UNL     1      10.848   3.783   3.136  0.00  0.00    -0.056 NA
ATOM     11  C   UNL     1      12.494   4.099   1.702  0.00  0.00    +0.245 A 
ATOM     13  C   UNL     1      10.932   5.037   2.683  0.00  0.00    +0.202 A 
BRANCH  13  16
ATOM     16  C   UNL     1      10.029   6.071   3.102  0.00  0.00    +0.023 A 
ATOM     20  C   UNL     1       9.579   6.112   4.422  0.00  0.00    +0.015 A 
ATOM     21  C   UNL     1       9.605   7.037   2.189  0.00  0.00    +0.012 A 
ATOM     22  C   UNL     1       8.703   7.119   4.828  0.00  0.00    -0.050 A 
ATOM     23  C   UNL     1       8.729   8.043   2.595  0.00  0.00    +0.001 A 
ATOM     24  C   UNL     1       8.278   8.085   3.915  0.00  0.00    +0.003 A 
ATOM     25  C   UNL     1       8.221   7.164   6.238  0.00  0.00    +0.044 C 
ENDBRANCH  13  16
ENDBRANCH   6  11
BRANCH   8   1
ATOM      1  O   UNL     1      16.868   4.985  -0.159  0.00  0.00    -0.390 OA
ATOM     26  H   UNL     1      17.191   5.877   0.057  0.00  0.00    +0.210 HD
ENDBRANCH   8   1
BRANCH   3  10
ATOM     10  C   UNL     1      12.781   2.823  -1.247  0.00  0.00    +0.120 C 
BRANCH  10  12
ATOM     12  C   UNL     1      11.566   3.322  -1.985  0.00  0.00    -0.033 A 
ATOM     14  C   UNL     1      10.980   2.534  -2.976  0.00  0.00    +0.005 A 
ATOM     15  C   UNL     1      11.028   4.572  -1.678  0.00  0.00    +0.005 A 
ATOM     17  C   UNL     1       9.855   2.995  -3.659  0.00  0.00    +0.000 A 
ATOM     18  C   UNL     1       9.903   5.033  -2.360  0.00  0.00    +0.000 A 
ATOM     19  C   UNL     1       9.316   4.245  -3.351  0.00  0.00    +0.000 A 
ENDBRANCH  10  12
ENDBRANCH   3  10
TORSDOF 5
ENDMDL
MODEL 8
REMARK VINA RESULT:      -6.3     26.510     28.794
REMARK  Name = 26743832
REMARK  6 active torsions:
REMARK  status: ('A' for Active; 'I' for Inactive)
REMARK    1  A    between atoms: O_1  and  C_8
REMARK    2  A    between atoms: N_3  and  C_10
REMARK    3  A    between atoms: C_6  and  C_11
REMARK    4  A    between atoms: C_10  and  C_12
REMARK    5  A    between atoms: C_13  and  C_16
REMARK    6  A    between atoms: C_22  and  C_25
REMARK                            x       y       z     vdW  Elec       q    Type
REMARK                         _______ _______ _______ _____ _____    ______ ____
ROOT
ATOM      3  N   UNL     1      -7.211 -10.718  17.547  0.00  0.00    -0.285 NA
ATOM      6  C   UNL     1      -5.844 -11.053  17.993  0.00  0.00    +0.149 C 
ATOM      7  C   UNL     1      -5.962 -12.462  18.603  0.00  0.00    +0.061 C 
ATOM      8  C   UNL     1      -7.440 -12.816  18.496  0.00  0.00    +0.130 C 
ATOM      9  C   UNL     1      -8.123 -11.464  18.413  0.00  0.00    +0.116 C 
ENDROOT
BRANCH   6  11
ATOM      2  O   UNL     1      -3.539 -11.240  17.203  0.00  0.00    -0.336 OA
ATOM      4  N   UNL     1      -5.015 -10.708  15.603  0.00  0.00    -0.190 NA
ATOM      5  N   UNL     1      -2.801 -11.117  16.018  0.00  0.00    -0.056 NA
ATOM     11  C   UNL     1      -4.831 -10.984  16.871  0.00  0.00    +0.245 A 
ATOM     13  C   UNL     1      -3.740 -10.802  15.121  0.00  0.00    +0.202 A 
BRANCH  13  16
ATOM     16  C   UNL     1      -3.441 -10.577  13.737  0.00  0.00    +0.023 A 
ATOM     20  C   UNL     1      -4.477 -10.426  12.814  0.00  0.00    +0.015 A 
ATOM     21  C   UNL     1      -2.114 -10.508  13.313  0.00  0.00    +0.012 A 
ATOM     22  C   UNL     1      -4.185 -10.206  11.468  0.00  0.00    -0.050 A 
ATOM     23  C   UNL     1      -1.822 -10.287  11.968  0.00  0.00    +0.001 A 
ATOM     24  C   UNL     1      -2.857 -10.136  11.045  0.00  0.00    +0.003 A 
ATOM     25  C   UNL     1      -5.291 -10.044  10.481  0.00  0.00    +0.044 C 
ENDBRANCH  13  16
ENDBRANCH   6  11
BRANCH   8   1
ATOM      1  O   UNL     1      -7.864 -13.550  19.628  0.00  0.00    -0.390 OA
ATOM     26  H   UNL     1      -7.468 -14.437  19.566  0.00  0.00    +0.210 HD
ENDBRANCH   8   1
BRANCH   3  10
ATOM     10  C   UNL     1      -7.487  -9.288  17.563  0.00  0.00    +0.120 C 
BRANCH  10  12
ATOM     12  C   UNL     1      -8.705  -8.942  16.748  0.00  0.00    -0.033 A 
ATOM     14  C   UNL     1      -9.703  -8.134  17.294  0.00  0.00    +0.005 A 
ATOM     15  C   UNL     1      -8.835  -9.428  15.447  0.00  0.00    +0.005 A 
ATOM     17  C   UNL     1     -10.831  -7.813  16.539  0.00  0.00    +0.000 A 
ATOM     18  C   UNL     1      -9.962  -9.106  14.691  0.00  0.00    +0.000 A 
ATOM     19  C   UNL     1     -10.961  -8.298  15.238  0.00  0.00    +0.000 A 
ENDBRANCH  10  12
ENDBRANCH   3  10
TORSDOF 5
ENDMDL
MODEL 9
REMARK VINA RESULT:      -6.3     27.377     29.030
REMARK  Name = 26743832
REMARK  6 active torsions:
REMARK  status: ('A' for Active; 'I' for Inactive)
REMARK    1  A    between atoms: O_1  and  C_8
REMARK    2  A    between atoms: N_3  and  C_10
REMARK    3  A    between atoms: C_6  and  C_11
REMARK    4  A    between atoms: C_10  and  C_12
REMARK    5  A    between atoms: C_13  and  C_16
REMARK    6  A    between atoms: C_22  and  C_25
REMARK                            x       y       z     vdW  Elec       q    Type
REMARK                         _______ _______ _______ _____ _____    ______ ____
ROOT
ATOM      3  N   UNL     1      -8.129  -9.811  16.251  0.00  0.00    -0.285 NA
ATOM      6  C   UNL     1      -8.956  -9.676  15.035  0.00  0.00    +0.149 C 
ATOM      7  C   UNL     1      -9.771  -8.387  15.253  0.00  0.00    +0.061 C 
ATOM      8  C   UNL     1      -9.366  -7.894  16.636  0.00  0.00    +0.130 C 
ATOM      9  C   UNL     1      -8.864  -9.148  17.327  0.00  0.00    +0.116 C 
ENDROOT
BRANCH   6  11
ATOM      2  O   UNL     1      -8.815  -9.617  12.596  0.00  0.00    -0.336 OA
ATOM      4  N   UNL     1      -6.827  -9.627  13.628  0.00  0.00    -0.190 NA
ATOM      5  N   UNL     1      -7.851  -9.586  11.581  0.00  0.00    -0.056 NA
ATOM     11  C   UNL     1      -8.129  -9.639  13.768  0.00  0.00    +0.245 A 
ATOM     13  C   UNL     1      -6.704  -9.594  12.268  0.00  0.00    +0.202 A 
BRANCH  13  16
ATOM     16  C   UNL     1      -5.421  -9.568  11.628  0.00  0.00    +0.023 A 
ATOM     20  C   UNL     1      -4.337 -10.228  12.209  0.00  0.00    +0.015 A 
ATOM     21  C   UNL     1      -5.256  -8.884  10.424  0.00  0.00    +0.012 A 
ATOM     22  C   UNL     1      -3.090 -10.204  11.586  0.00  0.00    -0.050 A 
ATOM     23  C   UNL     1      -4.009  -8.860   9.801  0.00  0.00    +0.001 A 
ATOM     24  C   UNL     1      -2.926  -9.520  10.381  0.00  0.00    +0.003 A 
ATOM     25  C   UNL     1      -1.932 -10.909  12.206  0.00  0.00    +0.044 C 
ENDBRANCH  13  16
ENDBRANCH   6  11
BRANCH   8   1
ATOM      1  O   UNL     1     -10.474  -7.330  17.312  0.00  0.00    -0.390 OA
ATOM     26  H   UNL     1     -11.052  -6.929  16.640  0.00  0.00    +0.210 HD
ENDBRANCH   8   1
BRANCH   3  10
ATOM     10  C   UNL     1      -7.808 -11.193  16.578  0.00  0.00    +0.120 C 
BRANCH  10  12
ATOM     12  C   UNL     1      -6.463 -11.315  17.244  0.00  0.00    -0.033 A 
ATOM     14  C   UNL     1      -6.373 -11.790  18.553  0.00  0.00    +0.005 A 
ATOM     15  C   UNL     1      -5.306 -10.953  16.553  0.00  0.00    +0.005 A 
ATOM     17  C   UNL     1      -5.128 -11.904  19.170  0.00  0.00    +0.000 A 
ATOM     18  C   UNL     1      -4.061 -11.067  17.169  0.00  0.00    +0.000 A 
ATOM     19  C   UNL     1      -3.972 -11.542  18.478  0.00  0.00    +0.000 A 
ENDBRANCH  10  12
ENDBRANCH   3  10
TORSDOF 5
ENDMDL
MODEL 10
REMARK VINA RESULT:      -6.3     28.115     31.779
REMARK  Name = 26743832
REMARK  6 active torsions:
REMARK  status: ('A' for Active; 'I' for Inactive)
REMARK    1  A    between atoms: O_1  and  C_8
REMARK    2  A    between atoms: N_3  and  C_10
REMARK    3  A    between atoms: C_6  and  C_11
REMARK    4  A    between atoms: C_10  and  C_12
REMARK    5  A    between atoms: C_13  and  C_16
REMARK    6  A    between atoms: C_22  and  C_25
REMARK                            x       y       z     vdW  Elec       q    Type
REMARK                         _______ _______ _______ _____ _____    ______ ____
ROOT
ATOM      3  N   UNL     1     -16.167   5.462  21.865  0.00  0.00    -0.285 NA
ATOM      6  C   UNL     1     -17.345   4.964  22.601  0.00  0.00    +0.149 C 
ATOM      7  C   UNL     1     -18.268   4.376  21.518  0.00  0.00    +0.061 C 
ATOM      8  C   UNL     1     -17.543   4.630  20.202  0.00  0.00    +0.130 C 
ATOM      9  C   UNL     1     -16.631   5.799  20.520  0.00  0.00    +0.116 C 
ENDROOT
BRANCH   6  11
ATOM      2  O   UNL     1     -16.499   2.762  23.240  0.00  0.00    -0.336 OA
ATOM      4  N   UNL     1     -17.064   4.064  24.974  0.00  0.00    -0.190 NA
ATOM      5  N   UNL     1     -16.240   2.009  24.393  0.00  0.00    -0.056 NA
ATOM     11  C   UNL     1     -16.982   3.957  23.671  0.00  0.00    +0.245 A 
ATOM     13  C   UNL     1     -16.598   2.844  25.373  0.00  0.00    +0.202 A 
BRANCH  13  16
ATOM     16  C   UNL     1     -16.500   2.493  26.761  0.00  0.00    +0.023 A 
ATOM     20  C   UNL     1     -15.947   3.394  27.672  0.00  0.00    +0.015 A 
ATOM     21  C   UNL     1     -16.961   1.251  27.199  0.00  0.00    +0.012 A 
ATOM     22  C   UNL     1     -15.855   3.052  29.021  0.00  0.00    -0.050 A 
ATOM     23  C   UNL     1     -16.868   0.910  28.547  0.00  0.00    +0.001 A 
ATOM     24  C   UNL     1     -16.315   1.810  29.459  0.00  0.00    +0.003 A 
ATOM     25  C   UNL     1     -15.264   4.013  29.995  0.00  0.00    +0.044 C 
ENDBRANCH  13  16
ENDBRANCH   6  11
BRANCH   8   1
ATOM      1  O   UNL     1     -18.463   4.946  19.175  0.00  0.00    -0.390 OA
ATOM     26  H   UNL     1     -18.691   5.887  19.268  0.00  0.00    +0.210 HD
ENDBRANCH   8   1
BRANCH   3  10
ATOM     10  C   UNL     1     -15.514   6.588  22.518  0.00  0.00    +0.120 C 
BRANCH  10  12
ATOM     12  C   UNL     1     -14.170   6.889  21.909  0.00  0.00    -0.033 A 
ATOM     14  C   UNL     1     -13.242   5.862  21.727  0.00  0.00    +0.005 A 
ATOM     15  C   UNL     1     -13.852   8.192  21.527  0.00  0.00    +0.005 A 
ATOM     17  C   UNL     1     -11.997   6.140  21.163  0.00  0.00    +0.000 A 
ATOM     18  C   UNL     1     -12.608   8.470  20.963  0.00  0.00    +0.000 A 
ATOM     19  C   UNL     1     -11.680   7.443  20.781  0.00  0.00    +0.000 A 
ENDBRANCH  10  12
ENDBRANCH   3  10
TORSDOF 5
ENDMDL
