MODEL 1
REMARK VINA RESULT:      -7.5      0.000      0.000
REMARK  Name = 51137866
REMARK  7 active torsions:
REMARK  status: ('A' for Active; 'I' for Inactive)
REMARK    1  A    between atoms: N_2  and  C_12
REMARK    2  A    between atoms: N_5  and  C_22
REMARK    3  A    between atoms: N_5  and  C_26
REMARK    4  A    between atoms: N_5  and  C_27
REMARK    5  A    between atoms: C_7  and  C_11
REMARK    6  A    between atoms: C_12  and  C_13
REMARK    7  A    between atoms: C_18  and  C_25
REMARK                            x       y       z     vdW  Elec       q    Type
REMARK                         _______ _______ _______ _____ _____    ______ ____
ROOT
ATOM      2  N   UNL     1      18.320   6.142  20.657  0.00  0.00    -0.297 NA
ATOM      7  C   UNL     1      16.031   6.427  21.086  0.00  0.00    +0.070 C 
ATOM      8  C   UNL     1      16.233   6.031  19.613  0.00  0.00    +0.028 C 
ATOM      9  C   UNL     1      17.423   6.860  21.567  0.00  0.00    +0.096 C 
ATOM     10  C   UNL     1      17.709   6.286  19.335  0.00  0.00    +0.085 C 
ENDROOT
BRANCH   7  11
ATOM      3  N   UNL     1      15.262   8.643  21.980  0.00  0.00    -0.342 N 
ATOM      4  N   UNL     1      13.713   7.424  20.951  0.00  0.00    -0.231 NA
ATOM     11  C   UNL     1      14.973   7.480  21.322  0.00  0.00    +0.113 A 
ATOM     14  C   UNL     1      14.113   9.388  22.038  0.00  0.00    +0.067 A 
ATOM     15  C   UNL     1      13.161   8.607  21.389  0.00  0.00    +0.101 A 
ATOM     18  C   UNL     1      11.845   9.086  21.270  0.00  0.00    +0.064 A 
ATOM     19  C   UNL     1      13.832  10.640  22.586  0.00  0.00    +0.028 A 
ATOM     23  C   UNL     1      11.541  10.342  21.813  0.00  0.00    +0.015 A 
ATOM     24  C   UNL     1      12.518  11.103  22.457  0.00  0.00    +0.003 A 
ATOM     28  H   UNL     1      16.161   8.910  22.357  0.00  0.00    +0.167 HD
BRANCH  18  25
ATOM      1  O   UNL     1      10.494   8.527  19.424  0.00  0.00    -0.270 OA
ATOM      6  N   UNL     1      10.223   7.270  21.323  0.00  0.00    -0.325 N 
ATOM     25  C   UNL     1      10.822   8.303  20.604  0.00  0.00    +0.244 C 
ATOM     29  H   UNL     1       9.507   6.696  20.889  0.00  0.00    +0.145 HD
ATOM     30  H   UNL     1      10.454   7.039  22.283  0.00  0.00    +0.145 HD
ENDBRANCH  18  25
ENDBRANCH   7  11
BRANCH   2  12
ATOM     12  C   UNL     1      19.680   6.656  20.698  0.00  0.00    +0.119 C 
BRANCH  12  13
ATOM     13  C   UNL     1      20.633   5.672  21.324  0.00  0.00    -0.033 A 
ATOM     16  C   UNL     1      21.212   5.952  22.562  0.00  0.00    +0.007 A 
ATOM     17  C   UNL     1      20.935   4.480  20.666  0.00  0.00    +0.007 A 
ATOM     20  C   UNL     1      22.094   5.039  23.141  0.00  0.00    +0.023 A 
ATOM     21  C   UNL     1      21.816   3.567  21.245  0.00  0.00    +0.023 A 
ATOM     22  C   UNL     1      22.396   3.848  22.483  0.00  0.00    +0.029 A 
BRANCH  22   5
ATOM      5  N   UNL     1      23.287   2.924  23.068  0.00  0.00    -0.336 N 
ATOM     26  C   UNL     1      24.609   2.723  22.509  0.00  0.00    +0.129 C 
ATOM     27  C   UNL     1      22.890   2.157  24.233  0.00  0.00    +0.129 C 
ENDBRANCH  22   5
ENDBRANCH  12  13
ENDBRANCH   2  12
TORSDOF 5
ENDMDL
MODEL 2
REMARK VINA RESULT:      -7.4     17.740     19.915
REMARK  Name = 51137866
REMARK  7 active torsions:
REMARK  status: ('A' for Active; 'I' for Inactive)
REMARK    1  A    between atoms: N_2  and  C_12
REMARK    2  A    between atoms: N_5  and  C_22
REMARK    3  A    between atoms: N_5  and  C_26
REMARK    4  A    between atoms: N_5  and  C_27
REMARK    5  A    between atoms: C_7  and  C_11
REMARK    6  A    between atoms: C_12  and  C_13
REMARK    7  A    between atoms: C_18  and  C_25
REMARK                            x       y       z     vdW  Elec       q    Type
REMARK                         _______ _______ _______ _____ _____    ______ ____
ROOT
ATOM      2  N   UNL     1      12.051   4.046   1.681  0.00  0.00    -0.297 NA
ATOM      7  C   UNL     1      10.430   4.969   3.104  0.00  0.00    +0.070 C 
ATOM      8  C   UNL     1      11.219   6.100   2.420  0.00  0.00    +0.028 C 
ATOM      9  C   UNL     1      11.283   3.712   2.883  0.00  0.00    +0.096 C 
ATOM     10  C   UNL     1      12.477   5.432   1.879  0.00  0.00    +0.085 C 
ENDROOT
BRANCH   7  11
ATOM      3  N   UNL     1      10.244   4.223   5.493  0.00  0.00    -0.342 N 
ATOM      4  N   UNL     1       9.670   6.332   5.090  0.00  0.00    -0.231 NA
ATOM     11  C   UNL     1      10.105   5.212   4.559  0.00  0.00    +0.113 A 
ATOM     14  C   UNL     1       9.876   4.740   6.708  0.00  0.00    +0.067 A 
ATOM     15  C   UNL     1       9.522   6.058   6.431  0.00  0.00    +0.101 A 
ATOM     18  C   UNL     1       9.087   6.885   7.480  0.00  0.00    +0.064 A 
ATOM     19  C   UNL     1       9.824   4.185   7.988  0.00  0.00    +0.028 A 
ATOM     23  C   UNL     1       9.026   6.350   8.772  0.00  0.00    +0.015 A 
ATOM     24  C   UNL     1       9.390   5.024   9.019  0.00  0.00    +0.003 A 
ATOM     28  H   UNL     1      10.563   3.279   5.322  0.00  0.00    +0.167 HD
BRANCH  18  25
ATOM      1  O   UNL     1       9.127   9.194   7.946  0.00  0.00    -0.270 OA
ATOM      6  N   UNL     1       7.860   8.522   6.156  0.00  0.00    -0.325 N 
ATOM     25  C   UNL     1       8.705   8.264   7.233  0.00  0.00    +0.244 C 
ATOM     29  H   UNL     1       7.576   9.474   5.949  0.00  0.00    +0.145 HD
ATOM     30  H   UNL     1       7.492   7.806   5.541  0.00  0.00    +0.145 HD
ENDBRANCH  18  25
ENDBRANCH   7  11
BRANCH   2  12
ATOM     12  C   UNL     1      13.175   3.146   1.472  0.00  0.00    +0.119 C 
BRANCH  12  13
ATOM     13  C   UNL     1      14.060   3.605   0.344  0.00  0.00    -0.033 A 
ATOM     16  C   UNL     1      15.412   3.859   0.576  0.00  0.00    +0.007 A 
ATOM     17  C   UNL     1      13.528   3.774  -0.935  0.00  0.00    +0.007 A 
ATOM     20  C   UNL     1      16.231   4.284  -0.469  0.00  0.00    +0.023 A 
ATOM     21  C   UNL     1      14.348   4.199  -1.981  0.00  0.00    +0.023 A 
ATOM     22  C   UNL     1      15.699   4.453  -1.747  0.00  0.00    +0.029 A 
BRANCH  22   5
ATOM      5  N   UNL     1      16.528   4.882  -2.805  0.00  0.00    -0.336 N 
ATOM     26  C   UNL     1      15.948   5.381  -4.037  0.00  0.00    +0.129 C 
ATOM     27  C   UNL     1      17.971   4.822  -2.678  0.00  0.00    +0.129 C 
ENDBRANCH  22   5
ENDBRANCH  12  13
ENDBRANCH   2  12
TORSDOF 5
ENDMDL
MODEL 3
REMARK VINA RESULT:      -7.1      1.989      2.562
REMARK  Name = 51137866
REMARK  7 active torsions:
REMARK  status: ('A' for Active; 'I' for Inactive)
REMARK    1  A    between atoms: N_2  and  C_12
REMARK    2  A    between atoms: N_5  and  C_22
REMARK    3  A    between atoms: N_5  and  C_26
REMARK    4  A    between atoms: N_5  and  C_27
REMARK    5  A    between atoms: C_7  and  C_11
REMARK    6  A    between atoms: C_12  and  C_13
REMARK    7  A    between atoms: C_18  and  C_25
REMARK                            x       y       z     vdW  Elec       q    Type
REMARK                         _______ _______ _______ _____ _____    ______ ____
ROOT
ATOM      2  N   UNL     1      18.467   6.214  20.856  0.00  0.00    -0.297 NA
ATOM      7  C   UNL     1      16.170   5.877  20.513  0.00  0.00    +0.070 C 
ATOM      8  C   UNL     1      16.912   5.779  19.168  0.00  0.00    +0.028 C 
ATOM      9  C   UNL     1      17.174   6.546  21.463  0.00  0.00    +0.096 C 
ATOM     10  C   UNL     1      18.272   6.417  19.421  0.00  0.00    +0.085 C 
ENDROOT
BRANCH   7  11
ATOM      3  N   UNL     1      14.177   6.952  21.595  0.00  0.00    -0.342 N 
ATOM      4  N   UNL     1      14.192   6.958  19.372  0.00  0.00    -0.231 NA
ATOM     11  C   UNL     1      14.844   6.598  20.455  0.00  0.00    +0.113 A 
ATOM     14  C   UNL     1      13.019   7.583  21.224  0.00  0.00    +0.067 A 
ATOM     15  C   UNL     1      13.051   7.576  19.832  0.00  0.00    +0.101 A 
ATOM     18  C   UNL     1      11.989   8.156  19.118  0.00  0.00    +0.064 A 
ATOM     19  C   UNL     1      11.976   8.144  21.963  0.00  0.00    +0.028 A 
ATOM     23  C   UNL     1      10.931   8.725  19.840  0.00  0.00    +0.015 A 
ATOM     24  C   UNL     1      10.928   8.719  21.237  0.00  0.00    +0.003 A 
ATOM     28  H   UNL     1      14.482   6.781  22.544  0.00  0.00    +0.167 HD
BRANCH  18  25
ATOM      1  O   UNL     1      11.026   7.703  17.017  0.00  0.00    -0.270 OA
ATOM      6  N   UNL     1      13.076   8.731  17.016  0.00  0.00    -0.325 N 
ATOM     25  C   UNL     1      11.981   8.166  17.667  0.00  0.00    +0.244 C 
ATOM     29  H   UNL     1      13.104   8.762  16.002  0.00  0.00    +0.145 HD
ATOM     30  H   UNL     1      13.877   9.128  17.494  0.00  0.00    +0.145 HD
ENDBRANCH  18  25
ENDBRANCH   7  11
BRANCH   2  12
ATOM     12  C   UNL     1      19.553   7.023  21.389  0.00  0.00    +0.119 C 
BRANCH  12  13
ATOM     13  C   UNL     1      20.895   6.381  21.158  0.00  0.00    -0.033 A 
ATOM     16  C   UNL     1      21.072   5.022  21.417  0.00  0.00    +0.007 A 
ATOM     17  C   UNL     1      21.961   7.145  20.683  0.00  0.00    +0.007 A 
ATOM     20  C   UNL     1      22.316   4.427  21.203  0.00  0.00    +0.023 A 
ATOM     21  C   UNL     1      23.205   6.551  20.467  0.00  0.00    +0.023 A 
ATOM     22  C   UNL     1      23.381   5.192  20.728  0.00  0.00    +0.029 A 
BRANCH  22   5
ATOM      5  N   UNL     1      24.639   4.591  20.510  0.00  0.00    -0.336 N 
ATOM     26  C   UNL     1      24.747   3.372  19.735  0.00  0.00    +0.129 C 
ATOM     27  C   UNL     1      25.840   5.182  21.067  0.00  0.00    +0.129 C 
ENDBRANCH  22   5
ENDBRANCH  12  13
ENDBRANCH   2  12
TORSDOF 5
ENDMDL
MODEL 4
REMARK VINA RESULT:      -7.1     27.809     30.011
REMARK  Name = 51137866
REMARK  7 active torsions:
REMARK  status: ('A' for Active; 'I' for Inactive)
REMARK    1  A    between atoms: N_2  and  C_12
REMARK    2  A    between atoms: N_5  and  C_22
REMARK    3  A    between atoms: N_5  and  C_26
REMARK    4  A    between atoms: N_5  and  C_27
REMARK    5  A    between atoms: C_7  and  C_11
REMARK    6  A    between atoms: C_12  and  C_13
REMARK    7  A    between atoms: C_18  and  C_25
REMARK                            x       y       z     vdW  Elec       q    Type
REMARK                         _______ _______ _______ _____ _____    ______ ____
ROOT
ATOM      2  N   UNL     1      -2.836 -11.355  11.858  0.00  0.00    -0.297 NA
ATOM      7  C   UNL     1      -3.084 -10.461  14.013  0.00  0.00    +0.070 C 
ATOM      8  C   UNL     1      -1.867 -11.402  13.983  0.00  0.00    +0.028 C 
ATOM      9  C   UNL     1      -3.868 -10.799  12.737  0.00  0.00    +0.096 C 
ATOM     10  C   UNL     1      -2.042 -12.233  12.718  0.00  0.00    +0.085 C 
ENDROOT
BRANCH   7  11
ATOM      3  N   UNL     1      -5.075  -9.824  15.403  0.00  0.00    -0.342 N 
ATOM      4  N   UNL     1      -3.685 -11.296  16.321  0.00  0.00    -0.231 NA
ATOM     11  C   UNL     1      -3.926 -10.553  15.264  0.00  0.00    +0.113 A 
ATOM     14  C   UNL     1      -5.611 -10.116  16.630  0.00  0.00    +0.067 A 
ATOM     15  C   UNL     1      -4.726 -11.037  17.183  0.00  0.00    +0.101 A 
ATOM     18  C   UNL     1      -4.986 -11.552  18.465  0.00  0.00    +0.064 A 
ATOM     19  C   UNL     1      -6.759  -9.668  17.284  0.00  0.00    +0.028 A 
ATOM     23  C   UNL     1      -6.133 -11.116  19.140  0.00  0.00    +0.015 A 
ATOM     24  C   UNL     1      -7.003 -10.191  18.557  0.00  0.00    +0.003 A 
ATOM     28  H   UNL     1      -5.463  -9.183  14.723  0.00  0.00    +0.167 HD
BRANCH  18  25
ATOM      1  O   UNL     1      -3.368 -12.203  20.048  0.00  0.00    -0.270 OA
ATOM      6  N   UNL     1      -4.067 -13.806  18.564  0.00  0.00    -0.325 N 
ATOM     25  C   UNL     1      -4.088 -12.512  19.080  0.00  0.00    +0.244 C 
ATOM     29  H   UNL     1      -3.456 -14.507  18.972  0.00  0.00    +0.145 HD
ATOM     30  H   UNL     1      -4.635 -14.113  17.783  0.00  0.00    +0.145 HD
ENDBRANCH  18  25
ENDBRANCH   7  11
BRANCH   2  12
ATOM     12  C   UNL     1      -3.400 -12.059  10.717  0.00  0.00    +0.119 C 
BRANCH  12  13
ATOM     13  C   UNL     1      -4.352 -11.191   9.938  0.00  0.00    -0.033 A 
ATOM     16  C   UNL     1      -3.923  -9.966   9.427  0.00  0.00    +0.007 A 
ATOM     17  C   UNL     1      -5.665 -11.614   9.725  0.00  0.00    +0.007 A 
ATOM     20  C   UNL     1      -4.806  -9.163   8.705  0.00  0.00    +0.023 A 
ATOM     21  C   UNL     1      -6.548 -10.811   9.002  0.00  0.00    +0.023 A 
ATOM     22  C   UNL     1      -6.117  -9.586   8.493  0.00  0.00    +0.029 A 
BRANCH  22   5
ATOM      5  N   UNL     1      -7.010  -8.775   7.762  0.00  0.00    -0.336 N 
ATOM     26  C   UNL     1      -7.661  -7.644   8.394  0.00  0.00    +0.129 C 
ATOM     27  C   UNL     1      -7.296  -9.066   6.371  0.00  0.00    +0.129 C 
ENDBRANCH  22   5
ENDBRANCH  12  13
ENDBRANCH   2  12
TORSDOF 5
ENDMDL
MODEL 5
REMARK VINA RESULT:      -7.1     27.026     29.415
REMARK  Name = 51137866
REMARK  7 active torsions:
REMARK  status: ('A' for Active; 'I' for Inactive)
REMARK    1  A    between atoms: N_2  and  C_12
REMARK    2  A    between atoms: N_5  and  C_22
REMARK    3  A    between atoms: N_5  and  C_26
REMARK    4  A    between atoms: N_5  and  C_27
REMARK    5  A    between atoms: C_7  and  C_11
REMARK    6  A    between atoms: C_12  and  C_13
REMARK    7  A    between atoms: C_18  and  C_25
REMARK                            x       y       z     vdW  Elec       q    Type
REMARK                         _______ _______ _______ _____ _____    ______ ____
ROOT
ATOM      2  N   UNL     1      -1.917 -11.038  13.687  0.00  0.00    -0.297 NA
ATOM      7  C   UNL     1      -3.042 -10.160  15.549  0.00  0.00    +0.070 C 
ATOM      8  C   UNL     1      -1.769 -10.890  16.014  0.00  0.00    +0.028 C 
ATOM      9  C   UNL     1      -3.263 -10.643  14.109  0.00  0.00    +0.096 C 
ATOM     10  C   UNL     1      -1.360 -11.760  14.832  0.00  0.00    +0.085 C 
ENDROOT
BRANCH   7  11
ATOM      3  N   UNL     1      -4.212 -11.215  17.504  0.00  0.00    -0.342 N 
ATOM      4  N   UNL     1      -5.428  -9.800  16.297  0.00  0.00    -0.231 NA
ATOM     11  C   UNL     1      -4.250 -10.368  16.432  0.00  0.00    +0.113 A 
ATOM     14  C   UNL     1      -5.445 -11.192  18.101  0.00  0.00    +0.067 A 
ATOM     15  C   UNL     1      -6.187 -10.301  17.330  0.00  0.00    +0.101 A 
ATOM     18  C   UNL     1      -7.524 -10.044  17.676  0.00  0.00    +0.064 A 
ATOM     19  C   UNL     1      -5.961 -11.854  19.216  0.00  0.00    +0.028 A 
ATOM     23  C   UNL     1      -8.063 -10.697  18.792  0.00  0.00    +0.015 A 
ATOM     24  C   UNL     1      -7.293 -11.585  19.547  0.00  0.00    +0.003 A 
ATOM     28  H   UNL     1      -3.416 -11.761  17.806  0.00  0.00    +0.167 HD
BRANCH  18  25
ATOM      1  O   UNL     1      -9.134  -8.341  17.440  0.00  0.00    -0.270 OA
ATOM      6  N   UNL     1      -8.175  -9.133  15.513  0.00  0.00    -0.325 N 
ATOM     25  C   UNL     1      -8.333  -9.125  16.897  0.00  0.00    +0.244 C 
ATOM     29  H   UNL     1      -8.719  -8.500  14.935  0.00  0.00    +0.145 HD
ATOM     30  H   UNL     1      -7.535  -9.744  15.019  0.00  0.00    +0.145 HD
ENDBRANCH  18  25
ENDBRANCH   7  11
BRANCH   2  12
ATOM     12  C   UNL     1      -1.928 -11.844  12.476  0.00  0.00    +0.119 C 
BRANCH  12  13
ATOM     13  C   UNL     1      -2.844 -11.268  11.428  0.00  0.00    -0.033 A 
ATOM     16  C   UNL     1      -2.683  -9.947  11.010  0.00  0.00    +0.007 A 
ATOM     17  C   UNL     1      -3.852 -12.057  10.874  0.00  0.00    +0.007 A 
ATOM     20  C   UNL     1      -3.531  -9.414  10.039  0.00  0.00    +0.023 A 
ATOM     21  C   UNL     1      -4.700 -11.524   9.903  0.00  0.00    +0.023 A 
ATOM     22  C   UNL     1      -4.539 -10.203   9.486  0.00  0.00    +0.029 A 
BRANCH  22   5
ATOM      5  N   UNL     1      -5.396  -9.665   8.504  0.00  0.00    -0.336 N 
ATOM     26  C   UNL     1      -5.369 -10.173   7.146  0.00  0.00    +0.129 C 
ATOM     27  C   UNL     1      -6.312  -8.591   8.837  0.00  0.00    +0.129 C 
ENDBRANCH  22   5
ENDBRANCH  12  13
ENDBRANCH   2  12
TORSDOF 5
ENDMDL
MODEL 6
REMARK VINA RESULT:      -7.0     28.460     31.993
REMARK  Name = 51137866
REMARK  7 active torsions:
REMARK  status: ('A' for Active; 'I' for Inactive)
REMARK    1  A    between atoms: N_2  and  C_12
REMARK    2  A    between atoms: N_5  and  C_22
REMARK    3  A    between atoms: N_5  and  C_26
REMARK    4  A    between atoms: N_5  and  C_27
REMARK    5  A    between atoms: C_7  and  C_11
REMARK    6  A    between atoms: C_12  and  C_13
REMARK    7  A    between atoms: C_18  and  C_25
REMARK                            x       y       z     vdW  Elec       q    Type
REMARK                         _______ _______ _______ _____ _____    ______ ____
ROOT
ATOM      2  N   UNL     1     -13.521   6.385  21.355  0.00  0.00    -0.297 NA
ATOM      7  C   UNL     1     -15.336   5.142  22.171  0.00  0.00    +0.070 C 
ATOM      8  C   UNL     1     -15.598   6.642  22.393  0.00  0.00    +0.028 C 
ATOM      9  C   UNL     1     -13.832   5.050  21.872  0.00  0.00    +0.096 C 
ATOM     10  C   UNL     1     -14.236   7.308  22.237  0.00  0.00    +0.085 C 
ENDROOT
BRANCH   7  11
ATOM      3  N   UNL     1     -15.543   4.598  24.613  0.00  0.00    -0.342 N 
ATOM      4  N   UNL     1     -16.369   3.084  23.211  0.00  0.00    -0.231 NA
ATOM     11  C   UNL     1     -15.765   4.247  23.310  0.00  0.00    +0.113 A 
ATOM     14  C   UNL     1     -16.037   3.596  25.407  0.00  0.00    +0.067 A 
ATOM     15  C   UNL     1     -16.548   2.663  24.509  0.00  0.00    +0.101 A 
ATOM     18  C   UNL     1     -17.140   1.488  25.003  0.00  0.00    +0.064 A 
ATOM     19  C   UNL     1     -16.081   3.430  26.792  0.00  0.00    +0.028 A 
ATOM     23  C   UNL     1     -17.195   1.301  26.390  0.00  0.00    +0.015 A 
ATOM     24  C   UNL     1     -16.675   2.256  27.267  0.00  0.00    +0.003 A 
ATOM     28  H   UNL     1     -15.096   5.445  24.937  0.00  0.00    +0.167 HD
BRANCH  18  25
ATOM      1  O   UNL     1     -17.409  -0.720  24.229  0.00  0.00    -0.270 OA
ATOM      6  N   UNL     1     -18.538   0.920  23.091  0.00  0.00    -0.325 N 
ATOM     25  C   UNL     1     -17.681   0.489  24.102  0.00  0.00    +0.244 C 
ATOM     29  H   UNL     1     -18.941   0.250  22.444  0.00  0.00    +0.145 HD
ATOM     30  H   UNL     1     -18.799   1.889  22.945  0.00  0.00    +0.145 HD
ENDBRANCH  18  25
ENDBRANCH   7  11
BRANCH   2  12
ATOM     12  C   UNL     1     -12.091   6.648  21.320  0.00  0.00    +0.119 C 
BRANCH  12  13
ATOM     13  C   UNL     1     -11.716   7.567  20.188  0.00  0.00    -0.033 A 
ATOM     16  C   UNL     1     -11.665   8.945  20.396  0.00  0.00    +0.007 A 
ATOM     17  C   UNL     1     -11.418   7.039  18.932  0.00  0.00    +0.007 A 
ATOM     20  C   UNL     1     -11.317   9.797  19.347  0.00  0.00    +0.023 A 
ATOM     21  C   UNL     1     -11.069   7.890  17.882  0.00  0.00    +0.023 A 
ATOM     22  C   UNL     1     -11.019   9.269  18.091  0.00  0.00    +0.029 A 
BRANCH  22   5
ATOM      5  N   UNL     1     -10.667  10.129  17.030  0.00  0.00    -0.336 N 
ATOM     26  C   UNL     1     -11.054   9.814  15.670  0.00  0.00    +0.129 C 
ATOM     27  C   UNL     1      -9.905  11.336  17.286  0.00  0.00    +0.129 C 
ENDBRANCH  22   5
ENDBRANCH  12  13
ENDBRANCH   2  12
TORSDOF 5
ENDMDL
MODEL 7
REMARK VINA RESULT:      -7.0      1.852      2.706
REMARK  Name = 51137866
REMARK  7 active torsions:
REMARK  status: ('A' for Active; 'I' for Inactive)
REMARK    1  A    between atoms: N_2  and  C_12
REMARK    2  A    between atoms: N_5  and  C_22
REMARK    3  A    between atoms: N_5  and  C_26
REMARK    4  A    between atoms: N_5  and  C_27
REMARK    5  A    between atoms: C_7  and  C_11
REMARK    6  A    between atoms: C_12  and  C_13
REMARK    7  A    between atoms: C_18  and  C_25
REMARK                            x       y       z     vdW  Elec       q    Type
REMARK                         _______ _______ _______ _____ _____    ______ ____
ROOT
ATOM      2  N   UNL     1      18.493   7.354  21.415  0.00  0.00    -0.297 NA
ATOM      7  C   UNL     1      16.325   7.582  20.546  0.00  0.00    +0.070 C 
ATOM      8  C   UNL     1      17.041   8.943  20.508  0.00  0.00    +0.028 C 
ATOM      9  C   UNL     1      17.172   6.724  21.497  0.00  0.00    +0.096 C 
ATOM     10  C   UNL     1      18.227   8.792  21.452  0.00  0.00    +0.085 C 
ENDROOT
BRANCH   7  11
ATOM      3  N   UNL     1      14.049   6.556  20.805  0.00  0.00    -0.342 N 
ATOM      4  N   UNL     1      14.234   8.675  21.449  0.00  0.00    -0.231 NA
ATOM     11  C   UNL     1      14.869   7.640  20.946  0.00  0.00    +0.113 A 
ATOM     14  C   UNL     1      12.802   6.914  21.247  0.00  0.00    +0.067 A 
ATOM     15  C   UNL     1      12.943   8.241  21.644  0.00  0.00    +0.101 A 
ATOM     18  C   UNL     1      11.828   8.925  22.157  0.00  0.00    +0.064 A 
ATOM     19  C   UNL     1      11.598   6.212  21.332  0.00  0.00    +0.028 A 
ATOM     23  C   UNL     1      10.609   8.240  22.251  0.00  0.00    +0.015 A 
ATOM     24  C   UNL     1      10.499   6.908  21.846  0.00  0.00    +0.003 A 
ATOM     28  H   UNL     1      14.312   5.650  20.442  0.00  0.00    +0.167 HD
BRANCH  18  25
ATOM      1  O   UNL     1      11.159  11.184  22.141  0.00  0.00    -0.270 OA
ATOM      6  N   UNL     1      12.914  10.634  23.511  0.00  0.00    -0.325 N 
ATOM     25  C   UNL     1      11.930  10.309  22.579  0.00  0.00    +0.244 C 
ATOM     29  H   UNL     1      13.013  11.591  23.835  0.00  0.00    +0.145 HD
ATOM     30  H   UNL     1      13.564   9.963  23.905  0.00  0.00    +0.145 HD
ENDBRANCH  18  25
ENDBRANCH   7  11
BRANCH   2  12
ATOM     12  C   UNL     1      19.379   6.926  22.486  0.00  0.00    +0.119 C 
BRANCH  12  13
ATOM     13  C   UNL     1      20.543   6.126  21.964  0.00  0.00    -0.033 A 
ATOM     16  C   UNL     1      21.784   6.205  22.598  0.00  0.00    +0.007 A 
ATOM     17  C   UNL     1      20.381   5.305  20.849  0.00  0.00    +0.007 A 
ATOM     20  C   UNL     1      22.862   5.463  22.115  0.00  0.00    +0.023 A 
ATOM     21  C   UNL     1      21.459   4.562  20.366  0.00  0.00    +0.023 A 
ATOM     22  C   UNL     1      22.699   4.642  21.000  0.00  0.00    +0.029 A 
BRANCH  22   5
ATOM      5  N   UNL     1      23.788   3.891  20.511  0.00  0.00    -0.336 N 
ATOM     26  C   UNL     1      23.810   2.448  20.654  0.00  0.00    +0.129 C 
ATOM     27  C   UNL     1      24.906   4.553  19.867  0.00  0.00    +0.129 C 
ENDBRANCH  22   5
ENDBRANCH  12  13
ENDBRANCH   2  12
TORSDOF 5
ENDMDL
MODEL 8
REMARK VINA RESULT:      -6.8     27.751     29.898
REMARK  Name = 51137866
REMARK  7 active torsions:
REMARK  status: ('A' for Active; 'I' for Inactive)
REMARK    1  A    between atoms: N_2  and  C_12
REMARK    2  A    between atoms: N_5  and  C_22
REMARK    3  A    between atoms: N_5  and  C_26
REMARK    4  A    between atoms: N_5  and  C_27
REMARK    5  A    between atoms: C_7  and  C_11
REMARK    6  A    between atoms: C_12  and  C_13
REMARK    7  A    between atoms: C_18  and  C_25
REMARK                            x       y       z     vdW  Elec       q    Type
REMARK                         _______ _______ _______ _____ _____    ______ ____
ROOT
ATOM      2  N   UNL     1      -2.656 -11.558  12.196  0.00  0.00    -0.297 NA
ATOM      7  C   UNL     1      -2.929 -10.645  14.340  0.00  0.00    +0.070 C 
ATOM      8  C   UNL     1      -1.744 -11.627  14.346  0.00  0.00    +0.028 C 
ATOM      9  C   UNL     1      -3.691 -10.963  13.046  0.00  0.00    +0.096 C 
ATOM     10  C   UNL     1      -1.915 -12.458  13.080  0.00  0.00    +0.085 C 
ENDROOT
BRANCH   7  11
ATOM      3  N   UNL     1      -3.397 -11.340  16.706  0.00  0.00    -0.342 N 
ATOM      4  N   UNL     1      -5.006 -10.181  15.702  0.00  0.00    -0.231 NA
ATOM     11  C   UNL     1      -3.807 -10.702  15.569  0.00  0.00    +0.113 A 
ATOM     14  C   UNL     1      -4.398 -11.223  17.636  0.00  0.00    +0.067 A 
ATOM     15  C   UNL     1      -5.391 -10.495  16.986  0.00  0.00    +0.101 A 
ATOM     18  C   UNL     1      -6.580 -10.194  17.671  0.00  0.00    +0.064 A 
ATOM     19  C   UNL     1      -4.517 -11.677  18.950  0.00  0.00    +0.028 A 
ATOM     23  C   UNL     1      -6.721 -10.639  18.992  0.00  0.00    +0.015 A 
ATOM     24  C   UNL     1      -5.706 -11.367  19.618  0.00  0.00    +0.003 A 
ATOM     28  H   UNL     1      -2.515 -11.814  16.842  0.00  0.00    +0.167 HD
BRANCH  18  25
ATOM      1  O   UNL     1      -8.433  -8.739  17.687  0.00  0.00    -0.270 OA
ATOM      6  N   UNL     1      -7.739  -9.509  15.641  0.00  0.00    -0.325 N 
ATOM     25  C   UNL     1      -7.641  -9.440  17.030  0.00  0.00    +0.244 C 
ATOM     29  H   UNL     1      -8.465  -8.990  15.156  0.00  0.00    +0.145 HD
ATOM     30  H   UNL     1      -7.119 -10.057  15.056  0.00  0.00    +0.145 HD
ENDBRANCH  18  25
ENDBRANCH   7  11
BRANCH   2  12
ATOM     12  C   UNL     1      -3.214 -12.248  11.043  0.00  0.00    +0.119 C 
BRANCH  12  13
ATOM     13  C   UNL     1      -4.145 -11.364  10.257  0.00  0.00    -0.033 A 
ATOM     16  C   UNL     1      -5.467 -11.756  10.045  0.00  0.00    +0.007 A 
ATOM     17  C   UNL     1      -3.686 -10.152   9.741  0.00  0.00    +0.007 A 
ATOM     20  C   UNL     1      -6.329 -10.937   9.317  0.00  0.00    +0.023 A 
ATOM     21  C   UNL     1      -4.549  -9.332   9.013  0.00  0.00    +0.023 A 
ATOM     22  C   UNL     1      -5.870  -9.725   8.802  0.00  0.00    +0.029 A 
BRANCH  22   5
ATOM      5  N   UNL     1      -6.742  -8.896   8.065  0.00  0.00    -0.336 N 
ATOM     26  C   UNL     1      -7.415  -7.784   8.707  0.00  0.00    +0.129 C 
ATOM     27  C   UNL     1      -6.983  -9.150   6.658  0.00  0.00    +0.129 C 
ENDBRANCH  22   5
ENDBRANCH  12  13
ENDBRANCH   2  12
TORSDOF 5
ENDMDL
MODEL 9
REMARK VINA RESULT:      -6.5     28.373     32.402
REMARK  Name = 51137866
REMARK  7 active torsions:
REMARK  status: ('A' for Active; 'I' for Inactive)
REMARK    1  A    between atoms: N_2  and  C_12
REMARK    2  A    between atoms: N_5  and  C_22
REMARK    3  A    between atoms: N_5  and  C_26
REMARK    4  A    between atoms: N_5  and  C_27
REMARK    5  A    between atoms: C_7  and  C_11
REMARK    6  A    between atoms: C_12  and  C_13
REMARK    7  A    between atoms: C_18  and  C_25
REMARK                            x       y       z     vdW  Elec       q    Type
REMARK                         _______ _______ _______ _____ _____    ______ ____
ROOT
ATOM      2  N   UNL     1     -14.681   6.550  21.985  0.00  0.00    -0.297 NA
ATOM      7  C   UNL     1     -15.352   4.459  22.810  0.00  0.00    +0.070 C 
ATOM      8  C   UNL     1     -16.490   5.073  21.976  0.00  0.00    +0.028 C 
ATOM      9  C   UNL     1     -14.400   5.631  23.091  0.00  0.00    +0.096 C 
ATOM     10  C   UNL     1     -16.138   6.550  21.856  0.00  0.00    +0.085 C 
ENDROOT
BRANCH   7  11
ATOM      3  N   UNL     1     -16.135   2.424  24.053  0.00  0.00    -0.342 N 
ATOM      4  N   UNL     1     -15.917   4.274  25.266  0.00  0.00    -0.231 NA
ATOM     11  C   UNL     1     -15.798   3.748  24.066  0.00  0.00    +0.113 A 
ATOM     14  C   UNL     1     -16.494   2.069  25.327  0.00  0.00    +0.067 A 
ATOM     15  C   UNL     1     -16.349   3.241  26.066  0.00  0.00    +0.101 A 
ATOM     18  C   UNL     1     -16.644   3.225  27.440  0.00  0.00    +0.064 A 
ATOM     19  C   UNL     1     -16.920   0.862  25.882  0.00  0.00    +0.028 A 
ATOM     23  C   UNL     1     -17.073   2.024  28.018  0.00  0.00    +0.015 A 
ATOM     24  C   UNL     1     -17.207   0.864  27.251  0.00  0.00    +0.003 A 
ATOM     28  H   UNL     1     -16.121   1.811  23.249  0.00  0.00    +0.167 HD
BRANCH  18  25
ATOM      1  O   UNL     1     -15.879   4.422  29.319  0.00  0.00    -0.270 OA
ATOM      6  N   UNL     1     -17.096   5.596  27.770  0.00  0.00    -0.325 N 
ATOM     25  C   UNL     1     -16.509   4.425  28.245  0.00  0.00    +0.244 C 
ATOM     29  H   UNL     1     -17.018   6.457  28.303  0.00  0.00    +0.145 HD
ATOM     30  H   UNL     1     -17.614   5.658  26.902  0.00  0.00    +0.145 HD
ENDBRANCH  18  25
ENDBRANCH   7  11
BRANCH   2  12
ATOM     12  C   UNL     1     -14.145   7.882  22.222  0.00  0.00    +0.119 C 
BRANCH  12  13
ATOM     13  C   UNL     1     -13.223   8.320  21.115  0.00  0.00    -0.033 A 
ATOM     16  C   UNL     1     -12.987   7.477  20.028  0.00  0.00    +0.007 A 
ATOM     17  C   UNL     1     -12.606   9.570  21.175  0.00  0.00    +0.007 A 
ATOM     20  C   UNL     1     -12.134   7.884  19.002  0.00  0.00    +0.023 A 
ATOM     21  C   UNL     1     -11.753   9.977  20.149  0.00  0.00    +0.023 A 
ATOM     22  C   UNL     1     -11.517   9.133  19.063  0.00  0.00    +0.029 A 
BRANCH  22   5
ATOM      5  N   UNL     1     -10.655   9.546  18.026  0.00  0.00    -0.336 N 
ATOM     26  C   UNL     1     -10.141  10.900  17.992  0.00  0.00    +0.129 C 
ATOM     27  C   UNL     1     -10.277   8.621  16.975  0.00  0.00    +0.129 C 
ENDBRANCH  22   5
ENDBRANCH  12  13
ENDBRANCH   2  12
TORSDOF 5
ENDMDL
MODEL 10
REMARK VINA RESULT:      -6.5     28.587     32.832
REMARK  Name = 51137866
REMARK  7 active torsions:
REMARK  status: ('A' for Active; 'I' for Inactive)
REMARK    1  A    between atoms: N_2  and  C_12
REMARK    2  A    between atoms: N_5  and  C_22
REMARK    3  A    between atoms: N_5  and  C_26
REMARK    4  A    between atoms: N_5  and  C_27
REMARK    5  A    between atoms: C_7  and  C_11
REMARK    6  A    between atoms: C_12  and  C_13
REMARK    7  A    between atoms: C_18  and  C_25
REMARK                            x       y       z     vdW  Elec       q    Type
REMARK                         _______ _______ _______ _____ _____    ______ ____
ROOT
ATOM      2  N   UNL     1     -11.141  -7.155  15.655  0.00  0.00    -0.297 NA
ATOM      7  C   UNL     1      -9.938  -9.059  16.310  0.00  0.00    +0.070 C 
ATOM      8  C   UNL     1     -10.797  -8.562  17.486  0.00  0.00    +0.028 C 
ATOM      9  C   UNL     1      -9.914  -7.884  15.323  0.00  0.00    +0.096 C 
ATOM     10  C   UNL     1     -11.184  -7.136  17.117  0.00  0.00    +0.085 C 
ENDROOT
BRANCH   7  11
ATOM      3  N   UNL     1      -7.482  -9.332  15.870  0.00  0.00    -0.342 N 
ATOM      4  N   UNL     1      -8.221 -10.176  17.789  0.00  0.00    -0.231 NA
ATOM     11  C   UNL     1      -8.557  -9.537  16.690  0.00  0.00    +0.113 A 
ATOM     14  C   UNL     1      -6.380  -9.873  16.479  0.00  0.00    +0.067 A 
ATOM     15  C   UNL     1      -6.866 -10.393  17.675  0.00  0.00    +0.101 A 
ATOM     18  C   UNL     1      -5.977 -11.032  18.556  0.00  0.00    +0.064 A 
ATOM     19  C   UNL     1      -5.040  -9.949  16.099  0.00  0.00    +0.028 A 
ATOM     23  C   UNL     1      -4.627 -11.121  18.195  0.00  0.00    +0.015 A 
ATOM     24  C   UNL     1      -4.169 -10.587  16.988  0.00  0.00    +0.003 A 
ATOM     28  H   UNL     1      -7.495  -8.864  14.974  0.00  0.00    +0.167 HD
BRANCH  18  25
ATOM      1  O   UNL     1      -5.909 -11.293  20.896  0.00  0.00    -0.270 OA
ATOM      6  N   UNL     1      -7.527 -12.466  19.771  0.00  0.00    -0.325 N 
ATOM     25  C   UNL     1      -6.443 -11.591  19.811  0.00  0.00    +0.244 C 
ATOM     29  H   UNL     1      -7.886 -12.872  20.629  0.00  0.00    +0.145 HD
ATOM     30  H   UNL     1      -8.004 -12.739  18.919  0.00  0.00    +0.145 HD
ENDBRANCH  18  25
ENDBRANCH   7  11
BRANCH   2  12
ATOM     12  C   UNL     1     -11.164  -5.817  15.082  0.00  0.00    +0.119 C 
BRANCH  12  13
ATOM     13  C   UNL     1     -12.304  -5.640  14.115  0.00  0.00    -0.033 A 
ATOM     16  C   UNL     1     -13.386  -6.521  14.143  0.00  0.00    +0.007 A 
ATOM     17  C   UNL     1     -12.279  -4.595  13.191  0.00  0.00    +0.007 A 
ATOM     20  C   UNL     1     -14.442  -6.357  13.247  0.00  0.00    +0.023 A 
ATOM     21  C   UNL     1     -13.336  -4.430  12.296  0.00  0.00    +0.023 A 
ATOM     22  C   UNL     1     -14.417  -5.311  12.324  0.00  0.00    +0.029 A 
BRANCH  22   5
ATOM      5  N   UNL     1     -15.485  -5.144  11.418  0.00  0.00    -0.336 N 
ATOM     26  C   UNL     1     -16.451  -6.206  11.217  0.00  0.00    +0.129 C 
ATOM     27  C   UNL     1     -15.626  -3.910  10.669  0.00  0.00    +0.129 C 
ENDBRANCH  22   5
ENDBRANCH  12  13
ENDBRANCH   2  12
TORSDOF 5
ENDMDL
