MODEL 1
REMARK VINA RESULT:      -6.5      0.000      0.000
REMARK  Name = 56775859
REMARK  6 active torsions:
REMARK  status: ('A' for Active; 'I' for Inactive)
REMARK    1  A    between atoms: O_3  and  C_27
REMARK    2  A    between atoms: N_5  and  C_11
REMARK    3  A    between atoms: C_8  and  C_13
REMARK    4  A    between atoms: C_11  and  C_14
REMARK    5  A    between atoms: C_15  and  C_19
REMARK    6  A    between atoms: C_22  and  C_27
REMARK                            x       y       z     vdW  Elec       q    Type
REMARK                         _______ _______ _______ _____ _____    ______ ____
ROOT
ATOM      2  O   UNL     1     -14.775   8.605  33.467  0.00  0.00    -0.377 OA
ATOM      5  N   UNL     1     -14.271   5.788  33.354  0.00  0.00    -0.285 NA
ATOM      8  C   UNL     1     -15.608   6.348  33.032  0.00  0.00    +0.149 C 
ATOM      9  C   UNL     1     -13.550   6.687  34.272  0.00  0.00    +0.113 C 
ATOM     10  C   UNL     1     -15.467   7.794  32.518  0.00  0.00    +0.186 C 
ATOM     12  C   UNL     1     -13.464   8.093  33.695  0.00  0.00    +0.175 C 
ENDROOT
BRANCH   8  13
ATOM      6  N   UNL     1     -15.939   5.409  30.716  0.00  0.00    -0.341 N 
ATOM      7  N   UNL     1     -17.503   4.878  32.200  0.00  0.00    -0.238 NA
ATOM     13  C   UNL     1     -16.380   5.532  32.004  0.00  0.00    +0.127 A 
ATOM     15  C   UNL     1     -16.838   4.625  30.048  0.00  0.00    +0.066 A 
ATOM     16  C   UNL     1     -17.794   4.312  30.984  0.00  0.00    +0.139 A 
ATOM     29  H   UNL     1     -15.093   5.817  30.338  0.00  0.00    +0.167 HD
BRANCH  15  19
ATOM      1 CL   UNL     1     -16.285   3.182  24.303  0.00  0.00    -0.084 Cl
ATOM     19  C   UNL     1     -16.704   4.276  28.658  0.00  0.00    -0.000 A 
ATOM     23  C   UNL     1     -17.154   5.154  27.672  0.00  0.00    +0.011 A 
ATOM     24  C   UNL     1     -16.124   3.060  28.298  0.00  0.00    +0.011 A 
ATOM     25  C   UNL     1     -17.025   4.817  26.326  0.00  0.00    +0.020 A 
ATOM     26  C   UNL     1     -15.994   2.722  26.950  0.00  0.00    +0.020 A 
ATOM     28  C   UNL     1     -16.445   3.600  25.965  0.00  0.00    +0.041 A 
ENDBRANCH  15  19
ENDBRANCH   8  13
BRANCH   5  11
ATOM     11  C   UNL     1     -14.362   4.454  33.959  0.00  0.00    +0.120 C 
BRANCH  11  14
ATOM     14  C   UNL     1     -14.276   3.362  32.925  0.00  0.00    -0.033 A 
ATOM     17  C   UNL     1     -13.390   3.485  31.854  0.00  0.00    +0.006 A 
ATOM     18  C   UNL     1     -15.082   2.230  33.037  0.00  0.00    +0.006 A 
ATOM     20  C   UNL     1     -13.310   2.475  30.897  0.00  0.00    +0.015 A 
ATOM     21  C   UNL     1     -15.001   1.219  32.079  0.00  0.00    +0.015 A 
ATOM     22  C   UNL     1     -14.115   1.342  31.009  0.00  0.00    +0.059 A 
BRANCH  22  27
ATOM      4  O   UNL     1     -14.974  -0.122  29.323  0.00  0.00    -0.245 OA
ATOM     27  C   UNL     1     -14.032   0.287  30.012  0.00  0.00    +0.337 C 
BRANCH  27   3
ATOM      3  O   UNL     1     -12.778  -0.229  29.901  0.00  0.00    -0.477 OA
ATOM     30  H   UNL     1     -12.088   0.464  29.993  0.00  0.00    +0.295 HD
ENDBRANCH  27   3
ENDBRANCH  22  27
ENDBRANCH  11  14
ENDBRANCH   5  11
TORSDOF 6
ENDMDL
MODEL 2
REMARK VINA RESULT:      -6.4     35.830     37.868
REMARK  Name = 56775859
REMARK  6 active torsions:
REMARK  status: ('A' for Active; 'I' for Inactive)
REMARK    1  A    between atoms: O_3  and  C_27
REMARK    2  A    between atoms: N_5  and  C_11
REMARK    3  A    between atoms: C_8  and  C_13
REMARK    4  A    between atoms: C_11  and  C_14
REMARK    5  A    between atoms: C_15  and  C_19
REMARK    6  A    between atoms: C_22  and  C_27
REMARK                            x       y       z     vdW  Elec       q    Type
REMARK                         _______ _______ _______ _____ _____    ______ ____
ROOT
ATOM      2  O   UNL     1      14.085   8.163   3.993  0.00  0.00    -0.377 OA
ATOM      5  N   UNL     1      11.766   6.683   4.789  0.00  0.00    -0.285 NA
ATOM      8  C   UNL     1      12.111   6.870   3.356  0.00  0.00    +0.149 C 
ATOM      9  C   UNL     1      12.317   7.787   5.594  0.00  0.00    +0.113 C 
ATOM     10  C   UNL     1      13.631   7.067   3.199  0.00  0.00    +0.186 C 
ATOM     12  C   UNL     1      13.817   7.921   5.373  0.00  0.00    +0.175 C 
ENDROOT
BRANCH   8  13
ATOM      6  N   UNL     1      11.333   5.914   1.157  0.00  0.00    -0.341 N 
ATOM      7  N   UNL     1      11.557   4.452   2.815  0.00  0.00    -0.238 NA
ATOM     13  C   UNL     1      11.669   5.715   2.467  0.00  0.00    +0.127 A 
ATOM     15  C   UNL     1      10.983   4.699   0.635  0.00  0.00    +0.066 A 
ATOM     16  C   UNL     1      11.129   3.814   1.677  0.00  0.00    +0.139 A 
ATOM     29  H   UNL     1      11.352   6.800   0.669  0.00  0.00    +0.167 HD
BRANCH  15  19
ATOM      1 CL   UNL     1       9.260   3.935  -5.007  0.00  0.00    -0.084 Cl
ATOM     19  C   UNL     1      10.566   4.515  -0.730  0.00  0.00    -0.000 A 
ATOM     23  C   UNL     1      11.165   3.529  -1.514  0.00  0.00    +0.011 A 
ATOM     24  C   UNL     1       9.563   5.321  -1.267  0.00  0.00    +0.011 A 
ATOM     25  C   UNL     1      10.762   3.350  -2.837  0.00  0.00    +0.020 A 
ATOM     26  C   UNL     1       9.159   5.141  -2.590  0.00  0.00    +0.020 A 
ATOM     28  C   UNL     1       9.759   4.156  -3.375  0.00  0.00    +0.041 A 
ENDBRANCH  15  19
ENDBRANCH   8  13
BRANCH   5  11
ATOM     11  C   UNL     1      10.316   6.608   5.003  0.00  0.00    +0.120 C 
BRANCH  11  14
ATOM     14  C   UNL     1       9.979   6.096   6.379  0.00  0.00    -0.033 A 
ATOM     17  C   UNL     1       9.540   6.982   7.364  0.00  0.00    +0.006 A 
ATOM     18  C   UNL     1      10.104   4.738   6.669  0.00  0.00    +0.006 A 
ATOM     20  C   UNL     1       9.228   6.509   8.637  0.00  0.00    +0.015 A 
ATOM     21  C   UNL     1       9.791   4.265   7.943  0.00  0.00    +0.015 A 
ATOM     22  C   UNL     1       9.353   5.151   8.927  0.00  0.00    +0.059 A 
BRANCH  22  27
ATOM      4  O   UNL     1       7.884   4.442  10.677  0.00  0.00    -0.245 OA
ATOM     27  C   UNL     1       9.026   4.656  10.255  0.00  0.00    +0.337 C 
BRANCH  27   3
ATOM      3  O   UNL     1      10.132   4.442  11.018  0.00  0.00    -0.477 OA
ATOM     30  H   UNL     1      10.772   5.183  10.949  0.00  0.00    +0.295 HD
ENDBRANCH  27   3
ENDBRANCH  22  27
ENDBRANCH  11  14
ENDBRANCH   5  11
TORSDOF 6
ENDMDL
MODEL 3
REMARK VINA RESULT:      -6.3     35.011     36.940
REMARK  Name = 56775859
REMARK  6 active torsions:
REMARK  status: ('A' for Active; 'I' for Inactive)
REMARK    1  A    between atoms: O_3  and  C_27
REMARK    2  A    between atoms: N_5  and  C_11
REMARK    3  A    between atoms: C_8  and  C_13
REMARK    4  A    between atoms: C_11  and  C_14
REMARK    5  A    between atoms: C_15  and  C_19
REMARK    6  A    between atoms: C_22  and  C_27
REMARK                            x       y       z     vdW  Elec       q    Type
REMARK                         _______ _______ _______ _____ _____    ______ ____
ROOT
ATOM      2  O   UNL     1       8.266  11.113   3.773  0.00  0.00    -0.377 OA
ATOM      5  N   UNL     1       8.850   8.636   5.086  0.00  0.00    -0.285 NA
ATOM      8  C   UNL     1       9.931   9.497   4.543  0.00  0.00    +0.149 C 
ATOM      9  C   UNL     1       7.595   8.867   4.348  0.00  0.00    +0.113 C 
ATOM     10  C   UNL     1       9.474  10.969   4.519  0.00  0.00    +0.186 C 
ATOM     12  C   UNL     1       7.223  10.343   4.365  0.00  0.00    +0.175 C 
ENDROOT
BRANCH   8  13
ATOM      6  N   UNL     1      12.420   9.129   4.689  0.00  0.00    -0.341 N 
ATOM      7  N   UNL     1      11.396   9.548   6.615  0.00  0.00    -0.238 NA
ATOM     13  C   UNL     1      11.238   9.398   5.319  0.00  0.00    +0.127 A 
ATOM     15  C   UNL     1      13.397   9.105   5.646  0.00  0.00    +0.066 A 
ATOM     16  C   UNL     1      12.741   9.365   6.825  0.00  0.00    +0.139 A 
ATOM     29  H   UNL     1      12.543   8.985   3.695  0.00  0.00    +0.167 HD
BRANCH  15  19
ATOM      1 CL   UNL     1      19.127   8.042   4.448  0.00  0.00    -0.084 Cl
ATOM     19  C   UNL     1      14.783   8.847   5.355  0.00  0.00    -0.000 A 
ATOM     23  C   UNL     1      15.779   9.459   6.117  0.00  0.00    +0.011 A 
ATOM     24  C   UNL     1      15.129   7.986   4.314  0.00  0.00    +0.011 A 
ATOM     25  C   UNL     1      17.123   9.211   5.836  0.00  0.00    +0.020 A 
ATOM     26  C   UNL     1      16.473   7.737   4.034  0.00  0.00    +0.020 A 
ATOM     28  C   UNL     1      17.469   8.349   4.795  0.00  0.00    +0.041 A 
ENDBRANCH  15  19
ENDBRANCH   8  13
BRANCH   5  11
ATOM     11  C   UNL     1       9.192   7.211   5.020  0.00  0.00    +0.120 C 
BRANCH  11  14
ATOM     14  C   UNL     1       9.233   6.579   6.386  0.00  0.00    -0.033 A 
ATOM     17  C   UNL     1       8.777   7.290   7.496  0.00  0.00    +0.006 A 
ATOM     18  C   UNL     1       9.728   5.285   6.542  0.00  0.00    +0.006 A 
ATOM     20  C   UNL     1       8.815   6.706   8.761  0.00  0.00    +0.015 A 
ATOM     21  C   UNL     1       9.766   4.701   7.808  0.00  0.00    +0.015 A 
ATOM     22  C   UNL     1       9.309   5.412   8.917  0.00  0.00    +0.059 A 
BRANCH  22  27
ATOM      4  O   UNL     1      10.370   4.409  10.813  0.00  0.00    -0.245 OA
ATOM     27  C   UNL     1       9.349   4.801  10.237  0.00  0.00    +0.337 C 
BRANCH  27   3
ATOM      3  O   UNL     1       8.115   4.696  10.800  0.00  0.00    -0.477 OA
ATOM     30  H   UNL     1       7.873   3.762  10.980  0.00  0.00    +0.295 HD
ENDBRANCH  27   3
ENDBRANCH  22  27
ENDBRANCH  11  14
ENDBRANCH   5  11
TORSDOF 6
ENDMDL
MODEL 4
REMARK VINA RESULT:      -6.2     19.505     21.894
REMARK  Name = 56775859
REMARK  6 active torsions:
REMARK  status: ('A' for Active; 'I' for Inactive)
REMARK    1  A    between atoms: O_3  and  C_27
REMARK    2  A    between atoms: N_5  and  C_11
REMARK    3  A    between atoms: C_8  and  C_13
REMARK    4  A    between atoms: C_11  and  C_14
REMARK    5  A    between atoms: C_15  and  C_19
REMARK    6  A    between atoms: C_22  and  C_27
REMARK                            x       y       z     vdW  Elec       q    Type
REMARK                         _______ _______ _______ _____ _____    ______ ____
ROOT
ATOM      2  O   UNL     1     -10.138 -14.866  19.073  0.00  0.00    -0.377 OA
ATOM      5  N   UNL     1     -10.281 -12.015  18.837  0.00  0.00    -0.285 NA
ATOM      8  C   UNL     1      -9.088 -12.685  19.414  0.00  0.00    +0.149 C 
ATOM      9  C   UNL     1     -11.476 -12.857  19.020  0.00  0.00    +0.113 C 
ATOM     10  C   UNL     1      -8.950 -14.108  18.841  0.00  0.00    +0.186 C 
ATOM     12  C   UNL     1     -11.253 -14.246  18.437  0.00  0.00    +0.175 C 
ENDROOT
BRANCH   8  13
ATOM      6  N   UNL     1      -7.154 -11.969  17.964  0.00  0.00    -0.341 N 
ATOM      7  N   UNL     1      -7.140 -11.182  20.041  0.00  0.00    -0.238 NA
ATOM     13  C   UNL     1      -7.788 -11.928  19.174  0.00  0.00    +0.127 A 
ATOM     15  C   UNL     1      -6.029 -11.199  18.065  0.00  0.00    +0.066 A 
ATOM     16  C   UNL     1      -6.042 -10.726  19.355  0.00  0.00    +0.139 A 
ATOM     29  H   UNL     1      -7.473 -12.471  17.145  0.00  0.00    +0.167 HD
BRANCH  15  19
ATOM      1 CL   UNL     1      -2.204 -10.394  13.580  0.00  0.00    -0.084 Cl
ATOM     19  C   UNL     1      -5.103 -11.005  16.980  0.00  0.00    -0.000 A 
ATOM     23  C   UNL     1      -5.580 -10.760  15.692  0.00  0.00    +0.011 A 
ATOM     24  C   UNL     1      -3.730 -11.060  17.217  0.00  0.00    +0.011 A 
ATOM     25  C   UNL     1      -4.684 -10.572  14.641  0.00  0.00    +0.020 A 
ATOM     26  C   UNL     1      -2.833 -10.870  16.165  0.00  0.00    +0.020 A 
ATOM     28  C   UNL     1      -3.311 -10.627  14.877  0.00  0.00    +0.041 A 
ENDBRANCH  15  19
ENDBRANCH   8  13
BRANCH   5  11
ATOM     11  C   UNL     1     -10.523 -10.699  19.440  0.00  0.00    +0.120 C 
BRANCH  11  14
ATOM     14  C   UNL     1     -10.606  -9.613  18.401  0.00  0.00    -0.033 A 
ATOM     17  C   UNL     1     -11.852  -9.168  17.956  0.00  0.00    +0.006 A 
ATOM     18  C   UNL     1      -9.440  -9.052  17.882  0.00  0.00    +0.006 A 
ATOM     20  C   UNL     1     -11.930  -8.163  16.993  0.00  0.00    +0.015 A 
ATOM     21  C   UNL     1      -9.518  -8.046  16.919  0.00  0.00    +0.015 A 
ATOM     22  C   UNL     1     -10.764  -7.601  16.476  0.00  0.00    +0.059 A 
BRANCH  22  27
ATOM      4  O   UNL     1     -11.815  -6.336  14.738  0.00  0.00    -0.245 OA
ATOM     27  C   UNL     1     -10.844  -6.551  15.472  0.00  0.00    +0.337 C 
BRANCH  27   3
ATOM      3  O   UNL     1      -9.711  -5.799  15.412  0.00  0.00    -0.477 OA
ATOM     30  H   UNL     1      -9.909  -4.852  15.249  0.00  0.00    +0.295 HD
ENDBRANCH  27   3
ENDBRANCH  22  27
ENDBRANCH  11  14
ENDBRANCH   5  11
TORSDOF 6
ENDMDL
MODEL 5
REMARK VINA RESULT:      -6.1     45.374     47.511
REMARK  Name = 56775859
REMARK  6 active torsions:
REMARK  status: ('A' for Active; 'I' for Inactive)
REMARK    1  A    between atoms: O_3  and  C_27
REMARK    2  A    between atoms: N_5  and  C_11
REMARK    3  A    between atoms: C_8  and  C_13
REMARK    4  A    between atoms: C_11  and  C_14
REMARK    5  A    between atoms: C_15  and  C_19
REMARK    6  A    between atoms: C_22  and  C_27
REMARK                            x       y       z     vdW  Elec       q    Type
REMARK                         _______ _______ _______ _____ _____    ______ ____
ROOT
ATOM      2  O   UNL     1      21.136  -6.034   1.133  0.00  0.00    -0.377 OA
ATOM      5  N   UNL     1      19.346  -6.474  -1.059  0.00  0.00    -0.285 NA
ATOM      8  C   UNL     1      20.147  -7.583  -0.479  0.00  0.00    +0.149 C 
ATOM      9  C   UNL     1      20.023  -5.185  -0.834  0.00  0.00    +0.113 C 
ATOM     10  C   UNL     1      20.468  -7.288   0.999  0.00  0.00    +0.186 C 
ATOM     12  C   UNL     1      20.312  -4.977   0.647  0.00  0.00    +0.175 C 
ENDROOT
BRANCH   8  13
ATOM      6  N   UNL     1      18.699  -9.427   0.446  0.00  0.00    -0.341 N 
ATOM      7  N   UNL     1      19.522  -9.780  -1.587  0.00  0.00    -0.238 NA
ATOM     13  C   UNL     1      19.467  -8.942  -0.575  0.00  0.00    +0.127 A 
ATOM     15  C   UNL     1      18.234 -10.654   0.061  0.00  0.00    +0.066 A 
ATOM     16  C   UNL     1      18.756 -10.849  -1.195  0.00  0.00    +0.139 A 
ATOM     29  H   UNL     1      18.506  -8.953   1.319  0.00  0.00    +0.167 HD
BRANCH  15  19
ATOM      1 CL   UNL     1      14.729 -14.042   3.471  0.00  0.00    -0.084 Cl
ATOM     19  C   UNL     1      17.386 -11.473   0.886  0.00  0.00    -0.000 A 
ATOM     23  C   UNL     1      16.854 -12.658   0.378  0.00  0.00    +0.011 A 
ATOM     24  C   UNL     1      17.097 -11.083   2.194  0.00  0.00    +0.011 A 
ATOM     25  C   UNL     1      16.032 -13.453   1.176  0.00  0.00    +0.020 A 
ATOM     26  C   UNL     1      16.276 -11.878   2.993  0.00  0.00    +0.020 A 
ATOM     28  C   UNL     1      15.743 -13.063   2.484  0.00  0.00    +0.041 A 
ENDBRANCH  15  19
ENDBRANCH   8  13
BRANCH   5  11
ATOM     11  C   UNL     1      19.116  -6.652  -2.497  0.00  0.00    +0.120 C 
BRANCH  11  14
ATOM     14  C   UNL     1      17.679  -6.403  -2.870  0.00  0.00    -0.033 A 
ATOM     17  C   UNL     1      17.204  -5.095  -2.980  0.00  0.00    +0.006 A 
ATOM     18  C   UNL     1      16.822  -7.478  -3.104  0.00  0.00    +0.006 A 
ATOM     20  C   UNL     1      15.873  -4.864  -3.325  0.00  0.00    +0.015 A 
ATOM     21  C   UNL     1      15.491  -7.246  -3.449  0.00  0.00    +0.015 A 
ATOM     22  C   UNL     1      15.017  -5.938  -3.560  0.00  0.00    +0.059 A 
BRANCH  22  27
ATOM      4  O   UNL     1      13.226  -5.387  -5.047  0.00  0.00    -0.245 OA
ATOM     27  C   UNL     1      13.628  -5.698  -3.921  0.00  0.00    +0.337 C 
BRANCH  27   3
ATOM      3  O   UNL     1      12.781  -5.853  -2.867  0.00  0.00    -0.477 OA
ATOM     30  H   UNL     1      13.019  -6.632  -2.319  0.00  0.00    +0.295 HD
ENDBRANCH  27   3
ENDBRANCH  22  27
ENDBRANCH  11  14
ENDBRANCH   5  11
TORSDOF 6
ENDMDL
MODEL 6
REMARK VINA RESULT:      -6.1     35.294     37.353
REMARK  Name = 56775859
REMARK  6 active torsions:
REMARK  status: ('A' for Active; 'I' for Inactive)
REMARK    1  A    between atoms: O_3  and  C_27
REMARK    2  A    between atoms: N_5  and  C_11
REMARK    3  A    between atoms: C_8  and  C_13
REMARK    4  A    between atoms: C_11  and  C_14
REMARK    5  A    between atoms: C_15  and  C_19
REMARK    6  A    between atoms: C_22  and  C_27
REMARK                            x       y       z     vdW  Elec       q    Type
REMARK                         _______ _______ _______ _____ _____    ______ ____
ROOT
ATOM      2  O   UNL     1       9.157  11.921   3.176  0.00  0.00    -0.377 OA
ATOM      5  N   UNL     1       8.695   9.408   4.471  0.00  0.00    -0.285 NA
ATOM      8  C   UNL     1       9.358   9.485   3.143  0.00  0.00    +0.149 C 
ATOM      9  C   UNL     1       7.821  10.577   4.671  0.00  0.00    +0.113 C 
ATOM     10  C   UNL     1      10.071  10.841   2.985  0.00  0.00    +0.186 C 
ATOM     12  C   UNL     1       8.599  11.872   4.487  0.00  0.00    +0.175 C 
ENDROOT
BRANCH   8  13
ATOM      6  N   UNL     1      10.233   7.513   1.839  0.00  0.00    -0.341 N 
ATOM      7  N   UNL     1      11.422   8.088   3.624  0.00  0.00    -0.238 NA
ATOM     13  C   UNL     1      10.362   8.367   2.898  0.00  0.00    +0.127 A 
ATOM     15  C   UNL     1      11.277   6.632   1.892  0.00  0.00    +0.066 A 
ATOM     16  C   UNL     1      11.996   7.006   3.002  0.00  0.00    +0.139 A 
ATOM     29  H   UNL     1       9.500   7.542   1.140  0.00  0.00    +0.167 HD
BRANCH  15  19
ATOM      1 CL   UNL     1      12.088   2.272  -2.073  0.00  0.00    -0.084 Cl
ATOM     19  C   UNL     1      11.473   5.578   0.933  0.00  0.00    -0.000 A 
ATOM     23  C   UNL     1      12.465   4.620   1.143  0.00  0.00    +0.011 A 
ATOM     24  C   UNL     1      10.671   5.514  -0.207  0.00  0.00    +0.011 A 
ATOM     25  C   UNL     1      12.655   3.597   0.214  0.00  0.00    +0.020 A 
ATOM     26  C   UNL     1      10.861   4.490  -1.136  0.00  0.00    +0.020 A 
ATOM     28  C   UNL     1      11.853   3.533  -0.925  0.00  0.00    +0.041 A 
ENDBRANCH  15  19
ENDBRANCH   8  13
BRANCH   5  11
ATOM     11  C   UNL     1       7.903   8.183   4.623  0.00  0.00    +0.120 C 
BRANCH  11  14
ATOM     14  C   UNL     1       8.444   7.297   5.714  0.00  0.00    -0.033 A 
ATOM     17  C   UNL     1       8.920   6.023   5.406  0.00  0.00    +0.006 A 
ATOM     18  C   UNL     1       8.469   7.751   7.033  0.00  0.00    +0.006 A 
ATOM     20  C   UNL     1       9.421   5.203   6.416  0.00  0.00    +0.015 A 
ATOM     21  C   UNL     1       8.970   6.930   8.043  0.00  0.00    +0.015 A 
ATOM     22  C   UNL     1       9.447   5.656   7.734  0.00  0.00    +0.059 A 
BRANCH  22  27
ATOM      4  O   UNL     1      10.037   5.102   9.985  0.00  0.00    -0.245 OA
ATOM     27  C   UNL     1       9.970   4.802   8.788  0.00  0.00    +0.337 C 
BRANCH  27   3
ATOM      3  O   UNL     1      10.396   3.597   8.320  0.00  0.00    -0.477 OA
ATOM     30  H   UNL     1       9.695   2.912   8.383  0.00  0.00    +0.295 HD
ENDBRANCH  27   3
ENDBRANCH  22  27
ENDBRANCH  11  14
ENDBRANCH   5  11
TORSDOF 6
ENDMDL
MODEL 7
REMARK VINA RESULT:      -6.0     22.855     25.925
REMARK  Name = 56775859
REMARK  6 active torsions:
REMARK  status: ('A' for Active; 'I' for Inactive)
REMARK    1  A    between atoms: O_3  and  C_27
REMARK    2  A    between atoms: N_5  and  C_11
REMARK    3  A    between atoms: C_8  and  C_13
REMARK    4  A    between atoms: C_11  and  C_14
REMARK    5  A    between atoms: C_15  and  C_19
REMARK    6  A    between atoms: C_22  and  C_27
REMARK                            x       y       z     vdW  Elec       q    Type
REMARK                         _______ _______ _______ _____ _____    ______ ____
ROOT
ATOM      2  O   UNL     1      -2.675 -14.522  12.702  0.00  0.00    -0.377 OA
ATOM      5  N   UNL     1      -3.593 -12.011  13.727  0.00  0.00    -0.285 NA
ATOM      8  C   UNL     1      -2.752 -12.087  12.505  0.00  0.00    +0.149 C 
ATOM      9  C   UNL     1      -3.341 -13.177  14.592  0.00  0.00    +0.113 C 
ATOM     10  C   UNL     1      -2.954 -13.446  11.807  0.00  0.00    +0.186 C 
ATOM     12  C   UNL     1      -3.552 -14.475  13.825  0.00  0.00    +0.175 C 
ENDROOT
BRANCH   8  13
ATOM      6  N   UNL     1      -4.182 -10.942  10.773  0.00  0.00    -0.341 N 
ATOM      7  N   UNL     1      -2.246  -9.953  11.227  0.00  0.00    -0.238 NA
ATOM     13  C   UNL     1      -3.028 -10.972  11.505  0.00  0.00    +0.127 A 
ATOM     15  C   UNL     1      -4.132  -9.833   9.976  0.00  0.00    +0.066 A 
ATOM     16  C   UNL     1      -2.929  -9.240  10.273  0.00  0.00    +0.139 A 
ATOM     29  H   UNL     1      -4.935 -11.617  10.826  0.00  0.00    +0.167 HD
BRANCH  15  19
ATOM      1 CL   UNL     1      -8.464  -8.331   6.184  0.00  0.00    -0.084 Cl
ATOM     19  C   UNL     1      -5.180  -9.470   9.058  0.00  0.00    -0.000 A 
ATOM     23  C   UNL     1      -6.166  -8.564   9.450  0.00  0.00    +0.011 A 
ATOM     24  C   UNL     1      -5.209 -10.023   7.778  0.00  0.00    +0.011 A 
ATOM     25  C   UNL     1      -7.182  -8.212   8.562  0.00  0.00    +0.020 A 
ATOM     26  C   UNL     1      -6.224  -9.670   6.889  0.00  0.00    +0.020 A 
ATOM     28  C   UNL     1      -7.211  -8.765   7.282  0.00  0.00    +0.041 A 
ENDBRANCH  15  19
ENDBRANCH   8  13
BRANCH   5  11
ATOM     11  C   UNL     1      -3.347 -10.783  14.492  0.00  0.00    +0.120 C 
BRANCH  11  14
ATOM     14  C   UNL     1      -4.165 -10.736  15.756  0.00  0.00    -0.033 A 
ATOM     17  C   UNL     1      -5.504 -10.348  15.705  0.00  0.00    +0.006 A 
ATOM     18  C   UNL     1      -3.584 -11.080  16.976  0.00  0.00    +0.006 A 
ATOM     20  C   UNL     1      -6.261 -10.304  16.875  0.00  0.00    +0.015 A 
ATOM     21  C   UNL     1      -4.342 -11.036  18.146  0.00  0.00    +0.015 A 
ATOM     22  C   UNL     1      -5.681 -10.649  18.095  0.00  0.00    +0.059 A 
BRANCH  22  27
ATOM      4  O   UNL     1      -6.151 -11.119  20.393  0.00  0.00    -0.245 OA
ATOM     27  C   UNL     1      -6.471 -10.605  19.315  0.00  0.00    +0.337 C 
BRANCH  27   3
ATOM      3  O   UNL     1      -7.636  -9.920  19.158  0.00  0.00    -0.477 OA
ATOM     30  H   UNL     1      -7.766  -9.627  18.230  0.00  0.00    +0.295 HD
ENDBRANCH  27   3
ENDBRANCH  22  27
ENDBRANCH  11  14
ENDBRANCH   5  11
TORSDOF 6
ENDMDL
MODEL 8
REMARK VINA RESULT:      -6.0     38.043     40.361
REMARK  Name = 56775859
REMARK  6 active torsions:
REMARK  status: ('A' for Active; 'I' for Inactive)
REMARK    1  A    between atoms: O_3  and  C_27
REMARK    2  A    between atoms: N_5  and  C_11
REMARK    3  A    between atoms: C_8  and  C_13
REMARK    4  A    between atoms: C_11  and  C_14
REMARK    5  A    between atoms: C_15  and  C_19
REMARK    6  A    between atoms: C_22  and  C_27
REMARK                            x       y       z     vdW  Elec       q    Type
REMARK                         _______ _______ _______ _____ _____    ______ ____
ROOT
ATOM      2  O   UNL     1      15.729   7.516   0.532  0.00  0.00    -0.377 OA
ATOM      5  N   UNL     1      13.732   5.507   0.114  0.00  0.00    -0.285 NA
ATOM      8  C   UNL     1      13.910   6.158   1.437  0.00  0.00    +0.149 C 
ATOM      9  C   UNL     1      14.996   5.540  -0.644  0.00  0.00    +0.113 C 
ATOM     10  C   UNL     1      14.501   7.569   1.257  0.00  0.00    +0.186 C 
ATOM     12  C   UNL     1      15.516   6.965  -0.766  0.00  0.00    +0.175 C 
ENDROOT
BRANCH   8  13
ATOM      6  N   UNL     1      12.568   5.870   3.551  0.00  0.00    -0.341 N 
ATOM      7  N   UNL     1      11.462   6.712   1.819  0.00  0.00    -0.238 NA
ATOM     13  C   UNL     1      12.622   6.262   2.243  0.00  0.00    +0.127 A 
ATOM     15  C   UNL     1      11.291   6.084   3.990  0.00  0.00    +0.066 A 
ATOM     16  C   UNL     1      10.628   6.603   2.904  0.00  0.00    +0.139 A 
ATOM     29  H   UNL     1      13.340   5.500   4.091  0.00  0.00    +0.167 HD
BRANCH  15  19
ATOM      1 CL   UNL     1       9.484   4.849   9.522  0.00  0.00    -0.084 Cl
ATOM     19  C   UNL     1      10.854   5.786   5.329  0.00  0.00    -0.000 A 
ATOM     23  C   UNL     1       9.962   4.736   5.553  0.00  0.00    +0.011 A 
ATOM     24  C   UNL     1      11.323   6.545   6.401  0.00  0.00    +0.011 A 
ATOM     25  C   UNL     1       9.538   4.447   6.850  0.00  0.00    +0.020 A 
ATOM     26  C   UNL     1      10.899   6.254   7.698  0.00  0.00    +0.020 A 
ATOM     28  C   UNL     1      10.007   5.206   7.922  0.00  0.00    +0.041 A 
ENDBRANCH  15  19
ENDBRANCH   8  13
BRANCH   5  11
ATOM     11  C   UNL     1      13.282   4.116   0.238  0.00  0.00    +0.120 C 
BRANCH  11  14
ATOM     14  C   UNL     1      12.349   3.727  -0.878  0.00  0.00    -0.033 A 
ATOM     17  C   UNL     1      11.301   4.575  -1.239  0.00  0.00    +0.006 A 
ATOM     18  C   UNL     1      12.530   2.519  -1.551  0.00  0.00    +0.006 A 
ATOM     20  C   UNL     1      10.437   4.215  -2.272  0.00  0.00    +0.015 A 
ATOM     21  C   UNL     1      11.666   2.159  -2.584  0.00  0.00    +0.015 A 
ATOM     22  C   UNL     1      10.620   3.008  -2.945  0.00  0.00    +0.059 A 
BRANCH  22  27
ATOM      4  O   UNL     1       9.754   3.083  -5.174  0.00  0.00    -0.245 OA
ATOM     27  C   UNL     1       9.719   2.632  -4.024  0.00  0.00    +0.337 C 
BRANCH  27   3
ATOM      3  O   UNL     1       8.801   1.705  -3.637  0.00  0.00    -0.477 OA
ATOM     30  H   UNL     1       8.356   1.958  -2.800  0.00  0.00    +0.295 HD
ENDBRANCH  27   3
ENDBRANCH  22  27
ENDBRANCH  11  14
ENDBRANCH   5  11
TORSDOF 6
ENDMDL
MODEL 9
REMARK VINA RESULT:      -5.9     19.538     22.830
REMARK  Name = 56775859
REMARK  6 active torsions:
REMARK  status: ('A' for Active; 'I' for Inactive)
REMARK    1  A    between atoms: O_3  and  C_27
REMARK    2  A    between atoms: N_5  and  C_11
REMARK    3  A    between atoms: C_8  and  C_13
REMARK    4  A    between atoms: C_11  and  C_14
REMARK    5  A    between atoms: C_15  and  C_19
REMARK    6  A    between atoms: C_22  and  C_27
REMARK                            x       y       z     vdW  Elec       q    Type
REMARK                         _______ _______ _______ _____ _____    ______ ____
ROOT
ATOM      2  O   UNL     1      -8.888 -15.131  17.699  0.00  0.00    -0.377 OA
ATOM      5  N   UNL     1      -8.882 -12.282  17.991  0.00  0.00    -0.285 NA
ATOM      8  C   UNL     1      -7.667 -13.091  18.264  0.00  0.00    +0.149 C 
ATOM      9  C   UNL     1     -10.092 -13.099  18.194  0.00  0.00    +0.113 C 
ATOM     10  C   UNL     1      -7.697 -14.390  17.435  0.00  0.00    +0.186 C 
ATOM     12  C   UNL     1     -10.038 -14.365  17.349  0.00  0.00    +0.175 C 
ENDROOT
BRANCH   8  13
ATOM      6  N   UNL     1      -5.912 -12.183  16.698  0.00  0.00    -0.341 N 
ATOM      7  N   UNL     1      -5.556 -11.812  18.859  0.00  0.00    -0.238 NA
ATOM     13  C   UNL     1      -6.366 -12.352  17.976  0.00  0.00    +0.127 A 
ATOM     15  C   UNL     1      -4.735 -11.490  16.770  0.00  0.00    +0.066 A 
ATOM     16  C   UNL     1      -4.536 -11.274  18.113  0.00  0.00    +0.139 A 
ATOM     29  H   UNL     1      -6.374 -12.505  15.857  0.00  0.00    +0.167 HD
BRANCH  15  19
ATOM      1 CL   UNL     1      -1.526  -9.984  11.993  0.00  0.00    -0.084 Cl
ATOM     19  C   UNL     1      -3.959 -11.126  15.614  0.00  0.00    -0.000 A 
ATOM     23  C   UNL     1      -2.587 -10.909  15.737  0.00  0.00    +0.011 A 
ATOM     24  C   UNL     1      -4.579 -10.991  14.372  0.00  0.00    +0.011 A 
ATOM     25  C   UNL     1      -1.834 -10.555  14.617  0.00  0.00    +0.020 A 
ATOM     26  C   UNL     1      -3.826 -10.638  13.252  0.00  0.00    +0.020 A 
ATOM     28  C   UNL     1      -2.454 -10.420  13.375  0.00  0.00    +0.041 A 
ENDBRANCH  15  19
ENDBRANCH   8  13
BRANCH   5  11
ATOM     11  C   UNL     1      -8.958 -11.091  18.845  0.00  0.00    +0.120 C 
BRANCH  11  14
ATOM     14  C   UNL     1      -9.579  -9.924  18.125  0.00  0.00    -0.033 A 
ATOM     17  C   UNL     1     -10.931  -9.632  18.308  0.00  0.00    +0.006 A 
ATOM     18  C   UNL     1      -8.804  -9.135  17.275  0.00  0.00    +0.006 A 
ATOM     20  C   UNL     1     -11.507  -8.551  17.642  0.00  0.00    +0.015 A 
ATOM     21  C   UNL     1      -9.381  -8.055  16.608  0.00  0.00    +0.015 A 
ATOM     22  C   UNL     1     -10.732  -7.762  16.793  0.00  0.00    +0.059 A 
BRANCH  22  27
ATOM      4  O   UNL     1     -12.542  -6.476  15.901  0.00  0.00    -0.245 OA
ATOM     27  C   UNL     1     -11.331  -6.634  16.097  0.00  0.00    +0.337 C 
BRANCH  27   3
ATOM      3  O   UNL     1     -10.405  -5.735  15.667  0.00  0.00    -0.477 OA
ATOM     30  H   UNL     1     -10.565  -5.462  14.738  0.00  0.00    +0.295 HD
ENDBRANCH  27   3
ENDBRANCH  22  27
ENDBRANCH  11  14
ENDBRANCH   5  11
TORSDOF 6
ENDMDL
MODEL 10
REMARK VINA RESULT:      -5.9     34.596     36.950
REMARK  Name = 56775859
REMARK  6 active torsions:
REMARK  status: ('A' for Active; 'I' for Inactive)
REMARK    1  A    between atoms: O_3  and  C_27
REMARK    2  A    between atoms: N_5  and  C_11
REMARK    3  A    between atoms: C_8  and  C_13
REMARK    4  A    between atoms: C_11  and  C_14
REMARK    5  A    between atoms: C_15  and  C_19
REMARK    6  A    between atoms: C_22  and  C_27
REMARK                            x       y       z     vdW  Elec       q    Type
REMARK                         _______ _______ _______ _____ _____    ______ ____
ROOT
ATOM      2  O   UNL     1       4.388  10.619   1.942  0.00  0.00    -0.377 OA
ATOM      5  N   UNL     1       6.998   9.496   1.579  0.00  0.00    -0.285 NA
ATOM      8  C   UNL     1       6.688  10.377   2.734  0.00  0.00    +0.149 C 
ATOM      9  C   UNL     1       6.101   9.802   0.450  0.00  0.00    +0.113 C 
ATOM     10  C   UNL     1       5.188  10.292   3.078  0.00  0.00    +0.186 C 
ATOM     12  C   UNL     1       4.643   9.707   0.876  0.00  0.00    +0.175 C 
ENDROOT
BRANCH   8  13
ATOM      6  N   UNL     1       7.609   8.774   4.448  0.00  0.00    -0.341 N 
ATOM      7  N   UNL     1       8.161  10.907   4.732  0.00  0.00    -0.238 NA
ATOM     13  C   UNL     1       7.499  10.054   3.982  0.00  0.00    +0.127 A 
ATOM     15  C   UNL     1       8.392   8.812   5.569  0.00  0.00    +0.066 A 
ATOM     16  C   UNL     1       8.719  10.138   5.724  0.00  0.00    +0.139 A 
ATOM     29  H   UNL     1       7.193   7.953   4.028  0.00  0.00    +0.167 HD
BRANCH  15  19
ATOM      1 CL   UNL     1       9.784   3.984   8.753  0.00  0.00    -0.084 Cl
ATOM     19  C   UNL     1       8.729   7.644   6.338  0.00  0.00    -0.000 A 
ATOM     23  C   UNL     1       8.736   7.707   7.732  0.00  0.00    +0.011 A 
ATOM     24  C   UNL     1       9.047   6.450   5.691  0.00  0.00    +0.011 A 
ATOM     25  C   UNL     1       9.063   6.575   8.479  0.00  0.00    +0.020 A 
ATOM     26  C   UNL     1       9.372   5.318   6.439  0.00  0.00    +0.020 A 
ATOM     28  C   UNL     1       9.381   5.381   7.832  0.00  0.00    +0.041 A 
ENDBRANCH  15  19
ENDBRANCH   8  13
BRANCH   5  11
ATOM     11  C   UNL     1       8.391   9.631   1.138  0.00  0.00    +0.120 C 
BRANCH  11  14
ATOM     14  C   UNL     1       9.032   8.292   0.889  0.00  0.00    -0.033 A 
ATOM     17  C   UNL     1       9.234   7.848  -0.419  0.00  0.00    +0.006 A 
ATOM     18  C   UNL     1       9.424   7.494   1.964  0.00  0.00    +0.006 A 
ATOM     20  C   UNL     1       9.827   6.608  -0.650  0.00  0.00    +0.015 A 
ATOM     21  C   UNL     1      10.019   6.255   1.731  0.00  0.00    +0.015 A 
ATOM     22  C   UNL     1      10.220   5.812   0.424  0.00  0.00    +0.059 A 
BRANCH  22  27
ATOM      4  O   UNL     1      11.537   3.897   0.995  0.00  0.00    -0.245 OA
ATOM     27  C   UNL     1      10.841   4.519   0.184  0.00  0.00    +0.337 C 
BRANCH  27   3
ATOM      3  O   UNL     1      10.576   4.036  -1.061  0.00  0.00    -0.477 OA
ATOM     30  H   UNL     1       9.721   3.556  -1.093  0.00  0.00    +0.295 HD
ENDBRANCH  27   3
ENDBRANCH  22  27
ENDBRANCH  11  14
ENDBRANCH   5  11
TORSDOF 6
ENDMDL
