MODEL 1
REMARK VINA RESULT:      -6.8      0.000      0.000
REMARK  Name = 7049279
REMARK  8 active torsions:
REMARK  status: ('A' for Active; 'I' for Inactive)
REMARK    1  A    between atoms: O_1  and  C_17
REMARK    2  A    between atoms: O_2  and  C_18
REMARK    3  A    between atoms: N_6  and  C_10
REMARK    4  A    between atoms: N_7  and  C_16
REMARK    5  A    between atoms: N_8  and  C_24
REMARK    6  A    between atoms: C_21  and  C_23
REMARK    7  A    between atoms: C_24  and  C_25
REMARK    8  A    between atoms: C_24  and  C_26
REMARK                            x       y       z     vdW  Elec       q    Type
REMARK                         _______ _______ _______ _____ _____    ______ ____
ROOT
ATOM     16  C   UNL     1      12.049   9.595  21.433  0.00  0.00    +0.129 C 
ATOM     17  C   UNL     1      11.575   8.311  22.140  0.00  0.00    +0.167 C 
ATOM     18  C   UNL     1      12.277   7.068  21.580  0.00  0.00    +0.149 C 
ATOM     19  C   UNL     1      12.097   6.937  20.057  0.00  0.00    +0.074 C 
ATOM     20  C   UNL     1      12.147   9.450  19.940  0.00  0.00    +0.006 C 
ATOM     21  C   UNL     1      12.158   8.253  19.335  0.00  0.00    +0.015 C 
ENDROOT
BRANCH  16   7
ATOM      3  O   UNL     1      12.680  12.395  21.127  0.00  0.00    -0.253 OA
ATOM      6  N   UNL     1      10.570  12.922  21.935  0.00  0.00    -0.297 N 
ATOM      7  N   UNL     1      11.196  10.717  21.739  0.00  0.00    -0.291 N 
ATOM     22  C   UNL     1      11.584  12.043  21.561  0.00  0.00    +0.300 C 
ATOM     27  H   UNL     1       9.674  12.530  22.208  0.00  0.00    +0.151 HD
ATOM     28  H   UNL     1      10.287  10.538  22.156  0.00  0.00    +0.151 HD
BRANCH   6  10
ATOM     10  C   UNL     1      10.708  14.359  21.850  0.00  0.00    +0.074 C 
ATOM     11  C   UNL     1       9.434  15.003  21.293  0.00  0.00    +0.022 C 
ATOM     12  C   UNL     1      11.083  14.958  23.211  0.00  0.00    +0.022 C 
ATOM     13  C   UNL     1       8.276  14.968  22.291  0.00  0.00    +0.002 C 
ATOM     14  C   UNL     1       9.923  14.922  24.205  0.00  0.00    +0.002 C 
ATOM     15  C   UNL     1       8.670  15.578  23.632  0.00  0.00    +0.000 C 
ENDBRANCH   6  10
ENDBRANCH  16   7
BRANCH  21  23
ATOM      4  O   UNL     1      11.658   7.389  17.208  0.00  0.00    -0.271 OA
ATOM      8  N   UNL     1      13.077   9.231  17.374  0.00  0.00    -0.301 N 
ATOM     23  C   UNL     1      12.259   8.233  17.872  0.00  0.00    +0.240 C 
ATOM     31  H   UNL     1      13.529   9.875  18.020  0.00  0.00    +0.150 HD
BRANCH   8  24
ATOM     24  C   UNL     1      13.333   9.412  15.963  0.00  0.00    +0.156 C 
ATOM     25  C   UNL     1      14.398   8.445  15.472  0.00  0.00    +0.038 C 
BRANCH  24  26
ATOM      5  O   UNL     1      14.702  11.386  16.320  0.00  0.00    -0.274 OA
ATOM      9  N   UNL     1      13.006  11.491  14.775  0.00  0.00    -0.328 N 
ATOM     26  C   UNL     1      13.760  10.854  15.738  0.00  0.00    +0.231 C 
ATOM     32  H   UNL     1      13.194  12.455  14.519  0.00  0.00    +0.145 HD
ATOM     33  H   UNL     1      12.243  11.032  14.287  0.00  0.00    +0.145 HD
ENDBRANCH  24  26
ENDBRANCH   8  24
ENDBRANCH  21  23
BRANCH  17   1
ATOM      1  O   UNL     1      10.165   8.160  21.963  0.00  0.00    -0.387 OA
ATOM     29  H   UNL     1       9.734   8.443  22.788  0.00  0.00    +0.210 HD
ENDBRANCH  17   1
BRANCH  18   2
ATOM      2  O   UNL     1      13.665   7.099  21.907  0.00  0.00    -0.389 OA
ATOM     30  H   UNL     1      13.886   6.257  22.338  0.00  0.00    +0.210 HD
ENDBRANCH  18   2
TORSDOF 7
ENDMDL
MODEL 2
REMARK VINA RESULT:      -6.8      2.197      7.273
REMARK  Name = 7049279
REMARK  8 active torsions:
REMARK  status: ('A' for Active; 'I' for Inactive)
REMARK    1  A    between atoms: O_1  and  C_17
REMARK    2  A    between atoms: O_2  and  C_18
REMARK    3  A    between atoms: N_6  and  C_10
REMARK    4  A    between atoms: N_7  and  C_16
REMARK    5  A    between atoms: N_8  and  C_24
REMARK    6  A    between atoms: C_21  and  C_23
REMARK    7  A    between atoms: C_24  and  C_25
REMARK    8  A    between atoms: C_24  and  C_26
REMARK                            x       y       z     vdW  Elec       q    Type
REMARK                         _______ _______ _______ _____ _____    ______ ____
ROOT
ATOM     16  C   UNL     1      12.568   8.913  18.469  0.00  0.00    +0.129 C 
ATOM     17  C   UNL     1      13.636   7.833  18.729  0.00  0.00    +0.167 C 
ATOM     18  C   UNL     1      13.168   6.820  19.781  0.00  0.00    +0.149 C 
ATOM     19  C   UNL     1      12.764   7.500  21.100  0.00  0.00    +0.074 C 
ATOM     20  C   UNL     1      11.938   9.440  19.728  0.00  0.00    +0.006 C 
ATOM     21  C   UNL     1      12.041   8.801  20.903  0.00  0.00    +0.015 C 
ENDROOT
BRANCH  16   7
ATOM      3  O   UNL     1      12.980   9.037  15.615  0.00  0.00    -0.253 OA
ATOM      6  N   UNL     1      13.804  11.192  15.864  0.00  0.00    -0.297 N 
ATOM      7  N   UNL     1      13.103  10.020  17.715  0.00  0.00    -0.291 N 
ATOM     22  C   UNL     1      13.269   9.994  16.332  0.00  0.00    +0.300 C 
ATOM     27  H   UNL     1      13.936  11.948  16.528  0.00  0.00    +0.151 HD
ATOM     28  H   UNL     1      13.425  10.842  18.219  0.00  0.00    +0.151 HD
BRANCH   6  10
ATOM     10  C   UNL     1      14.078  11.434  14.465  0.00  0.00    +0.074 C 
ATOM     11  C   UNL     1      13.771  12.887  14.086  0.00  0.00    +0.022 C 
ATOM     12  C   UNL     1      15.523  11.063  14.115  0.00  0.00    +0.022 C 
ATOM     13  C   UNL     1      14.788  13.870  14.666  0.00  0.00    +0.002 C 
ATOM     14  C   UNL     1      16.537  12.048  14.694  0.00  0.00    +0.002 C 
ATOM     15  C   UNL     1      16.217  13.485  14.295  0.00  0.00    +0.000 C 
ENDBRANCH   6  10
ENDBRANCH  16   7
BRANCH  21  23
ATOM      4  O   UNL     1      10.780   8.715  22.885  0.00  0.00    -0.271 OA
ATOM      8  N   UNL     1      11.521  10.784  22.106  0.00  0.00    -0.301 N 
ATOM     23  C   UNL     1      11.383   9.408  22.065  0.00  0.00    +0.240 C 
ATOM     31  H   UNL     1      12.039  11.255  21.368  0.00  0.00    +0.150 HD
BRANCH   8  24
ATOM     24  C   UNL     1      10.957  11.603  23.154  0.00  0.00    +0.156 C 
ATOM     25  C   UNL     1      10.775  13.039  22.689  0.00  0.00    +0.038 C 
BRANCH  24  26
ATOM      5  O   UNL     1      12.910  12.192  24.471  0.00  0.00    -0.274 OA
ATOM      9  N   UNL     1      11.413  10.684  25.343  0.00  0.00    -0.328 N 
ATOM     26  C   UNL     1      11.879  11.533  24.361  0.00  0.00    +0.231 C 
ATOM     32  H   UNL     1      11.928  10.554  26.207  0.00  0.00    +0.145 HD
ATOM     33  H   UNL     1      10.548  10.162  25.247  0.00  0.00    +0.145 HD
ENDBRANCH  24  26
ENDBRANCH   8  24
ENDBRANCH  21  23
BRANCH  17   1
ATOM      1  O   UNL     1      14.839   8.451  19.191  0.00  0.00    -0.387 OA
ATOM     29  H   UNL     1      15.242   7.854  19.845  0.00  0.00    +0.210 HD
ENDBRANCH  17   1
BRANCH  18   2
ATOM      2  O   UNL     1      12.077   6.053  19.272  0.00  0.00    -0.389 OA
ATOM     30  H   UNL     1      11.380   6.675  19.004  0.00  0.00    +0.210 HD
ENDBRANCH  18   2
TORSDOF 7
ENDMDL
MODEL 3
REMARK VINA RESULT:      -6.7      8.808     10.573
REMARK  Name = 7049279
REMARK  8 active torsions:
REMARK  status: ('A' for Active; 'I' for Inactive)
REMARK    1  A    between atoms: O_1  and  C_17
REMARK    2  A    between atoms: O_2  and  C_18
REMARK    3  A    between atoms: N_6  and  C_10
REMARK    4  A    between atoms: N_7  and  C_16
REMARK    5  A    between atoms: N_8  and  C_24
REMARK    6  A    between atoms: C_21  and  C_23
REMARK    7  A    between atoms: C_24  and  C_25
REMARK    8  A    between atoms: C_24  and  C_26
REMARK                            x       y       z     vdW  Elec       q    Type
REMARK                         _______ _______ _______ _____ _____    ______ ____
ROOT
ATOM     16  C   UNL     1      20.096   7.060  22.297  0.00  0.00    +0.129 C 
ATOM     17  C   UNL     1      20.628   7.280  23.726  0.00  0.00    +0.167 C 
ATOM     18  C   UNL     1      22.112   6.907  23.838  0.00  0.00    +0.149 C 
ATOM     19  C   UNL     1      22.379   5.460  23.386  0.00  0.00    +0.074 C 
ATOM     20  C   UNL     1      20.546   5.760  21.689  0.00  0.00    +0.006 C 
ATOM     21  C   UNL     1      21.566   5.049  22.193  0.00  0.00    +0.015 C 
ENDROOT
BRANCH  16   7
ATOM      3  O   UNL     1      18.487   9.063  20.982  0.00  0.00    -0.253 OA
ATOM      6  N   UNL     1      16.581   7.953  21.701  0.00  0.00    -0.297 N 
ATOM      7  N   UNL     1      18.656   7.125  22.249  0.00  0.00    -0.291 N 
ATOM     22  C   UNL     1      17.958   8.133  21.589  0.00  0.00    +0.300 C 
ATOM     27  H   UNL     1      16.245   7.111  22.158  0.00  0.00    +0.151 HD
ATOM     28  H   UNL     1      18.121   6.433  22.766  0.00  0.00    +0.151 HD
BRANCH   6  10
ATOM     10  C   UNL     1      15.621   8.858  21.107  0.00  0.00    +0.074 C 
ATOM     11  C   UNL     1      15.351   8.491  19.644  0.00  0.00    +0.022 C 
ATOM     12  C   UNL     1      14.322   8.893  21.919  0.00  0.00    +0.022 C 
ATOM     13  C   UNL     1      14.535   7.206  19.504  0.00  0.00    +0.002 C 
ATOM     14  C   UNL     1      13.507   7.608  21.775  0.00  0.00    +0.002 C 
ATOM     15  C   UNL     1      13.242   7.270  20.312  0.00  0.00    +0.000 C 
ENDBRANCH   6  10
ENDBRANCH  16   7
BRANCH  21  23
ATOM      4  O   UNL     1      21.088   3.186  20.843  0.00  0.00    -0.271 OA
ATOM      8  N   UNL     1      23.231   3.417  21.731  0.00  0.00    -0.301 N 
ATOM     23  C   UNL     1      21.918   3.796  21.517  0.00  0.00    +0.240 C 
ATOM     31  H   UNL     1      23.830   3.999  22.312  0.00  0.00    +0.150 HD
BRANCH   8  24
ATOM     24  C   UNL     1      23.808   2.217  21.170  0.00  0.00    +0.156 C 
ATOM     25  C   UNL     1      24.306   1.286  22.263  0.00  0.00    +0.038 C 
BRANCH  24  26
ATOM      5  O   UNL     1      26.123   2.655  20.579  0.00  0.00    -0.274 OA
ATOM      9  N   UNL     1      24.510   2.912  18.963  0.00  0.00    -0.328 N 
ATOM     26  C   UNL     1      24.942   2.624  20.241  0.00  0.00    +0.231 C 
ATOM     32  H   UNL     1      25.167   3.186  18.241  0.00  0.00    +0.145 HD
ATOM     33  H   UNL     1      23.533   2.862  18.693  0.00  0.00    +0.145 HD
ENDBRANCH  24  26
ENDBRANCH   8  24
ENDBRANCH  21  23
BRANCH  17   1
ATOM      1  O   UNL     1      19.882   6.479  24.644  0.00  0.00    -0.387 OA
ATOM     29  H   UNL     1      19.037   6.933  24.808  0.00  0.00    +0.210 HD
ENDBRANCH  17   1
BRANCH  18   2
ATOM      2  O   UNL     1      22.906   7.813  23.075  0.00  0.00    -0.389 OA
ATOM     30  H   UNL     1      23.320   7.307  22.356  0.00  0.00    +0.210 HD
ENDBRANCH  18   2
TORSDOF 7
ENDMDL
MODEL 4
REMARK VINA RESULT:      -6.7      1.630      2.038
REMARK  Name = 7049279
REMARK  8 active torsions:
REMARK  status: ('A' for Active; 'I' for Inactive)
REMARK    1  A    between atoms: O_1  and  C_17
REMARK    2  A    between atoms: O_2  and  C_18
REMARK    3  A    between atoms: N_6  and  C_10
REMARK    4  A    between atoms: N_7  and  C_16
REMARK    5  A    between atoms: N_8  and  C_24
REMARK    6  A    between atoms: C_21  and  C_23
REMARK    7  A    between atoms: C_24  and  C_25
REMARK    8  A    between atoms: C_24  and  C_26
REMARK                            x       y       z     vdW  Elec       q    Type
REMARK                         _______ _______ _______ _____ _____    ______ ____
ROOT
ATOM     16  C   UNL     1      12.679   9.395  20.024  0.00  0.00    +0.129 C 
ATOM     17  C   UNL     1      11.852   8.097  20.102  0.00  0.00    +0.167 C 
ATOM     18  C   UNL     1      12.509   6.962  19.306  0.00  0.00    +0.149 C 
ATOM     19  C   UNL     1      12.753   7.352  17.837  0.00  0.00    +0.074 C 
ATOM     20  C   UNL     1      13.177   9.699  18.638  0.00  0.00    +0.006 C 
ATOM     21  C   UNL     1      13.197   8.776  17.664  0.00  0.00    +0.015 C 
ENDROOT
BRANCH  16   7
ATOM      3  O   UNL     1      13.700  11.608  21.570  0.00  0.00    -0.253 OA
ATOM      6  N   UNL     1      11.568  12.525  21.599  0.00  0.00    -0.297 N 
ATOM      7  N   UNL     1      11.936  10.530  20.513  0.00  0.00    -0.291 N 
ATOM     22  C   UNL     1      12.511  11.558  21.256  0.00  0.00    +0.300 C 
ATOM     27  H   UNL     1      10.629  12.429  21.226  0.00  0.00    +0.151 HD
ATOM     28  H   UNL     1      10.932  10.559  20.355  0.00  0.00    +0.151 HD
BRANCH   6  10
ATOM     10  C   UNL     1      11.899  13.702  22.371  0.00  0.00    +0.074 C 
ATOM     11  C   UNL     1      11.124  14.925  21.869  0.00  0.00    +0.022 C 
ATOM     12  C   UNL     1      11.655  13.467  23.866  0.00  0.00    +0.022 C 
ATOM     13  C   UNL     1       9.637  14.861  22.220  0.00  0.00    +0.002 C 
ATOM     14  C   UNL     1      10.168  13.405  24.214  0.00  0.00    +0.002 C 
ATOM     15  C   UNL     1       9.421  14.637  23.713  0.00  0.00    +0.000 C 
ENDBRANCH   6  10
ENDBRANCH  16   7
BRANCH  21  23
ATOM      4  O   UNL     1      13.543   8.476  15.359  0.00  0.00    -0.271 OA
ATOM      8  N   UNL     1      14.360  10.405  16.383  0.00  0.00    -0.301 N 
ATOM     23  C   UNL     1      13.706   9.186  16.352  0.00  0.00    +0.240 C 
ATOM     31  H   UNL     1      14.439  10.906  17.265  0.00  0.00    +0.150 HD
BRANCH   8  24
ATOM     24  C   UNL     1      14.949  11.015  15.213  0.00  0.00    +0.156 C 
ATOM     25  C   UNL     1      16.185  11.820  15.579  0.00  0.00    +0.038 C 
BRANCH  24  26
ATOM      5  O   UNL     1      13.389  11.654  13.465  0.00  0.00    -0.274 OA
ATOM      9  N   UNL     1      13.543  12.977  15.336  0.00  0.00    -0.328 N 
ATOM     26  C   UNL     1      13.898  11.897  14.556  0.00  0.00    +0.231 C 
ATOM     32  H   UNL     1      12.842  13.639  15.020  0.00  0.00    +0.145 HD
ATOM     33  H   UNL     1      13.957  13.154  16.245  0.00  0.00    +0.145 HD
ENDBRANCH  24  26
ENDBRANCH   8  24
ENDBRANCH  21  23
BRANCH  17   1
ATOM      1  O   UNL     1      10.544   8.330  19.576  0.00  0.00    -0.387 OA
ATOM     29  H   UNL     1      10.610   8.305  18.606  0.00  0.00    +0.210 HD
ENDBRANCH  17   1
BRANCH  18   2
ATOM      2  O   UNL     1      13.737   6.578  19.920  0.00  0.00    -0.389 OA
ATOM     30  H   UNL     1      13.754   5.608  19.963  0.00  0.00    +0.210 HD
ENDBRANCH  18   2
TORSDOF 7
ENDMDL
MODEL 5
REMARK VINA RESULT:      -6.7     15.031     20.499
REMARK  Name = 7049279
REMARK  8 active torsions:
REMARK  status: ('A' for Active; 'I' for Inactive)
REMARK    1  A    between atoms: O_1  and  C_17
REMARK    2  A    between atoms: O_2  and  C_18
REMARK    3  A    between atoms: N_6  and  C_10
REMARK    4  A    between atoms: N_7  and  C_16
REMARK    5  A    between atoms: N_8  and  C_24
REMARK    6  A    between atoms: C_21  and  C_23
REMARK    7  A    between atoms: C_24  and  C_25
REMARK    8  A    between atoms: C_24  and  C_26
REMARK                            x       y       z     vdW  Elec       q    Type
REMARK                         _______ _______ _______ _____ _____    ______ ____
ROOT
ATOM     16  C   UNL     1      12.232   5.110   1.922  0.00  0.00    +0.129 C 
ATOM     17  C   UNL     1      12.646   6.591   1.844  0.00  0.00    +0.167 C 
ATOM     18  C   UNL     1      12.990   7.154   3.229  0.00  0.00    +0.149 C 
ATOM     19  C   UNL     1      11.834   6.975   4.229  0.00  0.00    +0.074 C 
ATOM     20  C   UNL     1      11.292   4.815   3.058  0.00  0.00    +0.006 C 
ATOM     21  C   UNL     1      11.117   5.664   4.082  0.00  0.00    +0.015 C 
ENDROOT
BRANCH  16   7
ATOM      3  O   UNL     1      13.288   3.148   0.088  0.00  0.00    -0.253 OA
ATOM      6  N   UNL     1      11.424   3.456  -1.260  0.00  0.00    -0.297 N 
ATOM      7  N   UNL     1      11.632   4.659   0.690  0.00  0.00    -0.291 N 
ATOM     22  C   UNL     1      12.215   3.704  -0.139  0.00  0.00    +0.300 C 
ATOM     27  H   UNL     1      10.519   3.911  -1.316  0.00  0.00    +0.151 HD
ATOM     28  H   UNL     1      10.768   5.096   0.382  0.00  0.00    +0.151 HD
BRANCH   6  10
ATOM     10  C   UNL     1      11.795   2.506  -2.285  0.00  0.00    +0.074 C 
ATOM     11  C   UNL     1      10.557   1.818  -2.872  0.00  0.00    +0.022 C 
ATOM     12  C   UNL     1      12.630   3.176  -3.382  0.00  0.00    +0.022 C 
ATOM     13  C   UNL     1       9.729   2.756  -3.752  0.00  0.00    +0.002 C 
ATOM     14  C   UNL     1      11.799   4.111  -4.260  0.00  0.00    +0.002 C 
ATOM     15  C   UNL     1      10.580   3.402  -4.841  0.00  0.00    +0.000 C 
ENDBRANCH   6  10
ENDBRANCH  16   7
BRANCH  21  23
ATOM      4  O   UNL     1       9.447   4.288   4.999  0.00  0.00    -0.271 OA
ATOM      8  N   UNL     1      10.215   6.109   6.236  0.00  0.00    -0.301 N 
ATOM     23  C   UNL     1      10.175   5.270   5.135  0.00  0.00    +0.240 C 
ATOM     31  H   UNL     1      10.857   6.897   6.239  0.00  0.00    +0.150 HD
BRANCH   8  24
ATOM     24  C   UNL     1       9.377   5.924   7.399  0.00  0.00    +0.156 C 
ATOM     25  C   UNL     1       8.969   7.261   7.996  0.00  0.00    +0.038 C 
BRANCH  24  26
ATOM      5  O   UNL     1      10.646   5.544   9.434  0.00  0.00    -0.274 OA
ATOM      9  N   UNL     1      10.181   3.748   8.079  0.00  0.00    -0.328 N 
ATOM     26  C   UNL     1      10.145   5.087   8.410  0.00  0.00    +0.231 C 
ATOM     32  H   UNL     1      10.652   3.077   8.676  0.00  0.00    +0.145 HD
ATOM     33  H   UNL     1       9.744   3.382   7.239  0.00  0.00    +0.145 HD
ENDBRANCH  24  26
ENDBRANCH   8  24
ENDBRANCH  21  23
BRANCH  17   1
ATOM      1  O   UNL     1      11.577   7.360   1.289  0.00  0.00    -0.387 OA
ATOM     29  H   UNL     1      11.566   7.197   0.331  0.00  0.00    +0.210 HD
ENDBRANCH  17   1
BRANCH  18   2
ATOM      2  O   UNL     1      14.172   6.533   3.732  0.00  0.00    -0.389 OA
ATOM     30  H   UNL     1      13.915   5.980   4.488  0.00  0.00    +0.210 HD
ENDBRANCH  18   2
TORSDOF 7
ENDMDL
MODEL 6
REMARK VINA RESULT:      -6.6      5.004      8.476
REMARK  Name = 7049279
REMARK  8 active torsions:
REMARK  status: ('A' for Active; 'I' for Inactive)
REMARK    1  A    between atoms: O_1  and  C_17
REMARK    2  A    between atoms: O_2  and  C_18
REMARK    3  A    between atoms: N_6  and  C_10
REMARK    4  A    between atoms: N_7  and  C_16
REMARK    5  A    between atoms: N_8  and  C_24
REMARK    6  A    between atoms: C_21  and  C_23
REMARK    7  A    between atoms: C_24  and  C_25
REMARK    8  A    between atoms: C_24  and  C_26
REMARK                            x       y       z     vdW  Elec       q    Type
REMARK                         _______ _______ _______ _____ _____    ______ ____
ROOT
ATOM     16  C   UNL     1      15.088   8.187  20.696  0.00  0.00    +0.129 C 
ATOM     17  C   UNL     1      14.607   6.931  19.945  0.00  0.00    +0.167 C 
ATOM     18  C   UNL     1      13.225   7.145  19.316  0.00  0.00    +0.149 C 
ATOM     19  C   UNL     1      12.177   7.579  20.356  0.00  0.00    +0.074 C 
ATOM     20  C   UNL     1      14.017   8.820  21.540  0.00  0.00    +0.006 C 
ATOM     21  C   UNL     1      12.716   8.532  21.383  0.00  0.00    +0.015 C 
ENDROOT
BRANCH  16   7
ATOM      3  O   UNL     1      17.662   9.490  20.611  0.00  0.00    -0.253 OA
ATOM      6  N   UNL     1      18.375   8.113  22.339  0.00  0.00    -0.297 N 
ATOM      7  N   UNL     1      16.233   7.905  21.527  0.00  0.00    -0.291 N 
ATOM     22  C   UNL     1      17.443   8.586  21.417  0.00  0.00    +0.300 C 
ATOM     27  H   UNL     1      18.071   7.417  23.011  0.00  0.00    +0.151 HD
ATOM     28  H   UNL     1      16.175   7.137  22.190  0.00  0.00    +0.151 HD
BRANCH   6  10
ATOM     10  C   UNL     1      19.716   8.647  22.440  0.00  0.00    +0.074 C 
ATOM     11  C   UNL     1      20.294   8.420  23.841  0.00  0.00    +0.022 C 
ATOM     12  C   UNL     1      20.628   8.053  21.361  0.00  0.00    +0.022 C 
ATOM     13  C   UNL     1      20.637   6.953  24.102  0.00  0.00    +0.002 C 
ATOM     14  C   UNL     1      20.970   6.587  21.625  0.00  0.00    +0.002 C 
ATOM     15  C   UNL     1      21.554   6.388  23.021  0.00  0.00    +0.000 C 
ENDBRANCH   6  10
ENDBRANCH  16   7
BRANCH  21  23
ATOM      4  O   UNL     1      10.924   8.575  22.903  0.00  0.00    -0.271 OA
ATOM      8  N   UNL     1      11.916  10.588  22.268  0.00  0.00    -0.301 N 
ATOM     23  C   UNL     1      11.760   9.213  22.262  0.00  0.00    +0.240 C 
ATOM     31  H   UNL     1      12.642  11.010  21.694  0.00  0.00    +0.150 HD
BRANCH   8  24
ATOM     24  C   UNL     1      11.088  11.472  23.056  0.00  0.00    +0.156 C 
ATOM     25  C   UNL     1      10.917  12.818  22.369  0.00  0.00    +0.038 C 
BRANCH  24  26
ATOM      5  O   UNL     1      12.533  12.527  24.698  0.00  0.00    -0.274 OA
ATOM      9  N   UNL     1      11.292  10.703  25.339  0.00  0.00    -0.328 N 
ATOM     26  C   UNL     1      11.734  11.636  24.423  0.00  0.00    +0.231 C 
ATOM     32  H   UNL     1      11.635  10.708  26.293  0.00  0.00    +0.145 HD
ATOM     33  H   UNL     1      10.615   9.985  25.102  0.00  0.00    +0.145 HD
ENDBRANCH  24  26
ENDBRANCH   8  24
ENDBRANCH  21  23
BRANCH  17   1
ATOM      1  O   UNL     1      14.533   5.829  20.852  0.00  0.00    -0.387 OA
ATOM     29  H   UNL     1      13.646   5.839  21.252  0.00  0.00    +0.210 HD
ENDBRANCH  17   1
BRANCH  18   2
ATOM      2  O   UNL     1      13.306   8.112  18.270  0.00  0.00    -0.389 OA
ATOM     30  H   UNL     1      12.978   8.956  18.624  0.00  0.00    +0.210 HD
ENDBRANCH  18   2
TORSDOF 7
ENDMDL
MODEL 7
REMARK VINA RESULT:      -6.5     15.265     18.604
REMARK  Name = 7049279
REMARK  8 active torsions:
REMARK  status: ('A' for Active; 'I' for Inactive)
REMARK    1  A    between atoms: O_1  and  C_17
REMARK    2  A    between atoms: O_2  and  C_18
REMARK    3  A    between atoms: N_6  and  C_10
REMARK    4  A    between atoms: N_7  and  C_16
REMARK    5  A    between atoms: N_8  and  C_24
REMARK    6  A    between atoms: C_21  and  C_23
REMARK    7  A    between atoms: C_24  and  C_25
REMARK    8  A    between atoms: C_24  and  C_26
REMARK                            x       y       z     vdW  Elec       q    Type
REMARK                         _______ _______ _______ _____ _____    ______ ____
ROOT
ATOM     16  C   UNL     1      14.633   5.678   1.834  0.00  0.00    +0.129 C 
ATOM     17  C   UNL     1      15.136   4.323   1.301  0.00  0.00    +0.167 C 
ATOM     18  C   UNL     1      14.057   3.605   0.481  0.00  0.00    +0.149 C 
ATOM     19  C   UNL     1      12.755   3.415   1.278  0.00  0.00    +0.074 C 
ATOM     20  C   UNL     1      13.240   5.615   2.398  0.00  0.00    +0.006 C 
ATOM     21  C   UNL     1      12.412   4.590   2.147  0.00  0.00    +0.015 C 
ENDROOT
BRANCH  16   7
ATOM      3  O   UNL     1      16.368   7.969   1.569  0.00  0.00    -0.253 OA
ATOM      6  N   UNL     1      17.080   7.638   3.753  0.00  0.00    -0.297 N 
ATOM      7  N   UNL     1      15.519   6.219   2.836  0.00  0.00    -0.291 N 
ATOM     22  C   UNL     1      16.326   7.333   2.621  0.00  0.00    +0.300 C 
ATOM     27  H   UNL     1      16.915   7.098   4.596  0.00  0.00    +0.151 HD
ATOM     28  H   UNL     1      15.600   5.734   3.725  0.00  0.00    +0.151 HD
BRANCH   6  10
ATOM     10  C   UNL     1      18.003   8.750   3.803  0.00  0.00    +0.074 C 
ATOM     11  C   UNL     1      17.975   9.428   5.178  0.00  0.00    +0.022 C 
ATOM     12  C   UNL     1      19.422   8.305   3.433  0.00  0.00    +0.022 C 
ATOM     13  C   UNL     1      18.627   8.572   6.265  0.00  0.00    +0.002 C 
ATOM     14  C   UNL     1      20.071   7.452   4.522  0.00  0.00    +0.002 C 
ATOM     15  C   UNL     1      20.041   8.151   5.877  0.00  0.00    +0.000 C 
ENDBRANCH   6  10
ENDBRANCH  16   7
BRANCH  21  23
ATOM      4  O   UNL     1      10.096   4.190   2.153  0.00  0.00    -0.271 OA
ATOM      8  N   UNL     1      11.068   5.222   4.003  0.00  0.00    -0.301 N 
ATOM     23  C   UNL     1      11.075   4.637   2.749  0.00  0.00    +0.240 C 
ATOM     31  H   UNL     1      11.941   5.562   4.400  0.00  0.00    +0.150 HD
BRANCH   8  24
ATOM     24  C   UNL     1       9.868   5.382   4.792  0.00  0.00    +0.156 C 
ATOM     25  C   UNL     1       9.093   6.618   4.365  0.00  0.00    +0.038 C 
BRANCH  24  26
ATOM      5  O   UNL     1       9.520   5.187   7.188  0.00  0.00    -0.274 OA
ATOM      9  N   UNL     1      11.582   5.856   6.430  0.00  0.00    -0.328 N 
ATOM     26  C   UNL     1      10.270   5.470   6.257  0.00  0.00    +0.231 C 
ATOM     32  H   UNL     1      11.981   5.943   7.358  0.00  0.00    +0.145 HD
ATOM     33  H   UNL     1      12.196   6.067   5.650  0.00  0.00    +0.145 HD
ENDBRANCH  24  26
ENDBRANCH   8  24
ENDBRANCH  21  23
BRANCH  17   1
ATOM      1  O   UNL     1      15.511   3.487   2.398  0.00  0.00    -0.387 OA
ATOM     29  H   UNL     1      14.872   2.755   2.439  0.00  0.00    +0.210 HD
ENDBRANCH  17   1
BRANCH  18   2
ATOM      2  O   UNL     1      13.794   4.326  -0.722  0.00  0.00    -0.389 OA
ATOM     30  H   UNL     1      14.422   5.066  -0.764  0.00  0.00    +0.210 HD
ENDBRANCH  18   2
TORSDOF 7
ENDMDL
MODEL 8
REMARK VINA RESULT:      -6.4     27.051     28.929
REMARK  Name = 7049279
REMARK  8 active torsions:
REMARK  status: ('A' for Active; 'I' for Inactive)
REMARK    1  A    between atoms: O_1  and  C_17
REMARK    2  A    between atoms: O_2  and  C_18
REMARK    3  A    between atoms: N_6  and  C_10
REMARK    4  A    between atoms: N_7  and  C_16
REMARK    5  A    between atoms: N_8  and  C_24
REMARK    6  A    between atoms: C_21  and  C_23
REMARK    7  A    between atoms: C_24  and  C_25
REMARK    8  A    between atoms: C_24  and  C_26
REMARK                            x       y       z     vdW  Elec       q    Type
REMARK                         _______ _______ _______ _____ _____    ______ ____
ROOT
ATOM     16  C   UNL     1      -4.994 -11.571  15.781  0.00  0.00    +0.129 C 
ATOM     17  C   UNL     1      -3.798 -11.196  16.677  0.00  0.00    +0.167 C 
ATOM     18  C   UNL     1      -4.063 -11.546  18.146  0.00  0.00    +0.149 C 
ATOM     19  C   UNL     1      -5.351 -10.890  18.674  0.00  0.00    +0.074 C 
ATOM     20  C   UNL     1      -6.322 -11.185  16.372  0.00  0.00    +0.006 C 
ATOM     21  C   UNL     1      -6.466 -10.874  17.669  0.00  0.00    +0.015 C 
ENDROOT
BRANCH  16   7
ATOM      3  O   UNL     1      -3.100 -12.278  13.721  0.00  0.00    -0.253 OA
ATOM      6  N   UNL     1      -4.042 -10.660  12.349  0.00  0.00    -0.297 N 
ATOM      7  N   UNL     1      -4.879 -10.986  14.468  0.00  0.00    -0.291 N 
ATOM     22  C   UNL     1      -3.930 -11.390  13.531  0.00  0.00    +0.300 C 
ATOM     27  H   UNL     1      -4.810 -10.002  12.266  0.00  0.00    +0.151 HD
ATOM     28  H   UNL     1      -5.483 -10.205  14.229  0.00  0.00    +0.151 HD
BRANCH   6  10
ATOM     10  C   UNL     1      -3.178 -10.877  11.210  0.00  0.00    +0.074 C 
ATOM     11  C   UNL     1      -3.824 -11.837  10.204  0.00  0.00    +0.022 C 
ATOM     12  C   UNL     1      -2.799  -9.549  10.546  0.00  0.00    +0.022 C 
ATOM     13  C   UNL     1      -4.994 -11.198   9.455  0.00  0.00    +0.002 C 
ATOM     14  C   UNL     1      -3.970  -8.915   9.796  0.00  0.00    +0.002 C 
ATOM     15  C   UNL     1      -4.588  -9.884   8.794  0.00  0.00    +0.000 C 
ENDBRANCH   6  10
ENDBRANCH  16   7
BRANCH  21  23
ATOM      4  O   UNL     1      -8.245 -10.944  19.203  0.00  0.00    -0.271 OA
ATOM      8  N   UNL     1      -8.480  -9.681  17.257  0.00  0.00    -0.301 N 
ATOM     23  C   UNL     1      -7.810 -10.515  18.135  0.00  0.00    +0.240 C 
ATOM     31  H   UNL     1      -8.022  -9.391  16.397  0.00  0.00    +0.150 HD
BRANCH   8  24
ATOM     24  C   UNL     1      -9.819  -9.195  17.498  0.00  0.00    +0.156 C 
ATOM     25  C   UNL     1     -10.858 -10.235  17.112  0.00  0.00    +0.038 C 
BRANCH  24  26
ATOM      5  O   UNL     1     -10.759  -7.001  17.047  0.00  0.00    -0.274 OA
ATOM      9  N   UNL     1      -9.218  -7.859  15.575  0.00  0.00    -0.328 N 
ATOM     26  C   UNL     1     -10.010  -7.912  16.703  0.00  0.00    +0.231 C 
ATOM     32  H   UNL     1      -9.239  -7.051  14.962  0.00  0.00    +0.145 HD
ATOM     33  H   UNL     1      -8.588  -8.611  15.315  0.00  0.00    +0.145 HD
ENDBRANCH  24  26
ENDBRANCH   8  24
ENDBRANCH  21  23
BRANCH  17   1
ATOM      1  O   UNL     1      -3.546  -9.793  16.578  0.00  0.00    -0.387 OA
ATOM     29  H   UNL     1      -4.122  -9.441  15.878  0.00  0.00    +0.210 HD
ENDBRANCH  17   1
BRANCH  18   2
ATOM      2  O   UNL     1      -4.133 -12.962  18.309  0.00  0.00    -0.389 OA
ATOM     30  H   UNL     1      -3.392 -13.351  17.815  0.00  0.00    +0.210 HD
ENDBRANCH  18   2
TORSDOF 7
ENDMDL
MODEL 9
REMARK VINA RESULT:      -6.1     27.054     29.721
REMARK  Name = 7049279
REMARK  8 active torsions:
REMARK  status: ('A' for Active; 'I' for Inactive)
REMARK    1  A    between atoms: O_1  and  C_17
REMARK    2  A    between atoms: O_2  and  C_18
REMARK    3  A    between atoms: N_6  and  C_10
REMARK    4  A    between atoms: N_7  and  C_16
REMARK    5  A    between atoms: N_8  and  C_24
REMARK    6  A    between atoms: C_21  and  C_23
REMARK    7  A    between atoms: C_24  and  C_25
REMARK    8  A    between atoms: C_24  and  C_26
REMARK                            x       y       z     vdW  Elec       q    Type
REMARK                         _______ _______ _______ _____ _____    ______ ____
ROOT
ATOM     16  C   UNL     1      -4.906 -11.713  15.720  0.00  0.00    +0.129 C 
ATOM     17  C   UNL     1      -3.947 -11.078  16.744  0.00  0.00    +0.167 C 
ATOM     18  C   UNL     1      -4.281 -11.515  18.176  0.00  0.00    +0.149 C 
ATOM     19  C   UNL     1      -5.742 -11.205  18.549  0.00  0.00    +0.074 C 
ATOM     20  C   UNL     1      -6.346 -11.676  16.152  0.00  0.00    +0.006 C 
ATOM     21  C   UNL     1      -6.707 -11.439  17.422  0.00  0.00    +0.015 C 
ENDROOT
BRANCH  16   7
ATOM      3  O   UNL     1      -2.993 -12.337  13.651  0.00  0.00    -0.253 OA
ATOM      6  N   UNL     1      -3.947 -10.691  12.322  0.00  0.00    -0.297 N 
ATOM      7  N   UNL     1      -4.791 -11.089  14.424  0.00  0.00    -0.291 N 
ATOM     22  C   UNL     1      -3.833 -11.454  13.482  0.00  0.00    +0.300 C 
ATOM     27  H   UNL     1      -4.721 -10.039  12.253  0.00  0.00    +0.151 HD
ATOM     28  H   UNL     1      -5.403 -10.308  14.205  0.00  0.00    +0.151 HD
BRANCH   6  10
ATOM     10  C   UNL     1      -3.074 -10.864  11.182  0.00  0.00    +0.074 C 
ATOM     11  C   UNL     1      -3.680 -11.840  10.167  0.00  0.00    +0.022 C 
ATOM     12  C   UNL     1      -2.747  -9.517  10.528  0.00  0.00    +0.022 C 
ATOM     13  C   UNL     1      -4.874 -11.242   9.422  0.00  0.00    +0.002 C 
ATOM     14  C   UNL     1      -3.941  -8.923   9.783  0.00  0.00    +0.002 C 
ATOM     15  C   UNL     1      -4.520  -9.908   8.772  0.00  0.00    +0.000 C 
ENDBRANCH   6  10
ENDBRANCH  16   7
BRANCH  21  23
ATOM      4  O   UNL     1      -8.955 -10.960  16.934  0.00  0.00    -0.271 OA
ATOM      8  N   UNL     1      -8.433 -11.984  18.963  0.00  0.00    -0.301 N 
ATOM     23  C   UNL     1      -8.141 -11.430  17.729  0.00  0.00    +0.240 C 
ATOM     31  H   UNL     1      -7.676 -12.340  19.541  0.00  0.00    +0.150 HD
BRANCH   8  24
ATOM     24  C   UNL     1      -9.777 -12.083  19.485  0.00  0.00    +0.156 C 
ATOM     25  C   UNL     1     -10.217 -10.773  20.118  0.00  0.00    +0.038 C 
BRANCH  24  26
ATOM      5  O   UNL     1     -10.768 -13.448  21.232  0.00  0.00    -0.274 OA
ATOM      9  N   UNL     1      -8.668 -13.990  20.475  0.00  0.00    -0.328 N 
ATOM     26  C   UNL     1      -9.810 -13.217  20.498  0.00  0.00    +0.231 C 
ATOM     32  H   UNL     1      -8.566 -14.787  21.094  0.00  0.00    +0.145 HD
ATOM     33  H   UNL     1      -7.893 -13.799  19.848  0.00  0.00    +0.145 HD
ENDBRANCH  24  26
ENDBRANCH   8  24
ENDBRANCH  21  23
BRANCH  17   1
ATOM      1  O   UNL     1      -4.037  -9.654  16.666  0.00  0.00    -0.387 OA
ATOM     29  H   UNL     1      -4.752  -9.439  16.043  0.00  0.00    +0.210 HD
ENDBRANCH  17   1
BRANCH  18   2
ATOM      2  O   UNL     1      -4.020 -12.908  18.337  0.00  0.00    -0.389 OA
ATOM     30  H   UNL     1      -4.865 -13.345  18.536  0.00  0.00    +0.210 HD
ENDBRANCH  18   2
TORSDOF 7
ENDMDL
MODEL 10
REMARK VINA RESULT:      -5.9      5.230      7.707
REMARK  Name = 7049279
REMARK  8 active torsions:
REMARK  status: ('A' for Active; 'I' for Inactive)
REMARK    1  A    between atoms: O_1  and  C_17
REMARK    2  A    between atoms: O_2  and  C_18
REMARK    3  A    between atoms: N_6  and  C_10
REMARK    4  A    between atoms: N_7  and  C_16
REMARK    5  A    between atoms: N_8  and  C_24
REMARK    6  A    between atoms: C_21  and  C_23
REMARK    7  A    between atoms: C_24  and  C_25
REMARK    8  A    between atoms: C_24  and  C_26
REMARK                            x       y       z     vdW  Elec       q    Type
REMARK                         _______ _______ _______ _____ _____    ______ ____
ROOT
ATOM     16  C   UNL     1      15.474   8.688  21.260  0.00  0.00    +0.129 C 
ATOM     17  C   UNL     1      15.439   7.161  21.057  0.00  0.00    +0.167 C 
ATOM     18  C   UNL     1      14.136   6.712  20.384  0.00  0.00    +0.149 C 
ATOM     19  C   UNL     1      12.893   7.175  21.164  0.00  0.00    +0.074 C 
ATOM     20  C   UNL     1      14.180   9.247  21.782  0.00  0.00    +0.006 C 
ATOM     21  C   UNL     1      13.031   8.555  21.740  0.00  0.00    +0.015 C 
ENDROOT
BRANCH  16   7
ATOM      3  O   UNL     1      17.715  10.392  20.625  0.00  0.00    -0.253 OA
ATOM      6  N   UNL     1      18.484  10.132  22.799  0.00  0.00    -0.297 N 
ATOM      7  N   UNL     1      16.544   9.083  22.143  0.00  0.00    -0.291 N 
ATOM     22  C   UNL     1      17.592   9.912  21.751  0.00  0.00    +0.300 C 
ATOM     27  H   UNL     1      18.251   9.753  23.712  0.00  0.00    +0.151 HD
ATOM     28  H   UNL     1      16.567   8.697  23.083  0.00  0.00    +0.151 HD
BRANCH   6  10
ATOM     10  C   UNL     1      19.663  10.958  22.664  0.00  0.00    +0.074 C 
ATOM     11  C   UNL     1      19.429  12.353  23.255  0.00  0.00    +0.022 C 
ATOM     12  C   UNL     1      20.884  10.284  23.300  0.00  0.00    +0.022 C 
ATOM     13  C   UNL     1      19.364  12.337  24.783  0.00  0.00    +0.002 C 
ATOM     14  C   UNL     1      20.817  10.272  24.827  0.00  0.00    +0.002 C 
ATOM     15  C   UNL     1      20.595  11.671  25.391  0.00  0.00    +0.000 C 
ENDBRANCH   6  10
ENDBRANCH  16   7
BRANCH  21  23
ATOM      4  O   UNL     1      10.744   8.622  22.277  0.00  0.00    -0.271 OA
ATOM      8  N   UNL     1      12.071  10.480  22.749  0.00  0.00    -0.301 N 
ATOM     23  C   UNL     1      11.830   9.202  22.277  0.00  0.00    +0.240 C 
ATOM     31  H   UNL     1      13.012  10.863  22.695  0.00  0.00    +0.150 HD
BRANCH   8  24
ATOM     24  C   UNL     1      11.041  11.317  23.322  0.00  0.00    +0.156 C 
ATOM     25  C   UNL     1      10.922  12.632  22.569  0.00  0.00    +0.038 C 
BRANCH  24  26
ATOM      5  O   UNL     1      10.593  12.027  25.601  0.00  0.00    -0.274 OA
ATOM      9  N   UNL     1      12.656  11.144  25.112  0.00  0.00    -0.328 N 
ATOM     26  C   UNL     1      11.381  11.555  24.785  0.00  0.00    +0.231 C 
ATOM     32  H   UNL     1      13.006  11.235  26.060  0.00  0.00    +0.145 HD
ATOM     33  H   UNL     1      13.290  10.737  24.432  0.00  0.00    +0.145 HD
ENDBRANCH  24  26
ENDBRANCH   8  24
ENDBRANCH  21  23
BRANCH  17   1
ATOM      1  O   UNL     1      15.552   6.507  22.323  0.00  0.00    -0.387 OA
ATOM     29  H   UNL     1      16.355   6.843  22.756  0.00  0.00    +0.210 HD
ENDBRANCH  17   1
BRANCH  18   2
ATOM      2  O   UNL     1      14.083   7.198  19.045  0.00  0.00    -0.389 OA
ATOM     30  H   UNL     1      13.147   7.257  18.790  0.00  0.00    +0.210 HD
ENDBRANCH  18   2
TORSDOF 7
ENDMDL
