MODEL 1
REMARK VINA RESULT:      -6.5      0.000      0.000
REMARK  Name = 45783353
REMARK  9 active torsions:
REMARK  status: ('A' for Active; 'I' for Inactive)
REMARK    1  A    between atoms: O_2  and  C_24
REMARK    2  A    between atoms: O_2  and  C_26
REMARK    3  A    between atoms: O_3  and  C_27
REMARK    4  A    between atoms: O_3  and  C_28
REMARK    5  A    between atoms: N_4  and  C_9
REMARK    6  A    between atoms: N_5  and  C_19
REMARK    7  A    between atoms: C_10  and  C_18
REMARK    8  A    between atoms: C_20  and  C_21
REMARK    9  A    between atoms: C_26  and  C_27
REMARK                            x       y       z     vdW  Elec       q    Type
REMARK                         _______ _______ _______ _____ _____    ______ ____
ROOT
ATOM      1  O   UNL     1      15.430   6.211  18.255  0.00  0.00    -0.336 OA
ATOM      6  N   UNL     1      16.140   7.635  19.831  0.00  0.00    -0.190 NA
ATOM      7  N   UNL     1      16.633   5.683  18.744  0.00  0.00    -0.056 NA
ATOM     18  C   UNL     1      15.214   7.359  18.948  0.00  0.00    +0.245 A 
ATOM     20  C   UNL     1      16.989   6.579  19.670  0.00  0.00    +0.202 A 
ENDROOT
BRANCH  20  21
ATOM      8  N   UNL     1      20.519   6.198  21.968  0.00  0.00    -0.221 NA
ATOM     21  C   UNL     1      18.187   6.449  20.448  0.00  0.00    +0.029 A 
ATOM     22  C   UNL     1      19.171   5.542  20.072  0.00  0.00    +0.079 A 
ATOM     23  C   UNL     1      18.368   7.231  21.584  0.00  0.00    +0.031 A 
ATOM     24  C   UNL     1      20.307   5.455  20.859  0.00  0.00    +0.215 A 
ATOM     25  C   UNL     1      19.541   7.069  22.303  0.00  0.00    +0.115 A 
BRANCH  24   2
ATOM      2  O   UNL     1      21.292   4.567  20.509  0.00  0.00    -0.474 OA
BRANCH   2  26
ATOM     26  C   UNL     1      22.621   5.071  20.465  0.00  0.00    +0.258 C 
BRANCH  26  27
ATOM     27  C   UNL     1      23.512   4.193  21.323  0.00  0.00    +0.200 C 
BRANCH  27   3
ATOM      3  O   UNL     1      23.461   2.859  20.832  0.00  0.00    -0.380 OA
ATOM     28  C   UNL     1      24.750   2.390  20.465  0.00  0.00    +0.194 C 
ENDBRANCH  27   3
ENDBRANCH  26  27
ENDBRANCH   2  26
ENDBRANCH  24   2
ENDBRANCH  20  21
BRANCH  18  10
ATOM      4  N   UNL     1      13.965   9.502  19.147  0.00  0.00    -0.288 NA
ATOM     10  C   UNL     1      13.958   8.130  18.601  0.00  0.00    +0.146 C 
ATOM     11  C   UNL     1      13.161  10.314  18.233  0.00  0.00    +0.085 C 
ATOM     14  C   UNL     1      13.773   8.313  17.083  0.00  0.00    +0.030 C 
ATOM     15  C   UNL     1      13.624   9.815  16.880  0.00  0.00    +0.017 C 
BRANCH   4   9
ATOM      5  N   UNL     1      11.505  10.558  22.448  0.00  0.00    -0.305 NA
ATOM      9  C   UNL     1      13.478   9.578  20.523  0.00  0.00    +0.060 C 
ATOM     12  C   UNL     1      12.070   8.987  20.621  0.00  0.00    +0.034 C 
ATOM     13  C   UNL     1      13.474  11.025  21.023  0.00  0.00    +0.034 C 
ATOM     16  C   UNL     1      11.504   9.148  22.035  0.00  0.00    +0.085 C 
ATOM     17  C   UNL     1      12.862  11.120  22.424  0.00  0.00    +0.085 C 
ATOM     19  C   UNL     1      10.916  10.701  23.779  0.00  0.00    +0.104 C 
ENDBRANCH   4   9
ENDBRANCH  18  10
TORSDOF 7
ENDMDL
MODEL 2
REMARK VINA RESULT:      -6.4      2.778      9.125
REMARK  Name = 45783353
REMARK  9 active torsions:
REMARK  status: ('A' for Active; 'I' for Inactive)
REMARK    1  A    between atoms: O_2  and  C_24
REMARK    2  A    between atoms: O_2  and  C_26
REMARK    3  A    between atoms: O_3  and  C_27
REMARK    4  A    between atoms: O_3  and  C_28
REMARK    5  A    between atoms: N_4  and  C_9
REMARK    6  A    between atoms: N_5  and  C_19
REMARK    7  A    between atoms: C_10  and  C_18
REMARK    8  A    between atoms: C_20  and  C_21
REMARK    9  A    between atoms: C_26  and  C_27
REMARK                            x       y       z     vdW  Elec       q    Type
REMARK                         _______ _______ _______ _____ _____    ______ ____
ROOT
ATOM      1  O   UNL     1      18.359   6.094  19.792  0.00  0.00    -0.336 OA
ATOM      6  N   UNL     1      16.908   7.496  20.764  0.00  0.00    -0.190 NA
ATOM      7  N   UNL     1      17.147   5.935  19.108  0.00  0.00    -0.056 NA
ATOM     18  C   UNL     1      18.131   7.030  20.750  0.00  0.00    +0.245 A 
ATOM     20  C   UNL     1      16.341   6.795  19.739  0.00  0.00    +0.202 A 
ENDROOT
BRANCH  20  21
ATOM      8  N   UNL     1      12.288   7.331  18.659  0.00  0.00    -0.221 NA
ATOM     21  C   UNL     1      14.967   6.977  19.372  0.00  0.00    +0.029 A 
ATOM     22  C   UNL     1      14.635   7.393  18.087  0.00  0.00    +0.079 A 
ATOM     23  C   UNL     1      13.959   6.736  20.300  0.00  0.00    +0.031 A 
ATOM     24  C   UNL     1      13.293   7.554  17.784  0.00  0.00    +0.215 A 
ATOM     25  C   UNL     1      12.647   6.926  19.898  0.00  0.00    +0.115 A 
BRANCH  24   2
ATOM      2  O   UNL     1      12.941   7.965  16.525  0.00  0.00    -0.474 OA
BRANCH   2  26
ATOM     26  C   UNL     1      12.515   9.315  16.388  0.00  0.00    +0.258 C 
BRANCH  26  27
ATOM     27  C   UNL     1      13.733  10.208  16.251  0.00  0.00    +0.200 C 
BRANCH  27   3
ATOM      3  O   UNL     1      14.002  10.417  14.870  0.00  0.00    -0.380 OA
ATOM     28  C   UNL     1      15.334  10.866  14.662  0.00  0.00    +0.194 C 
ENDBRANCH  27   3
ENDBRANCH  26  27
ENDBRANCH   2  26
ENDBRANCH  24   2
ENDBRANCH  20  21
BRANCH  18  10
ATOM      4  N   UNL     1      20.590   7.377  20.913  0.00  0.00    -0.288 NA
ATOM     10  C   UNL     1      19.304   7.386  21.639  0.00  0.00    +0.146 C 
ATOM     11  C   UNL     1      21.449   8.352  21.583  0.00  0.00    +0.085 C 
ATOM     14  C   UNL     1      19.196   8.805  22.226  0.00  0.00    +0.030 C 
ATOM     15  C   UNL     1      20.491   9.499  21.830  0.00  0.00    +0.017 C 
BRANCH   4   9
ATOM      5  N   UNL     1      23.245   4.173  21.778  0.00  0.00    -0.305 NA
ATOM      9  C   UNL     1      21.206   6.053  20.846  0.00  0.00    +0.060 C 
ATOM     12  C   UNL     1      21.114   5.358  22.206  0.00  0.00    +0.034 C 
ATOM     13  C   UNL     1      22.669   6.152  20.407  0.00  0.00    +0.034 C 
ATOM     16  C   UNL     1      21.842   4.010  22.183  0.00  0.00    +0.085 C 
ATOM     17  C   UNL     1      23.347   4.780  20.443  0.00  0.00    +0.085 C 
ATOM     19  C   UNL     1      23.939   2.886  21.809  0.00  0.00    +0.104 C 
ENDBRANCH   4   9
ENDBRANCH  18  10
TORSDOF 7
ENDMDL
MODEL 3
REMARK VINA RESULT:      -6.2     27.194     29.914
REMARK  Name = 45783353
REMARK  9 active torsions:
REMARK  status: ('A' for Active; 'I' for Inactive)
REMARK    1  A    between atoms: O_2  and  C_24
REMARK    2  A    between atoms: O_2  and  C_26
REMARK    3  A    between atoms: O_3  and  C_27
REMARK    4  A    between atoms: O_3  and  C_28
REMARK    5  A    between atoms: N_4  and  C_9
REMARK    6  A    between atoms: N_5  and  C_19
REMARK    7  A    between atoms: C_10  and  C_18
REMARK    8  A    between atoms: C_20  and  C_21
REMARK    9  A    between atoms: C_26  and  C_27
REMARK                            x       y       z     vdW  Elec       q    Type
REMARK                         _______ _______ _______ _____ _____    ______ ____
ROOT
ATOM      1  O   UNL     1      -2.321 -10.912  14.663  0.00  0.00    -0.336 OA
ATOM      6  N   UNL     1      -4.547 -10.681  14.561  0.00  0.00    -0.190 NA
ATOM      7  N   UNL     1      -2.769 -10.860  15.990  0.00  0.00    -0.056 NA
ATOM     18  C   UNL     1      -3.430 -10.799  13.888  0.00  0.00    +0.245 A 
ATOM     20  C   UNL     1      -4.090 -10.724  15.847  0.00  0.00    +0.202 A 
ENDROOT
BRANCH  20  21
ATOM      8  N   UNL     1      -6.719 -10.435  19.147  0.00  0.00    -0.221 NA
ATOM     21  C   UNL     1      -4.982 -10.625  16.966  0.00  0.00    +0.029 A 
ATOM     22  C   UNL     1      -6.179  -9.927  16.847  0.00  0.00    +0.079 A 
ATOM     23  C   UNL     1      -4.654 -11.230  18.174  0.00  0.00    +0.031 A 
ATOM     24  C   UNL     1      -7.004  -9.861  17.957  0.00  0.00    +0.215 A 
ATOM     25  C   UNL     1      -5.548 -11.106  19.226  0.00  0.00    +0.115 A 
BRANCH  24   2
ATOM      2  O   UNL     1      -8.188  -9.177  17.865  0.00  0.00    -0.474 OA
BRANCH   2  26
ATOM     26  C   UNL     1      -8.691  -8.941  16.556  0.00  0.00    +0.258 C 
BRANCH  26  27
ATOM     27  C   UNL     1      -9.911  -8.046  16.648  0.00  0.00    +0.200 C 
BRANCH  27   3
ATOM      3  O   UNL     1     -10.036  -7.306  15.439  0.00  0.00    -0.380 OA
ATOM     28  C   UNL     1     -10.792  -6.119  15.631  0.00  0.00    +0.194 C 
ENDBRANCH  27   3
ENDBRANCH  26  27
ENDBRANCH   2  26
ENDBRANCH  24   2
ENDBRANCH  20  21
BRANCH  18  10
ATOM      4  N   UNL     1      -3.960  -9.768  11.685  0.00  0.00    -0.288 NA
ATOM     10  C   UNL     1      -3.212 -10.828  12.389  0.00  0.00    +0.146 C 
ATOM     11  C   UNL     1      -3.184  -9.440  10.489  0.00  0.00    +0.085 C 
ATOM     14  C   UNL     1      -1.740 -10.595  11.999  0.00  0.00    +0.030 C 
ATOM     15  C   UNL     1      -1.768  -9.423  11.027  0.00  0.00    +0.017 C 
BRANCH   4   9
ATOM      5  N   UNL     1      -7.804  -9.648   9.878  0.00  0.00    -0.305 NA
ATOM      9  C   UNL     1      -5.334 -10.147  11.363  0.00  0.00    +0.060 C 
ATOM     12  C   UNL     1      -5.463 -10.451   9.870  0.00  0.00    +0.034 C 
ATOM     13  C   UNL     1      -6.315  -9.040  11.759  0.00  0.00    +0.034 C 
ATOM     16  C   UNL     1      -6.917 -10.755   9.495  0.00  0.00    +0.085 C 
ATOM     17  C   UNL     1      -7.740  -9.389  11.323  0.00  0.00    +0.085 C 
ATOM     19  C   UNL     1      -9.180  -9.931   9.469  0.00  0.00    +0.104 C 
ENDBRANCH   4   9
ENDBRANCH  18  10
TORSDOF 7
ENDMDL
MODEL 4
REMARK VINA RESULT:      -6.2     28.497     32.951
REMARK  Name = 45783353
REMARK  9 active torsions:
REMARK  status: ('A' for Active; 'I' for Inactive)
REMARK    1  A    between atoms: O_2  and  C_24
REMARK    2  A    between atoms: O_2  and  C_26
REMARK    3  A    between atoms: O_3  and  C_27
REMARK    4  A    between atoms: O_3  and  C_28
REMARK    5  A    between atoms: N_4  and  C_9
REMARK    6  A    between atoms: N_5  and  C_19
REMARK    7  A    between atoms: C_10  and  C_18
REMARK    8  A    between atoms: C_20  and  C_21
REMARK    9  A    between atoms: C_26  and  C_27
REMARK                            x       y       z     vdW  Elec       q    Type
REMARK                         _______ _______ _______ _____ _____    ______ ____
ROOT
ATOM      1  O   UNL     1     -16.913   1.754  23.608  0.00  0.00    -0.336 OA
ATOM      6  N   UNL     1     -15.934   3.311  24.887  0.00  0.00    -0.190 NA
ATOM      7  N   UNL     1     -16.479   2.760  22.734  0.00  0.00    -0.056 NA
ATOM     18  C   UNL     1     -16.554   2.158  24.854  0.00  0.00    +0.245 A 
ATOM     20  C   UNL     1     -15.912   3.642  23.563  0.00  0.00    +0.202 A 
ENDROOT
BRANCH  20  21
ATOM      8  N   UNL     1     -14.157   7.241  22.205  0.00  0.00    -0.221 NA
ATOM     21  C   UNL     1     -15.316   4.862  23.102  0.00  0.00    +0.029 A 
ATOM     22  C   UNL     1     -14.102   4.835  22.425  0.00  0.00    +0.079 A 
ATOM     23  C   UNL     1     -15.952   6.078  23.330  0.00  0.00    +0.031 A 
ATOM     24  C   UNL     1     -13.569   6.041  22.002  0.00  0.00    +0.215 A 
ATOM     25  C   UNL     1     -15.336   7.229  22.866  0.00  0.00    +0.115 A 
BRANCH  24   2
ATOM      2  O   UNL     1     -12.372   6.041  21.333  0.00  0.00    -0.474 OA
BRANCH   2  26
ATOM     26  C   UNL     1     -11.966   7.272  20.748  0.00  0.00    +0.258 C 
BRANCH  26  27
ATOM     27  C   UNL     1     -11.630   7.040  19.288  0.00  0.00    +0.200 C 
BRANCH  27   3
ATOM      3  O   UNL     1     -11.256   8.278  18.695  0.00  0.00    -0.380 OA
ATOM     28  C   UNL     1     -10.633   9.139  19.637  0.00  0.00    +0.194 C 
ENDBRANCH  27   3
ENDBRANCH  26  27
ENDBRANCH   2  26
ENDBRANCH  24   2
ENDBRANCH  20  21
BRANCH  18  10
ATOM      4  N   UNL     1     -17.195   1.954  27.250  0.00  0.00    -0.288 NA
ATOM     10  C   UNL     1     -16.915   1.229  25.994  0.00  0.00    +0.146 C 
ATOM     11  C   UNL     1     -18.155   1.138  27.993  0.00  0.00    +0.085 C 
ATOM     14  C   UNL     1     -18.195   0.417  25.717  0.00  0.00    +0.030 C 
ATOM     15  C   UNL     1     -19.110   0.702  26.900  0.00  0.00    +0.017 C 
BRANCH   4   9
ATOM      5  N   UNL     1     -14.707   2.600  30.634  0.00  0.00    -0.305 NA
ATOM      9  C   UNL     1     -15.993   2.239  28.032  0.00  0.00    +0.060 C 
ATOM     12  C   UNL     1     -15.669   1.061  28.952  0.00  0.00    +0.034 C 
ATOM     13  C   UNL     1     -16.168   3.515  28.858  0.00  0.00    +0.034 C 
ATOM     16  C   UNL     1     -14.470   1.380  29.851  0.00  0.00    +0.085 C 
ATOM     17  C   UNL     1     -14.954   3.755  29.760  0.00  0.00    +0.085 C 
ATOM     19  C   UNL     1     -13.576   2.865  31.523  0.00  0.00    +0.104 C 
ENDBRANCH   4   9
ENDBRANCH  18  10
TORSDOF 7
ENDMDL
MODEL 5
REMARK VINA RESULT:      -6.2     27.386     30.529
REMARK  Name = 45783353
REMARK  9 active torsions:
REMARK  status: ('A' for Active; 'I' for Inactive)
REMARK    1  A    between atoms: O_2  and  C_24
REMARK    2  A    between atoms: O_2  and  C_26
REMARK    3  A    between atoms: O_3  and  C_27
REMARK    4  A    between atoms: O_3  and  C_28
REMARK    5  A    between atoms: N_4  and  C_9
REMARK    6  A    between atoms: N_5  and  C_19
REMARK    7  A    between atoms: C_10  and  C_18
REMARK    8  A    between atoms: C_20  and  C_21
REMARK    9  A    between atoms: C_26  and  C_27
REMARK                            x       y       z     vdW  Elec       q    Type
REMARK                         _______ _______ _______ _____ _____    ______ ____
ROOT
ATOM      1  O   UNL     1      -4.341 -12.159  17.392  0.00  0.00    -0.336 OA
ATOM      6  N   UNL     1      -5.359 -10.590  16.161  0.00  0.00    -0.190 NA
ATOM      7  N   UNL     1      -5.577 -11.923  18.008  0.00  0.00    -0.056 NA
ATOM     18  C   UNL     1      -4.293 -11.334  16.315  0.00  0.00    +0.245 A 
ATOM     20  C   UNL     1      -6.119 -10.986  17.223  0.00  0.00    +0.202 A 
ENDROOT
BRANCH  20  21
ATOM      8  N   UNL     1      -9.939  -9.330  17.961  0.00  0.00    -0.221 NA
ATOM     21  C   UNL     1      -7.414 -10.424  17.473  0.00  0.00    +0.029 A 
ATOM     22  C   UNL     1      -7.839  -9.305  16.766  0.00  0.00    +0.079 A 
ATOM     23  C   UNL     1      -8.252 -10.997  18.424  0.00  0.00    +0.031 A 
ATOM     24  C   UNL     1      -9.099  -8.801  17.045  0.00  0.00    +0.215 A 
ATOM     25  C   UNL     1      -9.493 -10.418  18.629  0.00  0.00    +0.115 A 
BRANCH  24   2
ATOM      2  O   UNL     1      -9.540  -7.698  16.362  0.00  0.00    -0.474 OA
BRANCH   2  26
ATOM     26  C   UNL     1     -10.791  -7.154  16.763  0.00  0.00    +0.258 C 
BRANCH  26  27
ATOM     27  C   UNL     1     -11.114  -5.956  15.891  0.00  0.00    +0.200 C 
BRANCH  27   3
ATOM      3  O   UNL     1     -11.563  -6.413  14.621  0.00  0.00    -0.380 OA
ATOM     28  C   UNL     1     -12.242  -5.389  13.909  0.00  0.00    +0.194 C 
ENDBRANCH  27   3
ENDBRANCH  26  27
ENDBRANCH   2  26
ENDBRANCH  24   2
ENDBRANCH  20  21
BRANCH  18  10
ATOM      4  N   UNL     1      -3.112 -10.537  14.274  0.00  0.00    -0.288 NA
ATOM     10  C   UNL     1      -3.038 -11.401  15.469  0.00  0.00    +0.146 C 
ATOM     11  C   UNL     1      -1.739 -10.134  13.971  0.00  0.00    +0.085 C 
ATOM     14  C   UNL     1      -1.786 -10.918  16.225  0.00  0.00    +0.030 C 
ATOM     15  C   UNL     1      -1.190  -9.825  15.348  0.00  0.00    +0.017 C 
BRANCH   4   9
ATOM      5  N   UNL     1      -4.389 -11.214  10.277  0.00  0.00    -0.305 NA
ATOM      9  C   UNL     1      -3.760 -11.183  13.134  0.00  0.00    +0.060 C 
ATOM     12  C   UNL     1      -2.722 -11.554  12.074  0.00  0.00    +0.034 C 
ATOM     13  C   UNL     1      -4.829 -10.272  12.524  0.00  0.00    +0.034 C 
ATOM     16  C   UNL     1      -3.393 -12.143  10.830  0.00  0.00    +0.085 C 
ATOM     17  C   UNL     1      -5.431 -10.901  11.265  0.00  0.00    +0.085 C 
ATOM     19  C   UNL     1      -4.986 -11.768   9.062  0.00  0.00    +0.104 C 
ENDBRANCH   4   9
ENDBRANCH  18  10
TORSDOF 7
ENDMDL
MODEL 6
REMARK VINA RESULT:      -6.1      5.300      8.472
REMARK  Name = 45783353
REMARK  9 active torsions:
REMARK  status: ('A' for Active; 'I' for Inactive)
REMARK    1  A    between atoms: O_2  and  C_24
REMARK    2  A    between atoms: O_2  and  C_26
REMARK    3  A    between atoms: O_3  and  C_27
REMARK    4  A    between atoms: O_3  and  C_28
REMARK    5  A    between atoms: N_4  and  C_9
REMARK    6  A    between atoms: N_5  and  C_19
REMARK    7  A    between atoms: C_10  and  C_18
REMARK    8  A    between atoms: C_20  and  C_21
REMARK    9  A    between atoms: C_26  and  C_27
REMARK                            x       y       z     vdW  Elec       q    Type
REMARK                         _______ _______ _______ _____ _____    ______ ____
ROOT
ATOM      1  O   UNL     1      14.052   9.526  14.872  0.00  0.00    -0.336 OA
ATOM      6  N   UNL     1      14.515  10.186  16.961  0.00  0.00    -0.190 NA
ATOM      7  N   UNL     1      13.780   8.427  15.698  0.00  0.00    -0.056 NA
ATOM     18  C   UNL     1      14.480  10.517  15.695  0.00  0.00    +0.245 A 
ATOM     20  C   UNL     1      14.077   8.895  16.914  0.00  0.00    +0.202 A 
ENDROOT
BRANCH  20  21
ATOM      8  N   UNL     1      13.700   6.549  20.412  0.00  0.00    -0.221 NA
ATOM     21  C   UNL     1      13.948   8.099  18.100  0.00  0.00    +0.029 A 
ATOM     22  C   UNL     1      12.700   7.908  18.682  0.00  0.00    +0.079 A 
ATOM     23  C   UNL     1      15.073   7.516  18.673  0.00  0.00    +0.031 A 
ATOM     24  C   UNL     1      12.631   7.131  19.827  0.00  0.00    +0.215 A 
ATOM     25  C   UNL     1      14.898   6.756  19.819  0.00  0.00    +0.115 A 
BRANCH  24   2
ATOM      2  O   UNL     1      11.411   6.929  20.419  0.00  0.00    -0.474 OA
BRANCH   2  26
ATOM     26  C   UNL     1      10.739   8.081  20.912  0.00  0.00    +0.258 C 
BRANCH  26  27
ATOM     27  C   UNL     1      11.173   8.334  22.343  0.00  0.00    +0.200 C 
BRANCH  27   3
ATOM      3  O   UNL     1      12.080   9.430  22.366  0.00  0.00    -0.380 OA
ATOM     28  C   UNL     1      11.609  10.513  21.576  0.00  0.00    +0.194 C 
ENDBRANCH  27   3
ENDBRANCH  26  27
ENDBRANCH   2  26
ENDBRANCH  24   2
ENDBRANCH  20  21
BRANCH  18  10
ATOM      4  N   UNL     1      16.144  11.777  14.339  0.00  0.00    -0.288 NA
ATOM     10  C   UNL     1      14.844  11.832  15.036  0.00  0.00    +0.146 C 
ATOM     11  C   UNL     1      16.060  12.731  13.233  0.00  0.00    +0.085 C 
ATOM     14  C   UNL     1      13.835  12.251  13.951  0.00  0.00    +0.030 C 
ATOM     15  C   UNL     1      14.668  12.468  12.696  0.00  0.00    +0.017 C 
BRANCH   4   9
ATOM      5  N   UNL     1      19.766  13.500  15.743  0.00  0.00    -0.305 NA
ATOM      9  C   UNL     1      17.281  12.049  15.216  0.00  0.00    +0.060 C 
ATOM     12  C   UNL     1      17.294  13.524  15.623  0.00  0.00    +0.034 C 
ATOM     13  C   UNL     1      18.600  11.684  14.531  0.00  0.00    +0.034 C 
ATOM     16  C   UNL     1      18.534  13.850  16.462  0.00  0.00    +0.085 C 
ATOM     17  C   UNL     1      19.797  12.070  15.404  0.00  0.00    +0.085 C 
ATOM     19  C   UNL     1      20.941  13.863  16.535  0.00  0.00    +0.104 C 
ENDBRANCH   4   9
ENDBRANCH  18  10
TORSDOF 7
ENDMDL
MODEL 7
REMARK VINA RESULT:      -6.1      2.350      3.408
REMARK  Name = 45783353
REMARK  9 active torsions:
REMARK  status: ('A' for Active; 'I' for Inactive)
REMARK    1  A    between atoms: O_2  and  C_24
REMARK    2  A    between atoms: O_2  and  C_26
REMARK    3  A    between atoms: O_3  and  C_27
REMARK    4  A    between atoms: O_3  and  C_28
REMARK    5  A    between atoms: N_4  and  C_9
REMARK    6  A    between atoms: N_5  and  C_19
REMARK    7  A    between atoms: C_10  and  C_18
REMARK    8  A    between atoms: C_20  and  C_21
REMARK    9  A    between atoms: C_26  and  C_27
REMARK                            x       y       z     vdW  Elec       q    Type
REMARK                         _______ _______ _______ _____ _____    ______ ____
ROOT
ATOM      1  O   UNL     1      16.188   5.852  18.411  0.00  0.00    -0.336 OA
ATOM      6  N   UNL     1      16.615   7.370  20.001  0.00  0.00    -0.190 NA
ATOM      7  N   UNL     1      17.422   5.494  18.970  0.00  0.00    -0.056 NA
ATOM     18  C   UNL     1      15.784   6.965  19.074  0.00  0.00    +0.245 A 
ATOM     20  C   UNL     1      17.605   6.436  19.900  0.00  0.00    +0.202 A 
ENDROOT
BRANCH  20  21
ATOM      8  N   UNL     1      21.027   6.549  22.383  0.00  0.00    -0.221 NA
ATOM     21  C   UNL     1      18.765   6.475  20.742  0.00  0.00    +0.029 A 
ATOM     22  C   UNL     1      18.799   7.318  21.847  0.00  0.00    +0.079 A 
ATOM     23  C   UNL     1      19.862   5.668  20.457  0.00  0.00    +0.031 A 
ATOM     24  C   UNL     1      19.943   7.318  22.628  0.00  0.00    +0.215 A 
ATOM     25  C   UNL     1      20.959   5.742  21.300  0.00  0.00    +0.115 A 
BRANCH  24   2
ATOM      2  O   UNL     1      20.000   8.141  23.723  0.00  0.00    -0.474 OA
BRANCH   2  26
ATOM     26  C   UNL     1      20.462   7.560  24.937  0.00  0.00    +0.258 C 
BRANCH  26  27
ATOM     27  C   UNL     1      20.654   8.655  25.968  0.00  0.00    +0.200 C 
BRANCH  27   3
ATOM      3  O   UNL     1      19.781   8.417  27.066  0.00  0.00    -0.380 OA
ATOM     28  C   UNL     1      20.400   7.608  28.057  0.00  0.00    +0.194 C 
ENDBRANCH  27   3
ENDBRANCH  26  27
ENDBRANCH   2  26
ENDBRANCH  24   2
ENDBRANCH  20  21
BRANCH  18  10
ATOM      4  N   UNL     1      14.317   8.976  19.037  0.00  0.00    -0.288 NA
ATOM     10  C   UNL     1      14.456   7.558  18.651  0.00  0.00    +0.146 C 
ATOM     11  C   UNL     1      13.439   9.591  18.042  0.00  0.00    +0.085 C 
ATOM     14  C   UNL     1      14.260   7.547  17.123  0.00  0.00    +0.030 C 
ATOM     15  C   UNL     1      13.958   8.992  16.751  0.00  0.00    +0.017 C 
BRANCH   4   9
ATOM      5  N   UNL     1      11.767  10.182  22.216  0.00  0.00    -0.305 NA
ATOM      9  C   UNL     1      13.819   9.157  20.399  0.00  0.00    +0.060 C 
ATOM     12  C   UNL     1      12.458   8.477  20.559  0.00  0.00    +0.034 C 
ATOM     13  C   UNL     1      13.705  10.644  20.747  0.00  0.00    +0.034 C 
ATOM     16  C   UNL     1      11.873   8.740  21.950  0.00  0.00    +0.085 C 
ATOM     17  C   UNL     1      13.080  10.837  22.131  0.00  0.00    +0.085 C 
ATOM     19  C   UNL     1      11.162  10.417  23.526  0.00  0.00    +0.104 C 
ENDBRANCH   4   9
ENDBRANCH  18  10
TORSDOF 7
ENDMDL
MODEL 8
REMARK VINA RESULT:      -6.0     30.077     33.641
REMARK  Name = 45783353
REMARK  9 active torsions:
REMARK  status: ('A' for Active; 'I' for Inactive)
REMARK    1  A    between atoms: O_2  and  C_24
REMARK    2  A    between atoms: O_2  and  C_26
REMARK    3  A    between atoms: O_3  and  C_27
REMARK    4  A    between atoms: O_3  and  C_28
REMARK    5  A    between atoms: N_4  and  C_9
REMARK    6  A    between atoms: N_5  and  C_19
REMARK    7  A    between atoms: C_10  and  C_18
REMARK    8  A    between atoms: C_20  and  C_21
REMARK    9  A    between atoms: C_26  and  C_27
REMARK                            x       y       z     vdW  Elec       q    Type
REMARK                         _______ _______ _______ _____ _____    ______ ____
ROOT
ATOM      1  O   UNL     1     -16.443   2.720  23.087  0.00  0.00    -0.336 OA
ATOM      6  N   UNL     1     -17.517   3.990  24.586  0.00  0.00    -0.190 NA
ATOM      7  N   UNL     1     -16.109   2.203  24.346  0.00  0.00    -0.056 NA
ATOM     18  C   UNL     1     -17.273   3.769  23.319  0.00  0.00    +0.245 A 
ATOM     20  C   UNL     1     -16.782   3.004  25.177  0.00  0.00    +0.202 A 
ENDROOT
BRANCH  20  21
ATOM      8  N   UNL     1     -16.657   2.548  29.380  0.00  0.00    -0.221 NA
ATOM     21  C   UNL     1     -16.739   2.849  26.602  0.00  0.00    +0.029 A 
ATOM     22  C   UNL     1     -16.513   1.597  27.163  0.00  0.00    +0.079 A 
ATOM     23  C   UNL     1     -16.923   3.952  27.430  0.00  0.00    +0.031 A 
ATOM     24  C   UNL     1     -16.482   1.501  28.544  0.00  0.00    +0.215 A 
ATOM     25  C   UNL     1     -16.874   3.751  28.800  0.00  0.00    +0.115 A 
BRANCH  24   2
ATOM      2  O   UNL     1     -16.262   0.277  29.120  0.00  0.00    -0.474 OA
BRANCH   2  26
ATOM     26  C   UNL     1     -15.651   0.275  30.405  0.00  0.00    +0.258 C 
BRANCH  26  27
ATOM     27  C   UNL     1     -14.155   0.084  30.241  0.00  0.00    +0.200 C 
BRANCH  27   3
ATOM      3  O   UNL     1     -13.530   1.360  30.164  0.00  0.00    -0.380 OA
ATOM     28  C   UNL     1     -13.637   2.067  31.391  0.00  0.00    +0.194 C 
ENDBRANCH  27   3
ENDBRANCH  26  27
ENDBRANCH   2  26
ENDBRANCH  24   2
ENDBRANCH  20  21
BRANCH  18  10
ATOM      4  N   UNL     1     -16.764   4.621  21.036  0.00  0.00    -0.288 NA
ATOM     10  C   UNL     1     -17.783   4.509  22.099  0.00  0.00    +0.146 C 
ATOM     11  C   UNL     1     -17.494   4.669  19.769  0.00  0.00    +0.085 C 
ATOM     14  C   UNL     1     -18.974   3.799  21.428  0.00  0.00    +0.030 C 
ATOM     15  C   UNL     1     -18.556   3.608  19.977  0.00  0.00    +0.017 C 
BRANCH   4   9
ATOM      5  N   UNL     1     -13.472   7.235  20.414  0.00  0.00    -0.305 NA
ATOM      9  C   UNL     1     -15.878   5.770  21.205  0.00  0.00    +0.060 C 
ATOM     12  C   UNL     1     -15.804   6.577  19.907  0.00  0.00    +0.034 C 
ATOM     13  C   UNL     1     -14.475   5.323  21.624  0.00  0.00    +0.034 C 
ATOM     16  C   UNL     1     -14.803   7.729  20.034  0.00  0.00    +0.085 C 
ATOM     17  C   UNL     1     -13.517   6.515  21.694  0.00  0.00    +0.085 C 
ATOM     19  C   UNL     1     -12.516   8.340  20.482  0.00  0.00    +0.104 C 
ENDBRANCH   4   9
ENDBRANCH  18  10
TORSDOF 7
ENDMDL
MODEL 9
REMARK VINA RESULT:      -6.0     27.587     30.151
REMARK  Name = 45783353
REMARK  9 active torsions:
REMARK  status: ('A' for Active; 'I' for Inactive)
REMARK    1  A    between atoms: O_2  and  C_24
REMARK    2  A    between atoms: O_2  and  C_26
REMARK    3  A    between atoms: O_3  and  C_27
REMARK    4  A    between atoms: O_3  and  C_28
REMARK    5  A    between atoms: N_4  and  C_9
REMARK    6  A    between atoms: N_5  and  C_19
REMARK    7  A    between atoms: C_10  and  C_18
REMARK    8  A    between atoms: C_20  and  C_21
REMARK    9  A    between atoms: C_26  and  C_27
REMARK                            x       y       z     vdW  Elec       q    Type
REMARK                         _______ _______ _______ _____ _____    ______ ____
ROOT
ATOM      1  O   UNL     1      -5.479  -9.930  13.700  0.00  0.00    -0.336 OA
ATOM      6  N   UNL     1      -4.058 -11.192  14.884  0.00  0.00    -0.190 NA
ATOM      7  N   UNL     1      -5.962  -9.930  15.015  0.00  0.00    -0.056 NA
ATOM     18  C   UNL     1      -4.358 -10.696  13.710  0.00  0.00    +0.245 A 
ATOM     20  C   UNL     1      -5.070 -10.695  15.653  0.00  0.00    +0.202 A 
ENDROOT
BRANCH  20  21
ATOM      8  N   UNL     1      -5.340 -11.547  19.786  0.00  0.00    -0.221 NA
ATOM     21  C   UNL     1      -5.163 -10.984  17.054  0.00  0.00    +0.029 A 
ATOM     22  C   UNL     1      -6.339 -10.721  17.746  0.00  0.00    +0.079 A 
ATOM     23  C   UNL     1      -4.075 -11.530  17.727  0.00  0.00    +0.031 A 
ATOM     24  C   UNL     1      -6.376 -11.017  19.099  0.00  0.00    +0.215 A 
ATOM     25  C   UNL     1      -4.213 -11.790  19.081  0.00  0.00    +0.115 A 
BRANCH  24   2
ATOM      2  O   UNL     1      -7.525 -10.766  19.803  0.00  0.00    -0.474 OA
BRANCH   2  26
ATOM     26  C   UNL     1      -8.640 -11.605  19.530  0.00  0.00    +0.258 C 
BRANCH  26  27
ATOM     27  C   UNL     1      -9.918 -10.832  19.790  0.00  0.00    +0.200 C 
BRANCH  27   3
ATOM      3  O   UNL     1     -10.616 -10.660  18.562  0.00  0.00    -0.380 OA
ATOM     28  C   UNL     1     -10.612  -9.302  18.147  0.00  0.00    +0.194 C 
ENDBRANCH  27   3
ENDBRANCH  26  27
ENDBRANCH   2  26
ENDBRANCH  24   2
ENDBRANCH  20  21
BRANCH  18  10
ATOM      4  N   UNL     1      -3.825  -9.694  11.495  0.00  0.00    -0.288 NA
ATOM     10  C   UNL     1      -3.637 -10.855  12.388  0.00  0.00    +0.146 C 
ATOM     11  C   UNL     1      -2.624  -9.614  10.664  0.00  0.00    +0.085 C 
ATOM     14  C   UNL     1      -2.110 -10.979  12.554  0.00  0.00    +0.030 C 
ATOM     15  C   UNL     1      -1.525  -9.885  11.671  0.00  0.00    +0.017 C 
BRANCH   4   9
ATOM      5  N   UNL     1      -6.412  -9.376   8.138  0.00  0.00    -0.305 NA
ATOM      9  C   UNL     1      -5.045  -9.774  10.694  0.00  0.00    +0.060 C 
ATOM     12  C   UNL     1      -4.835 -10.710   9.502  0.00  0.00    +0.034 C 
ATOM     13  C   UNL     1      -5.468  -8.388  10.202  0.00  0.00    +0.034 C 
ATOM     16  C   UNL     1      -6.070 -10.730   8.597  0.00  0.00    +0.085 C 
ATOM     17  C   UNL     1      -6.681  -8.482   9.273  0.00  0.00    +0.085 C 
ATOM     19  C   UNL     1      -7.561  -9.417   7.235  0.00  0.00    +0.104 C 
ENDBRANCH   4   9
ENDBRANCH  18  10
TORSDOF 7
ENDMDL
MODEL 10
REMARK VINA RESULT:      -6.0     16.712     20.716
REMARK  Name = 45783353
REMARK  9 active torsions:
REMARK  status: ('A' for Active; 'I' for Inactive)
REMARK    1  A    between atoms: O_2  and  C_24
REMARK    2  A    between atoms: O_2  and  C_26
REMARK    3  A    between atoms: O_3  and  C_27
REMARK    4  A    between atoms: O_3  and  C_28
REMARK    5  A    between atoms: N_4  and  C_9
REMARK    6  A    between atoms: N_5  and  C_19
REMARK    7  A    between atoms: C_10  and  C_18
REMARK    8  A    between atoms: C_20  and  C_21
REMARK    9  A    between atoms: C_26  and  C_27
REMARK                            x       y       z     vdW  Elec       q    Type
REMARK                         _______ _______ _______ _____ _____    ______ ____
ROOT
ATOM      1  O   UNL     1      11.725   3.098   2.464  0.00  0.00    -0.336 OA
ATOM      6  N   UNL     1      12.022   5.258   1.950  0.00  0.00    -0.190 NA
ATOM      7  N   UNL     1      10.840   3.818   3.279  0.00  0.00    -0.056 NA
ATOM     18  C   UNL     1      12.381   4.022   1.714  0.00  0.00    +0.245 A 
ATOM     20  C   UNL     1      11.075   5.083   2.917  0.00  0.00    +0.202 A 
ENDROOT
BRANCH  20  21
ATOM      8  N   UNL     1       9.031   8.360   4.641  0.00  0.00    -0.221 NA
ATOM     21  C   UNL     1      10.382   6.194   3.502  0.00  0.00    +0.029 A 
ATOM     22  C   UNL     1      10.528   6.474   4.856  0.00  0.00    +0.079 A 
ATOM     23  C   UNL     1       9.562   6.997   2.716  0.00  0.00    +0.031 A 
ATOM     24  C   UNL     1       9.837   7.558   5.372  0.00  0.00    +0.215 A 
ATOM     25  C   UNL     1       8.914   8.058   3.328  0.00  0.00    +0.115 A 
BRANCH  24   2
ATOM      2  O   UNL     1       9.963   7.854   6.705  0.00  0.00    -0.474 OA
BRANCH   2  26
ATOM     26  C   UNL     1      10.609   6.882   7.518  0.00  0.00    +0.258 C 
BRANCH  26  27
ATOM     27  C   UNL     1       9.583   6.242   8.433  0.00  0.00    +0.200 C 
BRANCH  27   3
ATOM      3  O   UNL     1      10.201   5.182   9.154  0.00  0.00    -0.380 OA
ATOM     28  C   UNL     1       9.268   4.502   9.981  0.00  0.00    +0.194 C 
ENDBRANCH  27   3
ENDBRANCH  26  27
ENDBRANCH   2  26
ENDBRANCH  24   2
ENDBRANCH  20  21
BRANCH  18  10
ATOM      4  N   UNL     1      13.385   4.203  -0.556  0.00  0.00    -0.288 NA
ATOM     10  C   UNL     1      13.409   3.490   0.737  0.00  0.00    +0.146 C 
ATOM     11  C   UNL     1      14.746   4.139  -1.087  0.00  0.00    +0.085 C 
ATOM     14  C   UNL     1      14.853   3.650   1.247  0.00  0.00    +0.030 C 
ATOM     15  C   UNL     1      15.580   4.413   0.148  0.00  0.00    +0.017 C 
BRANCH   4   9
ATOM      5  N   UNL     1      10.972   3.869  -4.038  0.00  0.00    -0.305 NA
ATOM      9  C   UNL     1      12.402   3.665  -1.494  0.00  0.00    +0.060 C 
ATOM     12  C   UNL     1      13.068   3.342  -2.832  0.00  0.00    +0.034 C 
ATOM     13  C   UNL     1      11.252   4.653  -1.707  0.00  0.00    +0.034 C 
ATOM     16  C   UNL     1      12.035   2.870  -3.860  0.00  0.00    +0.085 C 
ATOM     17  C   UNL     1      10.278   4.140  -2.771  0.00  0.00    +0.085 C 
ATOM     19  C   UNL     1      10.021   3.427  -5.058  0.00  0.00    +0.104 C 
ENDBRANCH   4   9
ENDBRANCH  18  10
TORSDOF 7
ENDMDL
