MODEL 1
REMARK VINA RESULT:      -7.5      0.000      0.000
REMARK  Name = 9421714
REMARK  2 active torsions:
REMARK  status: ('A' for Active; 'I' for Inactive)
REMARK    1  A    between atoms: N_5  and  C_24
REMARK    2  A    between atoms: C_13  and  C_14
REMARK                            x       y       z     vdW  Elec       q    Type
REMARK                         _______ _______ _______ _____ _____    ______ ____
ROOT
ATOM      1  O   UNL     1      12.820  10.091  17.190  0.00  0.00    -0.267 OA
ATOM      2  O   UNL     1      10.632   8.671  21.733  0.00  0.00    -0.252 OA
ATOM      3  N   UNL     1      13.964   9.078  18.954  0.00  0.00    -0.312 N 
ATOM      4  N   UNL     1      12.842   7.987  21.738  0.00  0.00    -0.284 N 
ATOM      5  N   UNL     1      12.188   9.935  22.897  0.00  0.00    -0.269 N 
ATOM      6  C   UNL     1      13.495   6.678  19.709  0.00  0.00    +0.027 C 
ATOM      7  C   UNL     1      15.183   8.018  20.887  0.00  0.00    +0.054 C 
ATOM      8  C   UNL     1      14.944   6.689  20.178  0.00  0.00    +0.018 C 
ATOM      9  C   UNL     1      13.295   7.799  18.682  0.00  0.00    +0.130 C 
ATOM     10  C   UNL     1      12.543   6.815  20.908  0.00  0.00    +0.114 C 
ATOM     11  C   UNL     1      14.934   9.190  19.954  0.00  0.00    +0.027 A 
ATOM     12  C   UNL     1      14.259   8.130  22.118  0.00  0.00    +0.119 C 
ATOM     14  C   UNL     1      14.413  11.428  18.309  0.00  0.00    +0.020 A 
ATOM     15  C   UNL     1      13.654  10.150  18.094  0.00  0.00    +0.255 A 
ATOM     16  C   UNL     1      15.614  10.337  20.108  0.00  0.00    +0.022 A 
ATOM     19  C   UNL     1      15.345  11.470  19.270  0.00  0.00    +0.011 A 
ATOM     23  C   UNL     1      11.795   8.864  22.095  0.00  0.00    +0.306 C 
ATOM     30  H   UNL     1      12.995   9.814  23.500  0.00  0.00    +0.156 HD
ENDROOT
BRANCH  14  13
ATOM     13  C   UNL     1      14.092  12.593  17.421  0.00  0.00    +0.024 C 
ATOM     17  C   UNL     1      13.521  13.761  18.238  0.00  0.00    +0.008 C 
ATOM     18  C   UNL     1      15.332  13.035  16.633  0.00  0.00    +0.008 C 
ATOM     20  C   UNL     1      13.233  14.976  17.359  0.00  0.00    +0.001 C 
ATOM     21  C   UNL     1      15.041  14.252  15.757  0.00  0.00    +0.001 C 
ATOM     22  C   UNL     1      14.465  15.407  16.572  0.00  0.00    +0.000 C 
ENDBRANCH  14  13
BRANCH   5  24
ATOM     24  C   UNL     1      11.551  11.195  23.017  0.00  0.00    +0.035 A 
ATOM     25  C   UNL     1      11.018  11.588  24.240  0.00  0.00    +0.023 A 
ATOM     26  C   UNL     1      11.465  12.034  21.908  0.00  0.00    +0.023 A 
ATOM     27  C   UNL     1      10.393  12.830  24.358  0.00  0.00    +0.002 A 
ATOM     28  C   UNL     1      10.840  13.275  22.026  0.00  0.00    +0.002 A 
ATOM     29  C   UNL     1      10.303  13.673  23.251  0.00  0.00    +0.000 A 
ENDBRANCH   5  24
TORSDOF 2
ENDMDL
MODEL 2
REMARK VINA RESULT:      -7.2     15.413     18.100
REMARK  Name = 9421714
REMARK  2 active torsions:
REMARK  status: ('A' for Active; 'I' for Inactive)
REMARK    1  A    between atoms: N_5  and  C_24
REMARK    2  A    between atoms: C_13  and  C_14
REMARK                            x       y       z     vdW  Elec       q    Type
REMARK                         _______ _______ _______ _____ _____    ______ ____
ROOT
ATOM      1  O   UNL     1      10.056   7.026   1.080  0.00  0.00    -0.267 OA
ATOM      2  O   UNL     1      11.793   9.676   5.251  0.00  0.00    -0.252 OA
ATOM      3  N   UNL     1       9.656   6.419   3.298  0.00  0.00    -0.312 N 
ATOM      4  N   UNL     1      10.465   7.932   5.991  0.00  0.00    -0.284 N 
ATOM      5  N   UNL     1      12.816   7.761   6.063  0.00  0.00    -0.269 N 
ATOM      6  C   UNL     1       8.226   7.832   4.881  0.00  0.00    +0.027 C 
ATOM      7  C   UNL     1       9.271   5.765   5.701  0.00  0.00    +0.054 C 
ATOM      8  C   UNL     1       7.945   6.510   5.585  0.00  0.00    +0.018 C 
ATOM      9  C   UNL     1       8.726   7.543   3.461  0.00  0.00    +0.130 C 
ATOM     10  C   UNL     1       9.231   8.666   5.691  0.00  0.00    +0.114 C 
ATOM     11  C   UNL     1       9.874   5.504   4.331  0.00  0.00    +0.027 A 
ATOM     12  C   UNL     1      10.261   6.585   6.555  0.00  0.00    +0.119 C 
ATOM     14  C   UNL     1      11.105   5.046   1.829  0.00  0.00    +0.020 A 
ATOM     15  C   UNL     1      10.233   6.254   2.023  0.00  0.00    +0.255 A 
ATOM     16  C   UNL     1      10.638   4.420   4.122  0.00  0.00    +0.022 A 
ATOM     19  C   UNL     1      11.261   4.193   2.850  0.00  0.00    +0.011 A 
ATOM     23  C   UNL     1      11.711   8.540   5.726  0.00  0.00    +0.306 C 
ATOM     30  H   UNL     1      12.717   7.083   6.811  0.00  0.00    +0.156 HD
ENDROOT
BRANCH  14  13
ATOM     13  C   UNL     1      11.747   4.853   0.488  0.00  0.00    +0.024 C 
ATOM     17  C   UNL     1      13.019   4.001   0.610  0.00  0.00    +0.008 C 
ATOM     18  C   UNL     1      10.762   4.222  -0.504  0.00  0.00    +0.008 C 
ATOM     20  C   UNL     1      13.663   3.750  -0.752  0.00  0.00    +0.001 C 
ATOM     21  C   UNL     1      11.410   3.972  -1.864  0.00  0.00    +0.001 C 
ATOM     22  C   UNL     1      12.677   3.131  -1.736  0.00  0.00    +0.000 C 
ENDBRANCH  14  13
BRANCH   5  24
ATOM     24  C   UNL     1      14.119   7.835   5.509  0.00  0.00    +0.035 A 
ATOM     25  C   UNL     1      14.350   7.364   4.220  0.00  0.00    +0.023 A 
ATOM     26  C   UNL     1      15.158   8.381   6.258  0.00  0.00    +0.023 A 
ATOM     27  C   UNL     1      15.632   7.439   3.675  0.00  0.00    +0.002 A 
ATOM     28  C   UNL     1      16.440   8.455   5.713  0.00  0.00    +0.002 A 
ATOM     29  C   UNL     1      16.677   7.983   4.421  0.00  0.00    +0.000 A 
ENDBRANCH   5  24
TORSDOF 2
ENDMDL
MODEL 3
REMARK VINA RESULT:      -7.0      3.005      5.740
REMARK  Name = 9421714
REMARK  2 active torsions:
REMARK  status: ('A' for Active; 'I' for Inactive)
REMARK    1  A    between atoms: N_5  and  C_24
REMARK    2  A    between atoms: C_13  and  C_14
REMARK                            x       y       z     vdW  Elec       q    Type
REMARK                         _______ _______ _______ _____ _____    ______ ____
ROOT
ATOM      1  O   UNL     1      13.248  11.199  21.776  0.00  0.00    -0.267 OA
ATOM      2  O   UNL     1      14.583   6.204  20.928  0.00  0.00    -0.252 OA
ATOM      3  N   UNL     1      13.209  10.151  19.690  0.00  0.00    -0.312 N 
ATOM      4  N   UNL     1      13.821   7.108  18.938  0.00  0.00    -0.284 N 
ATOM      5  N   UNL     1      16.133   6.871  19.339  0.00  0.00    -0.269 N 
ATOM      6  C   UNL     1      11.599   8.241  19.134  0.00  0.00    +0.027 C 
ATOM      7  C   UNL     1      13.212   9.007  17.445  0.00  0.00    +0.054 C 
ATOM      8  C   UNL     1      11.732   8.731  17.698  0.00  0.00    +0.018 C 
ATOM      9  C   UNL     1      12.036   9.361  20.085  0.00  0.00    +0.130 C 
ATOM     10  C   UNL     1      12.418   6.956  19.339  0.00  0.00    +0.114 C 
ATOM     11  C   UNL     1      13.743  10.059  18.403  0.00  0.00    +0.027 A 
ATOM     12  C   UNL     1      14.023   7.703  17.605  0.00  0.00    +0.119 C 
ATOM     14  C   UNL     1      14.835  11.951  20.195  0.00  0.00    +0.020 A 
ATOM     15  C   UNL     1      13.699  11.072  20.637  0.00  0.00    +0.255 A 
ATOM     16  C   UNL     1      14.743  10.874  18.028  0.00  0.00    +0.022 A 
ATOM     19  C   UNL     1      15.293  11.832  18.942  0.00  0.00    +0.011 A 
ATOM     23  C   UNL     1      14.839   6.695  19.825  0.00  0.00    +0.306 C 
ATOM     30  H   UNL     1      16.277   6.849  18.334  0.00  0.00    +0.156 HD
ENDROOT
BRANCH  14  13
ATOM     13  C   UNL     1      15.391  12.929  21.186  0.00  0.00    +0.024 C 
ATOM     17  C   UNL     1      16.769  12.475  21.688  0.00  0.00    +0.008 C 
ATOM     18  C   UNL     1      15.470  14.336  20.578  0.00  0.00    +0.008 C 
ATOM     20  C   UNL     1      17.375  13.483  22.662  0.00  0.00    +0.001 C 
ATOM     21  C   UNL     1      16.079  15.341  21.555  0.00  0.00    +0.001 C 
ATOM     22  C   UNL     1      17.444  14.880  22.057  0.00  0.00    +0.000 C 
ENDBRANCH  14  13
BRANCH   5  24
ATOM     24  C   UNL     1      17.320   7.029  20.097  0.00  0.00    +0.035 A 
ATOM     25  C   UNL     1      18.303   6.045  20.059  0.00  0.00    +0.023 A 
ATOM     26  C   UNL     1      17.496   8.171  20.874  0.00  0.00    +0.023 A 
ATOM     27  C   UNL     1      19.472   6.202  20.804  0.00  0.00    +0.002 A 
ATOM     28  C   UNL     1      18.665   8.329  21.619  0.00  0.00    +0.002 A 
ATOM     29  C   UNL     1      19.652   7.344  21.585  0.00  0.00    +0.000 A 
ENDBRANCH   5  24
TORSDOF 2
ENDMDL
MODEL 4
REMARK VINA RESULT:      -7.0     25.091     27.282
REMARK  Name = 9421714
REMARK  2 active torsions:
REMARK  status: ('A' for Active; 'I' for Inactive)
REMARK    1  A    between atoms: N_5  and  C_24
REMARK    2  A    between atoms: C_13  and  C_14
REMARK                            x       y       z     vdW  Elec       q    Type
REMARK                         _______ _______ _______ _____ _____    ______ ____
ROOT
ATOM      1  O   UNL     1     -13.917   8.439  18.619  0.00  0.00    -0.267 OA
ATOM      2  O   UNL     1     -16.541   9.937  22.899  0.00  0.00    -0.252 OA
ATOM      3  N   UNL     1     -14.627   6.998  20.313  0.00  0.00    -0.312 N 
ATOM      4  N   UNL     1     -16.357   7.631  22.921  0.00  0.00    -0.284 N 
ATOM      5  N   UNL     1     -14.931   8.959  24.249  0.00  0.00    -0.269 N 
ATOM      6  C   UNL     1     -17.098   6.543  20.794  0.00  0.00    +0.027 C 
ATOM      7  C   UNL     1     -15.371   5.470  22.173  0.00  0.00    +0.054 C 
ATOM      8  C   UNL     1     -16.606   5.200  21.320  0.00  0.00    +0.018 C 
ATOM      9  C   UNL     1     -16.023   7.145  19.883  0.00  0.00    +0.130 C 
ATOM     10  C   UNL     1     -17.457   7.476  21.962  0.00  0.00    +0.114 C 
ATOM     11  C   UNL     1     -14.278   6.138  21.357  0.00  0.00    +0.027 A 
ATOM     12  C   UNL     1     -15.746   6.368  23.371  0.00  0.00    +0.119 C 
ATOM     14  C   UNL     1     -12.221   7.453  19.935  0.00  0.00    +0.020 A 
ATOM     15  C   UNL     1     -13.656   7.685  19.557  0.00  0.00    +0.255 A 
ATOM     16  C   UNL     1     -12.985   5.931  21.657  0.00  0.00    +0.022 A 
ATOM     19  C   UNL     1     -11.945   6.602  20.932  0.00  0.00    +0.011 A 
ATOM     23  C   UNL     1     -15.974   8.928  23.325  0.00  0.00    +0.306 C 
ATOM     30  H   UNL     1     -14.813   8.165  24.869  0.00  0.00    +0.156 HD
ENDROOT
BRANCH  14  13
ATOM     13  C   UNL     1     -11.165   8.185  19.161  0.00  0.00    +0.024 C 
ATOM     17  C   UNL     1     -11.300   7.906  17.657  0.00  0.00    +0.008 C 
ATOM     18  C   UNL     1     -11.229   9.692  19.442  0.00  0.00    +0.008 C 
ATOM     20  C   UNL     1     -10.265   8.680  16.844  0.00  0.00    +0.001 C 
ATOM     21  C   UNL     1     -10.193  10.464  18.626  0.00  0.00    +0.001 C 
ATOM     22  C   UNL     1     -10.326  10.176  17.134  0.00  0.00    +0.000 C 
ENDBRANCH  14  13
BRANCH   5  24
ATOM     24  C   UNL     1     -14.016  10.018  24.474  0.00  0.00    +0.035 A 
ATOM     25  C   UNL     1     -14.040  10.708  25.682  0.00  0.00    +0.023 A 
ATOM     26  C   UNL     1     -13.098  10.359  23.484  0.00  0.00    +0.023 A 
ATOM     27  C   UNL     1     -13.137  11.750  25.903  0.00  0.00    +0.002 A 
ATOM     28  C   UNL     1     -12.196  11.400  23.706  0.00  0.00    +0.002 A 
ATOM     29  C   UNL     1     -12.216  12.096  24.915  0.00  0.00    +0.000 A 
ENDBRANCH   5  24
TORSDOF 2
ENDMDL
MODEL 5
REMARK VINA RESULT:      -6.9     14.362     17.128
REMARK  Name = 9421714
REMARK  2 active torsions:
REMARK  status: ('A' for Active; 'I' for Inactive)
REMARK    1  A    between atoms: N_5  and  C_24
REMARK    2  A    between atoms: C_13  and  C_14
REMARK                            x       y       z     vdW  Elec       q    Type
REMARK                         _______ _______ _______ _____ _____    ______ ____
ROOT
ATOM      1  O   UNL     1      12.898   8.233   3.174  0.00  0.00    -0.267 OA
ATOM      2  O   UNL     1      10.407   9.151   7.691  0.00  0.00    -0.252 OA
ATOM      3  N   UNL     1      10.721   9.058   3.345  0.00  0.00    -0.312 N 
ATOM      4  N   UNL     1       9.048   9.841   5.950  0.00  0.00    -0.284 N 
ATOM      5  N   UNL     1       8.661   7.778   7.026  0.00  0.00    -0.269 N 
ATOM      6  C   UNL     1      10.190  11.362   4.325  0.00  0.00    +0.027 C 
ATOM      7  C   UNL     1       8.360   9.912   3.557  0.00  0.00    +0.054 C 
ATOM      8  C   UNL     1       8.962  11.308   3.425  0.00  0.00    +0.018 C 
ATOM      9  C   UNL     1      11.227  10.356   3.813  0.00  0.00    +0.130 C 
ATOM     10  C   UNL     1       9.795  11.093   5.786  0.00  0.00    +0.114 C 
ATOM     11  C   UNL     1       9.356   8.846   3.136  0.00  0.00    +0.027 A 
ATOM     12  C   UNL     1       7.922   9.665   5.016  0.00  0.00    +0.119 C 
ATOM     14  C   UNL     1      11.172   6.792   2.449  0.00  0.00    +0.020 A 
ATOM     15  C   UNL     1      11.686   8.083   3.023  0.00  0.00    +0.255 A 
ATOM     16  C   UNL     1       8.928   7.692   2.599  0.00  0.00    +0.022 A 
ATOM     19  C   UNL     1       9.855   6.653   2.253  0.00  0.00    +0.011 A 
ATOM     23  C   UNL     1       9.449   8.926   6.948  0.00  0.00    +0.306 C 
ATOM     30  H   UNL     1       7.692   7.838   6.734  0.00  0.00    +0.156 HD
ENDROOT
BRANCH  14  13
ATOM     13  C   UNL     1      12.173   5.728   2.113  0.00  0.00    +0.024 C 
ATOM     17  C   UNL     1      11.566   4.329   2.303  0.00  0.00    +0.008 C 
ATOM     18  C   UNL     1      12.696   5.903   0.681  0.00  0.00    +0.008 C 
ATOM     20  C   UNL     1      12.554   3.229   1.919  0.00  0.00    +0.001 C 
ATOM     21  C   UNL     1      13.682   4.800   0.300  0.00  0.00    +0.001 C 
ATOM     22  C   UNL     1      13.077   3.413   0.499  0.00  0.00    +0.000 C 
ENDBRANCH  14  13
BRANCH   5  24
ATOM     24  C   UNL     1       9.044   6.509   7.528  0.00  0.00    +0.035 A 
ATOM     25  C   UNL     1       8.990   6.260   8.896  0.00  0.00    +0.023 A 
ATOM     26  C   UNL     1       9.469   5.518   6.647  0.00  0.00    +0.023 A 
ATOM     27  C   UNL     1       9.365   5.010   9.389  0.00  0.00    +0.002 A 
ATOM     28  C   UNL     1       9.844   4.268   7.140  0.00  0.00    +0.002 A 
ATOM     29  C   UNL     1       9.793   4.014   8.511  0.00  0.00    +0.000 A 
ENDBRANCH   5  24
TORSDOF 2
ENDMDL
MODEL 6
REMARK VINA RESULT:      -6.9     18.484     21.229
REMARK  Name = 9421714
REMARK  2 active torsions:
REMARK  status: ('A' for Active; 'I' for Inactive)
REMARK    1  A    between atoms: N_5  and  C_24
REMARK    2  A    between atoms: C_13  and  C_14
REMARK                            x       y       z     vdW  Elec       q    Type
REMARK                         _______ _______ _______ _____ _____    ______ ____
ROOT
ATOM      1  O   UNL     1      12.422   8.007   1.868  0.00  0.00    -0.267 OA
ATOM      2  O   UNL     1      12.979   5.426  -2.657  0.00  0.00    -0.252 OA
ATOM      3  N   UNL     1      12.832   5.716   1.689  0.00  0.00    -0.312 N 
ATOM      4  N   UNL     1      13.358   3.948  -0.918  0.00  0.00    -0.284 N 
ATOM      5  N   UNL     1      11.288   3.961  -2.049  0.00  0.00    -0.269 N 
ATOM      6  C   UNL     1      15.021   4.773   0.758  0.00  0.00    +0.027 C 
ATOM      7  C   UNL     1      13.237   3.239   1.467  0.00  0.00    +0.054 C 
ATOM      8  C   UNL     1      14.717   3.568   1.641  0.00  0.00    +0.018 C 
ATOM      9  C   UNL     1      14.213   5.974   1.259  0.00  0.00    +0.130 C 
ATOM     10  C   UNL     1      14.723   4.447  -0.714  0.00  0.00    +0.114 C 
ATOM     11  C   UNL     1      12.364   4.413   1.874  0.00  0.00    +0.027 A 
ATOM     12  C   UNL     1      12.952   2.866  -0.003  0.00  0.00    +0.119 C 
ATOM     14  C   UNL     1      10.667   6.573   2.536  0.00  0.00    +0.020 A 
ATOM     15  C   UNL     1      12.045   6.842   2.000  0.00  0.00    +0.255 A 
ATOM     16  C   UNL     1      11.137   4.202   2.378  0.00  0.00    +0.022 A 
ATOM     19  C   UNL     1      10.280   5.303   2.711  0.00  0.00    +0.011 A 
ATOM     23  C   UNL     1      12.560   4.520  -1.932  0.00  0.00    +0.306 C 
ATOM     30  H   UNL     1      11.159   2.995  -1.768  0.00  0.00    +0.156 HD
ENDROOT
BRANCH  14  13
ATOM     13  C   UNL     1       9.798   7.752   2.859  0.00  0.00    +0.024 C 
ATOM     17  C   UNL     1       9.010   8.205   1.621  0.00  0.00    +0.008 C 
ATOM     18  C   UNL     1       8.849   7.428   4.019  0.00  0.00    +0.008 C 
ATOM     20  C   UNL     1       8.081   9.374   1.940  0.00  0.00    +0.001 C 
ATOM     21  C   UNL     1       7.920   8.599   4.334  0.00  0.00    +0.001 C 
ATOM     22  C   UNL     1       7.146   9.050   3.099  0.00  0.00    +0.000 C 
ENDBRANCH  14  13
BRANCH   5  24
ATOM     24  C   UNL     1      10.126   4.577  -2.576  0.00  0.00    +0.035 A 
ATOM     25  C   UNL     1       9.516   5.615  -1.878  0.00  0.00    +0.023 A 
ATOM     26  C   UNL     1       9.604   4.141  -3.791  0.00  0.00    +0.023 A 
ATOM     27  C   UNL     1       8.373   6.223  -2.398  0.00  0.00    +0.002 A 
ATOM     28  C   UNL     1       8.461   4.749  -4.311  0.00  0.00    +0.002 A 
ATOM     29  C   UNL     1       7.845   5.789  -3.614  0.00  0.00    +0.000 A 
ENDBRANCH   5  24
TORSDOF 2
ENDMDL
MODEL 7
REMARK VINA RESULT:      -6.8     25.017     27.378
REMARK  Name = 9421714
REMARK  2 active torsions:
REMARK  status: ('A' for Active; 'I' for Inactive)
REMARK    1  A    between atoms: N_5  and  C_24
REMARK    2  A    between atoms: C_13  and  C_14
REMARK                            x       y       z     vdW  Elec       q    Type
REMARK                         _______ _______ _______ _____ _____    ______ ____
ROOT
ATOM      1  O   UNL     1     -13.330   9.952  20.479  0.00  0.00    -0.267 OA
ATOM      2  O   UNL     1     -14.473  10.837  15.444  0.00  0.00    -0.252 OA
ATOM      3  N   UNL     1     -11.771   9.936  18.742  0.00  0.00    -0.312 N 
ATOM      4  N   UNL     1     -12.181  10.589  15.643  0.00  0.00    -0.284 N 
ATOM      5  N   UNL     1     -13.514   8.811  14.852  0.00  0.00    -0.269 N 
ATOM      6  C   UNL     1     -11.163  12.036  17.412  0.00  0.00    +0.027 C 
ATOM      7  C   UNL     1     -10.114   9.888  16.844  0.00  0.00    +0.054 C 
ATOM      8  C   UNL     1      -9.823  11.344  17.195  0.00  0.00    +0.018 C 
ATOM      9  C   UNL     1     -11.866  11.396  18.614  0.00  0.00    +0.130 C 
ATOM     10  C   UNL     1     -12.016  11.962  16.135  0.00  0.00    +0.114 C 
ATOM     11  C   UNL     1     -10.879   9.198  17.960  0.00  0.00    +0.027 A 
ATOM     12  C   UNL     1     -10.931   9.816  15.536  0.00  0.00    +0.119 C 
ATOM     14  C   UNL     1     -12.370   7.858  19.952  0.00  0.00    +0.020 A 
ATOM     15  C   UNL     1     -12.545   9.338  19.756  0.00  0.00    +0.255 A 
ATOM     16  C   UNL     1     -10.725   7.881  18.174  0.00  0.00    +0.022 A 
ATOM     19  C   UNL     1     -11.485   7.207  19.186  0.00  0.00    +0.011 A 
ATOM     23  C   UNL     1     -13.475  10.122  15.325  0.00  0.00    +0.306 C 
ATOM     30  H   UNL     1     -12.696   8.447  14.374  0.00  0.00    +0.156 HD
ENDROOT
BRANCH  14  13
ATOM     13  C   UNL     1     -13.193   7.190  21.012  0.00  0.00    +0.024 C 
ATOM     17  C   UNL     1     -14.602   6.873  20.489  0.00  0.00    +0.008 C 
ATOM     18  C   UNL     1     -12.502   5.917  21.517  0.00  0.00    +0.008 C 
ATOM     20  C   UNL     1     -15.443   6.147  21.537  0.00  0.00    +0.001 C 
ATOM     21  C   UNL     1     -13.346   5.192  22.564  0.00  0.00    +0.001 C 
ATOM     22  C   UNL     1     -14.748   4.888  22.042  0.00  0.00    +0.000 C 
ENDBRANCH  14  13
BRANCH   5  24
ATOM     24  C   UNL     1     -14.607   7.911  14.913  0.00  0.00    +0.035 A 
ATOM     25  C   UNL     1     -15.364   7.819  16.076  0.00  0.00    +0.023 A 
ATOM     26  C   UNL     1     -14.915   7.125  13.805  0.00  0.00    +0.023 A 
ATOM     27  C   UNL     1     -16.441   6.934  16.134  0.00  0.00    +0.002 A 
ATOM     28  C   UNL     1     -15.992   6.239  13.864  0.00  0.00    +0.002 A 
ATOM     29  C   UNL     1     -16.754   6.143  15.028  0.00  0.00    +0.000 A 
ENDBRANCH   5  24
TORSDOF 2
ENDMDL
MODEL 8
REMARK VINA RESULT:      -6.8     23.141     24.918
REMARK  Name = 9421714
REMARK  2 active torsions:
REMARK  status: ('A' for Active; 'I' for Inactive)
REMARK    1  A    between atoms: N_5  and  C_24
REMARK    2  A    between atoms: C_13  and  C_14
REMARK                            x       y       z     vdW  Elec       q    Type
REMARK                         _______ _______ _______ _____ _____    ______ ____
ROOT
ATOM      1  O   UNL     1      -6.301  10.205   5.806  0.00  0.00    -0.267 OA
ATOM      2  O   UNL     1      -2.605  12.328   2.761  0.00  0.00    -0.252 OA
ATOM      3  N   UNL     1      -4.044   9.614   5.851  0.00  0.00    -0.312 N 
ATOM      4  N   UNL     1      -1.590  10.851   4.225  0.00  0.00    -0.284 N 
ATOM      5  N   UNL     1      -2.009  10.226   1.989  0.00  0.00    -0.269 N 
ATOM      6  C   UNL     1      -2.209  11.224   6.619  0.00  0.00    +0.027 C 
ATOM      7  C   UNL     1      -1.609   8.967   5.854  0.00  0.00    +0.054 C 
ATOM      8  C   UNL     1      -1.451   9.959   7.003  0.00  0.00    +0.018 C 
ATOM      9  C   UNL     1      -3.700  10.891   6.489  0.00  0.00    +0.130 C 
ATOM     10  C   UNL     1      -1.633  11.820   5.325  0.00  0.00    +0.114 C 
ATOM     11  C   UNL     1      -3.071   8.640   5.610  0.00  0.00    +0.027 A 
ATOM     12  C   UNL     1      -0.986   9.551   4.568  0.00  0.00    +0.119 C 
ATOM     14  C   UNL     1      -5.771   8.036   5.035  0.00  0.00    +0.020 A 
ATOM     15  C   UNL     1      -5.410   9.383   5.593  0.00  0.00    +0.255 A 
ATOM     16  C   UNL     1      -3.426   7.436   5.133  0.00  0.00    +0.022 A 
ATOM     19  C   UNL     1      -4.799   7.135   4.843  0.00  0.00    +0.011 A 
ATOM     23  C   UNL     1      -2.115  11.215   2.965  0.00  0.00    +0.306 C 
ATOM     30  H   UNL     1      -1.251   9.555   2.063  0.00  0.00    +0.156 HD
ENDROOT
BRANCH  14  13
ATOM     13  C   UNL     1      -7.215   7.767   4.732  0.00  0.00    +0.024 C 
ATOM     17  C   UNL     1      -7.554   8.168   3.289  0.00  0.00    +0.008 C 
ATOM     18  C   UNL     1      -7.559   6.293   4.983  0.00  0.00    +0.008 C 
ATOM     20  C   UNL     1      -9.009   7.856   2.944  0.00  0.00    +0.001 C 
ATOM     21  C   UNL     1      -9.015   5.985   4.635  0.00  0.00    +0.001 C 
ATOM     22  C   UNL     1      -9.348   6.393   3.203  0.00  0.00    +0.000 C 
ENDBRANCH  14  13
BRANCH   5  24
ATOM     24  C   UNL     1      -2.823  10.064   0.840  0.00  0.00    +0.035 A 
ATOM     25  C   UNL     1      -4.206  10.156   0.953  0.00  0.00    +0.023 A 
ATOM     26  C   UNL     1      -2.231   9.817  -0.396  0.00  0.00    +0.023 A 
ATOM     27  C   UNL     1      -5.007   9.999  -0.178  0.00  0.00    +0.002 A 
ATOM     28  C   UNL     1      -3.032   9.660  -1.528  0.00  0.00    +0.002 A 
ATOM     29  C   UNL     1      -4.420   9.750  -1.418  0.00  0.00    +0.000 A 
ENDBRANCH   5  24
TORSDOF 2
ENDMDL
MODEL 9
REMARK VINA RESULT:      -6.6     28.758     32.197
REMARK  Name = 9421714
REMARK  2 active torsions:
REMARK  status: ('A' for Active; 'I' for Inactive)
REMARK    1  A    between atoms: N_5  and  C_24
REMARK    2  A    between atoms: C_13  and  C_14
REMARK                            x       y       z     vdW  Elec       q    Type
REMARK                         _______ _______ _______ _____ _____    ______ ____
ROOT
ATOM      1  O   UNL     1     -11.330 -13.282  17.515  0.00  0.00    -0.267 OA
ATOM      2  O   UNL     1      -7.619 -10.557  15.016  0.00  0.00    -0.252 OA
ATOM      3  N   UNL     1     -11.224 -10.952  17.432  0.00  0.00    -0.312 N 
ATOM      4  N   UNL     1      -9.175  -9.070  15.865  0.00  0.00    -0.284 N 
ATOM      5  N   UNL     1      -7.119  -9.414  16.969  0.00  0.00    -0.269 N 
ATOM      6  C   UNL     1     -11.536  -9.631  15.262  0.00  0.00    +0.027 C 
ATOM      7  C   UNL     1     -11.066  -8.438  17.358  0.00  0.00    +0.054 C 
ATOM      8  C   UNL     1     -12.026  -8.514  16.175  0.00  0.00    +0.018 C 
ATOM      9  C   UNL     1     -11.618 -10.963  16.017  0.00  0.00    +0.130 C 
ATOM     10  C   UNL     1     -10.112  -9.332  14.768  0.00  0.00    +0.114 C 
ATOM     11  C   UNL     1     -11.032  -9.751  18.120  0.00  0.00    +0.027 A 
ATOM     12  C   UNL     1      -9.646  -8.091  16.861  0.00  0.00    +0.119 C 
ATOM     14  C   UNL     1     -10.848 -12.182  19.550  0.00  0.00    +0.020 A 
ATOM     15  C   UNL     1     -11.152 -12.202  18.078  0.00  0.00    +0.255 A 
ATOM     16  C   UNL     1     -10.786  -9.763  19.440  0.00  0.00    +0.022 A 
ATOM     19  C   UNL     1     -10.693 -11.000  20.160  0.00  0.00    +0.011 A 
ATOM     23  C   UNL     1      -7.937  -9.750  15.892  0.00  0.00    +0.306 C 
ATOM     30  H   UNL     1      -7.214  -8.489  17.376  0.00  0.00    +0.156 HD
ENDROOT
BRANCH  14  13
ATOM     13  C   UNL     1     -10.746 -13.497  20.262  0.00  0.00    +0.024 C 
ATOM     17  C   UNL     1      -9.280 -13.840  20.569  0.00  0.00    +0.008 C 
ATOM     18  C   UNL     1     -11.583 -13.488  21.547  0.00  0.00    +0.008 C 
ATOM     20  C   UNL     1      -9.157 -15.153  21.339  0.00  0.00    +0.001 C 
ATOM     21  C   UNL     1     -11.456 -14.803  22.315  0.00  0.00    +0.001 C 
ATOM     22  C   UNL     1      -9.998 -15.142  22.610  0.00  0.00    +0.000 C 
ENDBRANCH  14  13
BRANCH   5  24
ATOM     24  C   UNL     1      -6.101 -10.209  17.553  0.00  0.00    +0.035 A 
ATOM     25  C   UNL     1      -6.328 -10.834  18.775  0.00  0.00    +0.023 A 
ATOM     26  C   UNL     1      -4.882 -10.361  16.898  0.00  0.00    +0.023 A 
ATOM     27  C   UNL     1      -5.327 -11.618  19.349  0.00  0.00    +0.002 A 
ATOM     28  C   UNL     1      -3.881 -11.145  17.472  0.00  0.00    +0.002 A 
ATOM     29  C   UNL     1      -4.103 -11.773  18.698  0.00  0.00    +0.000 A 
ENDBRANCH   5  24
TORSDOF 2
ENDMDL
MODEL 10
REMARK VINA RESULT:      -6.3     25.684     28.245
REMARK  Name = 9421714
REMARK  2 active torsions:
REMARK  status: ('A' for Active; 'I' for Inactive)
REMARK    1  A    between atoms: N_5  and  C_24
REMARK    2  A    between atoms: C_13  and  C_14
REMARK                            x       y       z     vdW  Elec       q    Type
REMARK                         _______ _______ _______ _____ _____    ______ ____
ROOT
ATOM      1  O   UNL     1     -14.420   9.044  22.303  0.00  0.00    -0.267 OA
ATOM      2  O   UNL     1     -14.868  10.535  17.301  0.00  0.00    -0.252 OA
ATOM      3  N   UNL     1     -12.679   9.013  20.748  0.00  0.00    -0.312 N 
ATOM      4  N   UNL     1     -12.654  10.004  17.713  0.00  0.00    -0.284 N 
ATOM      5  N   UNL     1     -14.065   8.477  16.598  0.00  0.00    -0.269 N 
ATOM      6  C   UNL     1     -11.703  11.146  19.724  0.00  0.00    +0.027 C 
ATOM      7  C   UNL     1     -10.827   8.954  19.041  0.00  0.00    +0.054 C 
ATOM      8  C   UNL     1     -10.427  10.326  19.576  0.00  0.00    +0.018 C 
ATOM      9  C   UNL     1     -12.604  10.480  20.770  0.00  0.00    +0.130 C 
ATOM     10  C   UNL     1     -12.404  11.294  18.365  0.00  0.00    +0.114 C 
ATOM     11  C   UNL     1     -11.784   8.254  19.989  0.00  0.00    +0.027 A 
ATOM     12  C   UNL     1     -11.488   9.104  17.654  0.00  0.00    +0.119 C 
ATOM     14  C   UNL     1     -13.630   6.913  21.657  0.00  0.00    +0.020 A 
ATOM     15  C   UNL     1     -13.624   8.415  21.605  0.00  0.00    +0.255 A 
ATOM     16  C   UNL     1     -11.796   6.914  20.074  0.00  0.00    +0.022 A 
ATOM     19  C   UNL     1     -12.736   6.239  20.922  0.00  0.00    +0.011 A 
ATOM     23  C   UNL     1     -13.944   9.724  17.211  0.00  0.00    +0.306 C 
ATOM     30  H   UNL     1     -13.240   8.068  16.172  0.00  0.00    +0.156 HD
ENDROOT
BRANCH  14  13
ATOM     13  C   UNL     1     -14.638   6.247  22.545  0.00  0.00    +0.024 C 
ATOM     17  C   UNL     1     -15.879   5.827  21.744  0.00  0.00    +0.008 C 
ATOM     18  C   UNL     1     -14.019   5.040  23.262  0.00  0.00    +0.008 C 
ATOM     20  C   UNL     1     -16.897   5.102  22.621  0.00  0.00    +0.001 C 
ATOM     21  C   UNL     1     -15.041   4.315  24.136  0.00  0.00    +0.001 C 
ATOM     22  C   UNL     1     -16.275   3.909  23.337  0.00  0.00    +0.000 C 
ENDBRANCH  14  13
BRANCH   5  24
ATOM     24  C   UNL     1     -15.246   7.709  16.445  0.00  0.00    +0.035 A 
ATOM     25  C   UNL     1     -15.601   7.228  15.189  0.00  0.00    +0.023 A 
ATOM     26  C   UNL     1     -16.043   7.439  17.555  0.00  0.00    +0.023 A 
ATOM     27  C   UNL     1     -16.763   6.470  15.039  0.00  0.00    +0.002 A 
ATOM     28  C   UNL     1     -17.204   6.681  17.405  0.00  0.00    +0.002 A 
ATOM     29  C   UNL     1     -17.564   6.197  16.147  0.00  0.00    +0.000 A 
ENDBRANCH   5  24
TORSDOF 2
ENDMDL
