REMARK  Name = 51138040
REMARK  8 active torsions:
REMARK  status: ('A' for Active; 'I' for Inactive)
REMARK    1  A    between atoms: N_3  and  C_6
REMARK    2  A    between atoms: N_4  and  C_23
REMARK    3  A    between atoms: C_9  and  C_16
REMARK    4  A    between atoms: C_10  and  C_17
REMARK    5  A    between atoms: C_16  and  C_19
REMARK    6  A    between atoms: C_19  and  C_25
REMARK    7  A    between atoms: C_19  and  C_26
REMARK    8  A    between atoms: C_23  and  C_27
REMARK                            x       y       z     vdW  Elec       q    Type
REMARK                         _______ _______ _______ _____ _____    ______ ____
ROOT
ATOM      2  N   UNL     1       1.885  -0.351   0.484  0.00  0.00    -0.299 NA
ATOM      4  N   UNL     1      -2.784   0.916  -0.963  0.00  0.00    -0.342 N 
ATOM      9  C   UNL     1       1.361  -1.519  -0.235  0.00  0.00    +0.085 C 
ATOM     10  C   UNL     1       1.873   0.889  -0.278  0.00  0.00    +0.145 C 
ATOM     12  C   UNL     1       0.642   1.735   0.046  0.00  0.00    +0.065 C 
ATOM     13  C   UNL     1      -0.120  -1.457  -0.622  0.00  0.00    -0.021 A 
ATOM     14  C   UNL     1      -0.912  -0.273  -0.651  0.00  0.00    +0.008 A 
ATOM     15  C   UNL     1      -0.647   1.114  -0.378  0.00  0.00    -0.020 A 
ATOM     18  C   UNL     1      -2.255  -0.350  -1.038  0.00  0.00    +0.050 A 
ATOM     20  C   UNL     1      -1.826   1.805  -0.573  0.00  0.00    +0.091 A 
ATOM     21  C   UNL     1      -0.756  -2.645  -1.065  0.00  0.00    +0.006 A 
ATOM     22  C   UNL     1      -2.876  -1.539  -1.426  0.00  0.00    +0.026 A 
ATOM     24  C   UNL     1      -2.096  -2.688  -1.445  0.00  0.00    +0.002 A 
ATOM     32  H   UNL     1       1.417  -0.236   1.383  0.00  0.00    +0.123 HD
ENDROOT
BRANCH  10  17
ATOM      1  O   UNL     1       3.081   2.418   1.094  0.00  0.00    -0.274 OA
ATOM      3  N   UNL     1       4.224   1.317  -0.600  0.00  0.00    -0.311 N 
ATOM     17  C   UNL     1       3.103   1.628   0.152  0.00  0.00    +0.231 C 
ATOM     33  H   UNL     1       4.123   0.644  -1.356  0.00  0.00    +0.149 HD
BRANCH   3   6
ATOM      6  C   UNL     1       5.543   1.920  -0.338  0.00  0.00    +0.073 C 
ATOM      7  C   UNL     1       6.219   1.432   0.960  0.00  0.00    +0.022 C 
ATOM      8  C   UNL     1       6.708   1.256  -1.103  0.00  0.00    +0.022 C 
ATOM     11  C   UNL     1       7.549   1.435   0.178  0.00  0.00    +0.004 C 
ENDBRANCH   3   6
ENDBRANCH  10  17
BRANCH   9  16
ATOM     16  C   UNL     1       1.682  -2.716   0.679  0.00  0.00    +0.026 C 
BRANCH  16  19
ATOM     19  C   UNL     1       3.155  -3.133   0.623  0.00  0.00    -0.015 C 
ATOM     25  C   UNL     1       3.366  -4.358   1.515  0.00  0.00    +0.007 C 
ATOM     26  C   UNL     1       4.102  -2.011   1.051  0.00  0.00    +0.007 C 
ENDBRANCH  16  19
ENDBRANCH   9  16
BRANCH   4  23
ATOM     23  C   UNL     1      -4.152   1.278  -1.269  0.00  0.00    +0.157 C 
BRANCH  23  27
ATOM      5  N   UNL     1      -6.912   0.346   1.899  0.00  0.00    -0.263 NA
ATOM     27  C   UNL     1      -5.119   0.951  -0.158  0.00  0.00    -0.025 A 
ATOM     28  C   UNL     1      -6.210   0.124  -0.404  0.00  0.00    +0.025 A 
ATOM     29  C   UNL     1      -4.923   1.475   1.115  0.00  0.00    +0.025 A 
ATOM     30  C   UNL     1      -7.069  -0.145   0.650  0.00  0.00    +0.111 A 
ATOM     31  C   UNL     1      -5.840   1.145   2.100  0.00  0.00    +0.111 A 
ENDBRANCH  23  27
ENDBRANCH   4  23
TORSDOF 6
