REMARK  Name = 56774566
REMARK  9 active torsions:
REMARK  status: ('A' for Active; 'I' for Inactive)
REMARK    1  A    between atoms: O_2  and  C_10
REMARK    2  A    between atoms: N_5  and  C_12
REMARK    3  A    between atoms: N_6  and  C_21
REMARK    4  A    between atoms: N_7  and  C_26
REMARK    5  A    between atoms: C_9  and  C_10
REMARK    6  A    between atoms: C_10  and  C_13
REMARK    7  A    between atoms: C_12  and  C_16
REMARK    8  A    between atoms: C_22  and  C_23
REMARK    9  A    between atoms: C_25  and  C_27
REMARK                            x       y       z     vdW  Elec       q    Type
REMARK                         _______ _______ _______ _____ _____    ______ ____
ROOT
ATOM     13  C   UNL     1       1.513   0.082  -0.678  0.00  0.00    -0.017 A 
ATOM     17  C   UNL     1       0.952   1.337  -0.437  0.00  0.00    +0.008 A 
ATOM     18  C   UNL     1       0.697  -1.048  -0.733  0.00  0.00    +0.008 A 
ATOM     19  C   UNL     1      -0.425   1.461  -0.251  0.00  0.00    +0.023 A 
ATOM     20  C   UNL     1      -0.680  -0.924  -0.547  0.00  0.00    +0.023 A 
ATOM     21  C   UNL     1      -1.241   0.331  -0.307  0.00  0.00    +0.034 A 
ENDROOT
BRANCH  21   6
ATOM      4  O   UNL     1      -3.395  -1.754  -0.329  0.00  0.00    -0.268 OA
ATOM      6  N   UNL     1      -2.618   0.455  -0.121  0.00  0.00    -0.280 N 
ATOM     22  C   UNL     1      -3.586  -0.557  -0.141  0.00  0.00    +0.266 C 
ATOM     29  H   UNL     1      -2.943   1.405   0.044  0.00  0.00    +0.155 HD
BRANCH  22  23
ATOM      7  N   UNL     1      -6.105  -0.697  -0.381  0.00  0.00    -0.262 N 
ATOM      8  N   UNL     1      -7.246  -0.102   0.007  0.00  0.00    -0.176 NA
ATOM     23  C   UNL     1      -4.980  -0.111   0.120  0.00  0.00    +0.124 A 
ATOM     24  C   UNL     1      -5.415   0.941   0.889  0.00  0.00    +0.057 A 
ATOM     25  C   UNL     1      -6.818   0.898   0.782  0.00  0.00    +0.061 A 
ATOM     26  C   UNL     1      -6.170  -1.848  -1.251  0.00  0.00    +0.173 C 
ATOM     27  C   UNL     1      -7.793   1.804   1.413  0.00  0.00    +0.067 C 
ENDBRANCH  22  23
ENDBRANCH  21   6
BRANCH  13  10
ATOM     10  C   UNL     1       3.001  -0.052  -0.880  0.00  0.00    +0.167 C 
BRANCH  10   9
ATOM      1  O   UNL     1       3.813  -1.659   1.437  0.00  0.00    -0.369 OA
ATOM      3  O   UNL     1       7.115  -1.018   0.122  0.00  0.00    -0.273 OA
ATOM      5  N   UNL     1       5.232   0.350   0.091  0.00  0.00    -0.292 N 
ATOM      9  C   UNL     1       3.788   0.460   0.330  0.00  0.00    +0.135 C 
ATOM     11  C   UNL     1       3.409  -0.304   1.594  0.00  0.00    +0.185 C 
ATOM     14  C   UNL     1       5.947  -0.792   0.446  0.00  0.00    +0.242 C 
ATOM     15  C   UNL     1       5.218  -1.762   1.368  0.00  0.00    +0.255 C 
BRANCH   5  12
ATOM     12  C   UNL     1       5.866   1.400  -0.695  0.00  0.00    +0.105 C 
ATOM     16  C   UNL     1       6.531   2.433   0.191  0.00  0.00    +0.024 C 
ENDBRANCH   5  12
ENDBRANCH  10   9
BRANCH  10   2
ATOM      2  O   UNL     1       3.391   0.678  -2.038  0.00  0.00    -0.385 OA
ATOM     28  H   UNL     1       3.019   1.574  -1.993  0.00  0.00    +0.210 HD
ENDBRANCH  10   2
ENDBRANCH  13  10
TORSDOF 6
