REMARK  Name = 11912603
REMARK  9 active torsions:
REMARK  status: ('A' for Active; 'I' for Inactive)
REMARK    1  A    between atoms: N_7  and  C_19
REMARK    2  A    between atoms: N_8  and  C_20
REMARK    3  A    between atoms: C_9  and  C_15
REMARK    4  A    between atoms: C_10  and  C_14
REMARK    5  A    between atoms: C_14  and  C_16
REMARK    6  A    between atoms: C_15  and  C_17
REMARK    7  A    between atoms: C_19  and  C_21
REMARK    8  A    between atoms: C_21  and  C_24
REMARK    9  A    between atoms: C_25  and  C_28
REMARK                            x       y       z     vdW  Elec       q    Type
REMARK                         _______ _______ _______ _____ _____    ______ ____
ROOT
ATOM      5  O   UNL     1       0.908   2.838  -0.149  0.00  0.00    -0.252 OA
ATOM      6  N   UNL     1      -0.379   1.335   1.046  0.00  0.00    -0.285 N 
ATOM      8  N   UNL     1       1.933   0.967   0.762  0.00  0.00    -0.269 N 
ATOM      9  C   UNL     1      -2.905  -0.073   0.920  0.00  0.00    +0.004 C 
ATOM     10  C   UNL     1      -1.580  -0.829   1.203  0.00  0.00    +0.010 C 
ATOM     11  C   UNL     1      -2.663   1.234   0.143  0.00  0.00    +0.023 C 
ATOM     12  C   UNL     1      -0.573   0.128   1.864  0.00  0.00    +0.113 C 
ATOM     13  C   UNL     1      -1.605   2.103   0.822  0.00  0.00    +0.109 C 
ATOM     18  C   UNL     1       0.841   1.796   0.510  0.00  0.00    +0.306 C 
ATOM     30  H   UNL     1       1.929   0.406   1.606  0.00  0.00    +0.156 HD
ENDROOT
BRANCH   8  20
ATOM     20  C   UNL     1       3.083   0.789  -0.047  0.00  0.00    +0.035 A 
ATOM     22  C   UNL     1       4.091  -0.087   0.355  0.00  0.00    +0.035 A 
ATOM     23  C   UNL     1       3.206   1.490  -1.246  0.00  0.00    +0.023 A 
ATOM     25  C   UNL     1       5.222  -0.262  -0.442  0.00  0.00    +0.057 A 
ATOM     26  C   UNL     1       4.337   1.316  -2.044  0.00  0.00    +0.002 A 
ATOM     27  C   UNL     1       5.345   0.440  -1.641  0.00  0.00    +0.012 A 
BRANCH  25  28
ATOM      1  F   UNL     1       7.346  -1.268  -0.888  0.00  0.00    -0.166 F 
ATOM      2  F   UNL     1       6.864  -0.869   1.188  0.00  0.00    -0.166 F 
ATOM      3  F   UNL     1       5.856  -2.480   0.131  0.00  0.00    -0.166 F 
ATOM     28  C   UNL     1       6.300  -1.198  -0.012  0.00  0.00    +0.417 C 
ENDBRANCH  25  28
ENDBRANCH   8  20
BRANCH  10  14
ATOM     14  C   UNL     1      -0.960  -1.488  -0.035  0.00  0.00    +0.002 C 
ATOM     16  C   UNL     1       0.275  -2.284   0.331  0.00  0.00    +0.004 C 
ENDBRANCH  10  14
BRANCH   9  15
ATOM     15  C   UNL     1      -3.949  -0.936   0.212  0.00  0.00    +0.099 C 
BRANCH  15  17
ATOM      4  O   UNL     1      -5.623   0.564   1.106  0.00  0.00    -0.276 OA
ATOM      7  N   UNL     1      -6.283  -1.210  -0.243  0.00  0.00    -0.315 N 
ATOM     17  C   UNL     1      -5.356  -0.422   0.425  0.00  0.00    +0.213 C 
ATOM     29  H   UNL     1      -5.959  -2.006  -0.785  0.00  0.00    +0.149 HD
BRANCH   7  19
ATOM     19  C   UNL     1      -7.705  -0.954  -0.212  0.00  0.00    +0.104 C 
BRANCH  19  21
ATOM     21  C   UNL     1      -8.153  -0.031  -1.339  0.00  0.00    +0.015 C 
ATOM     24  C   UNL     1      -7.873  -0.609  -2.719  0.00  0.00    +0.005 C 
ENDBRANCH  19  21
ENDBRANCH   7  19
ENDBRANCH  15  17
ENDBRANCH   9  15
TORSDOF 7
