MODEL 1
REMARK VINA RESULT:      -7.3      0.000      0.000
REMARK  Name = 11882569
REMARK  13 active torsions:
REMARK  status: ('A' for Active; 'I' for Inactive)
REMARK    1  A    between atoms: O_1  and  C_12
REMARK    2  A    between atoms: O_2  and  C_15
REMARK    3  A    between atoms: O_3  and  C_17
REMARK    4  A    between atoms: O_7  and  C_31
REMARK    5  A    between atoms: O_7  and  C_36
REMARK    6  A    between atoms: N_8  and  C_13
REMARK    7  A    between atoms: N_9  and  C_19
REMARK    8  A    between atoms: N_10  and  C_24
REMARK    9  A    between atoms: C_12  and  C_18
REMARK   10  A    between atoms: C_19  and  C_21
REMARK   11  A    between atoms: C_19  and  C_22
REMARK   12  A    between atoms: C_21  and  C_23
REMARK   13  A    between atoms: C_34  and  C_35
REMARK                            x       y       z     vdW  Elec       q    Type
REMARK                         _______ _______ _______ _____ _____    ______ ____
ROOT
ATOM     12  C   UNL     1      11.865   8.058  20.600  0.00  0.00    +0.146 C 
ATOM     13  C   UNL     1      13.872   7.348  19.212  0.00  0.00    +0.109 C 
ATOM     14  C   UNL     1      13.391   7.981  20.522  0.00  0.00    +0.069 C 
ATOM     15  C   UNL     1      13.274   8.050  17.986  0.00  0.00    +0.163 C 
ATOM     16  C   UNL     1      11.284   8.777  19.383  0.00  0.00    +0.078 C 
ATOM     17  C   UNL     1      11.748   8.150  18.069  0.00  0.00    +0.148 C 
ENDROOT
BRANCH  13   8
ATOM      5  O   UNL     1      15.675   6.012  20.992  0.00  0.00    -0.252 OA
ATOM      8  N   UNL     1      15.318   7.374  19.158  0.00  0.00    -0.294 N 
ATOM     10  N   UNL     1      17.474   6.898  19.772  0.00  0.00    -0.269 N 
ATOM     20  C   UNL     1      16.125   6.690  20.070  0.00  0.00    +0.304 C 
ATOM     37  H   UNL     1      15.765   7.976  18.473  0.00  0.00    +0.151 HD
ATOM     42  H   UNL     1      17.677   7.490  18.970  0.00  0.00    +0.156 HD
BRANCH  10  24
ATOM     24  C   UNL     1      18.603   6.384  20.452  0.00  0.00    +0.035 A 
ATOM     27  C   UNL     1      18.995   6.963  21.648  0.00  0.00    +0.023 A 
ATOM     28  C   UNL     1      19.294   5.314  19.907  0.00  0.00    +0.023 A 
ATOM     32  C   UNL     1      20.109   6.457  22.318  0.00  0.00    +0.005 A 
ATOM     33  C   UNL     1      20.408   4.808  20.578  0.00  0.00    +0.005 A 
ATOM     34  C   UNL     1      20.815   5.380  21.784  0.00  0.00    -0.050 A 
ATOM     35  C   UNL     1      22.006   4.839  22.500  0.00  0.00    +0.044 C 
ENDBRANCH  10  24
ENDBRANCH  13   8
BRANCH  12  18
ATOM      4  O   UNL     1      10.523   8.309  22.559  0.00  0.00    -0.273 OA
ATOM      9  N   UNL     1      12.160   9.900  22.104  0.00  0.00    -0.301 N 
ATOM     18  C   UNL     1      11.434   8.746  21.861  0.00  0.00    +0.246 C 
ATOM     41  H   UNL     1      12.831  10.226  21.417  0.00  0.00    +0.150 HD
BRANCH   9  19
ATOM     19  C   UNL     1      11.925  10.757  23.242  0.00  0.00    +0.163 C 
BRANCH  19  22
ATOM      6  O   UNL     1      10.964  12.335  21.663  0.00  0.00    -0.274 OA
ATOM     11  N   UNL     1      10.054  12.196  23.767  0.00  0.00    -0.328 N 
ATOM     22  C   UNL     1      10.963  11.847  22.791  0.00  0.00    +0.231 C 
ATOM     43  H   UNL     1      10.062  11.782  24.694  0.00  0.00    +0.145 HD
ATOM     44  H   UNL     1       9.345  12.901  23.591  0.00  0.00    +0.145 HD
ENDBRANCH  19  22
BRANCH  19  21
ATOM     21  C   UNL     1      13.219  11.377  23.783  0.00  0.00    +0.067 C 
BRANCH  21  23
ATOM     23  C   UNL     1      14.349  11.309  22.783  0.00  0.00    -0.045 A 
ATOM     25  C   UNL     1      14.538  12.360  21.900  0.00  0.00    +0.007 A 
ATOM     26  C   UNL     1      15.175  10.197  22.769  0.00  0.00    +0.007 A 
ATOM     29  C   UNL     1      15.581  12.296  20.976  0.00  0.00    +0.046 A 
ATOM     30  C   UNL     1      16.218  10.133  21.844  0.00  0.00    +0.046 A 
ATOM     31  C   UNL     1      16.421  11.183  20.948  0.00  0.00    +0.120 A 
BRANCH  31   7
ATOM      7  O   UNL     1      17.439  11.121  20.048  0.00  0.00    -0.495 OA
ATOM     36  C   UNL     1      18.201  12.310  19.845  0.00  0.00    +0.277 C 
ENDBRANCH  31   7
ENDBRANCH  21  23
ENDBRANCH  19  21
ENDBRANCH   9  19
ENDBRANCH  12  18
BRANCH  12   1
ATOM      1  O   UNL     1      11.304   6.753  20.681  0.00  0.00    -0.379 OA
ATOM     38  H   UNL     1      10.422   6.806  21.080  0.00  0.00    +0.211 HD
ENDBRANCH  12   1
BRANCH  15   2
ATOM      2  O   UNL     1      13.595   7.297  16.813  0.00  0.00    -0.387 OA
ATOM     39  H   UNL     1      14.518   7.497  16.582  0.00  0.00    +0.210 HD
ENDBRANCH  15   2
BRANCH  17   3
ATOM      3  O   UNL     1      11.289   8.958  16.984  0.00  0.00    -0.389 OA
ATOM     40  H   UNL     1      12.035   9.500  16.675  0.00  0.00    +0.210 HD
ENDBRANCH  17   3
TORSDOF 11
ENDMDL
MODEL 2
REMARK VINA RESULT:      -7.2      3.143      5.440
REMARK  Name = 11882569
REMARK  13 active torsions:
REMARK  status: ('A' for Active; 'I' for Inactive)
REMARK    1  A    between atoms: O_1  and  C_12
REMARK    2  A    between atoms: O_2  and  C_15
REMARK    3  A    between atoms: O_3  and  C_17
REMARK    4  A    between atoms: O_7  and  C_31
REMARK    5  A    between atoms: O_7  and  C_36
REMARK    6  A    between atoms: N_8  and  C_13
REMARK    7  A    between atoms: N_9  and  C_19
REMARK    8  A    between atoms: N_10  and  C_24
REMARK    9  A    between atoms: C_12  and  C_18
REMARK   10  A    between atoms: C_19  and  C_21
REMARK   11  A    between atoms: C_19  and  C_22
REMARK   12  A    between atoms: C_21  and  C_23
REMARK   13  A    between atoms: C_34  and  C_35
REMARK                            x       y       z     vdW  Elec       q    Type
REMARK                         _______ _______ _______ _____ _____    ______ ____
ROOT
ATOM     12  C   UNL     1      16.019   7.072  20.989  0.00  0.00    +0.146 C 
ATOM     13  C   UNL     1      18.525   6.917  21.383  0.00  0.00    +0.109 C 
ATOM     14  C   UNL     1      17.274   7.796  21.482  0.00  0.00    +0.069 C 
ATOM     15  C   UNL     1      18.713   6.349  19.970  0.00  0.00    +0.163 C 
ATOM     16  C   UNL     1      16.213   6.529  19.574  0.00  0.00    +0.078 C 
ATOM     17  C   UNL     1      17.453   5.642  19.463  0.00  0.00    +0.148 C 
ENDROOT
BRANCH  13   8
ATOM      5  O   UNL     1      20.703   5.985  22.992  0.00  0.00    -0.252 OA
ATOM      8  N   UNL     1      19.689   7.676  21.785  0.00  0.00    -0.294 N 
ATOM     10  N   UNL     1      21.699   8.103  22.801  0.00  0.00    -0.269 N 
ATOM     20  C   UNL     1      20.710   7.142  22.574  0.00  0.00    +0.304 C 
ATOM     37  H   UNL     1      19.728   8.662  21.546  0.00  0.00    +0.151 HD
ATOM     42  H   UNL     1      21.549   9.018  22.382  0.00  0.00    +0.156 HD
BRANCH  10  24
ATOM     24  C   UNL     1      22.891   7.963  23.549  0.00  0.00    +0.035 A 
ATOM     27  C   UNL     1      24.033   7.491  22.921  0.00  0.00    +0.023 A 
ATOM     28  C   UNL     1      22.893   8.298  24.892  0.00  0.00    +0.023 A 
ATOM     32  C   UNL     1      25.209   7.351  23.658  0.00  0.00    +0.005 A 
ATOM     33  C   UNL     1      24.070   8.159  25.629  0.00  0.00    +0.005 A 
ATOM     34  C   UNL     1      25.228   7.686  25.011  0.00  0.00    -0.050 A 
ATOM     35  C   UNL     1      26.485   7.537  25.800  0.00  0.00    +0.044 C 
ENDBRANCH  10  24
ENDBRANCH  13   8
BRANCH  12  18
ATOM      4  O   UNL     1      14.931   9.166  21.359  0.00  0.00    -0.273 OA
ATOM      9  N   UNL     1      13.656   7.335  20.697  0.00  0.00    -0.301 N 
ATOM     18  C   UNL     1      14.830   7.986  21.034  0.00  0.00    +0.246 C 
ATOM     41  H   UNL     1      13.663   6.334  20.533  0.00  0.00    +0.150 HD
BRANCH   9  19
ATOM     19  C   UNL     1      12.366   7.986  20.686  0.00  0.00    +0.163 C 
BRANCH  19  22
ATOM      6  O   UNL     1      10.481   7.619  22.175  0.00  0.00    -0.274 OA
ATOM     11  N   UNL     1      11.755   5.813  21.551  0.00  0.00    -0.328 N 
ATOM     22  C   UNL     1      11.438   7.155  21.560  0.00  0.00    +0.231 C 
ATOM     43  H   UNL     1      12.547   5.442  21.036  0.00  0.00    +0.145 HD
ATOM     44  H   UNL     1      11.205   5.144  22.082  0.00  0.00    +0.145 HD
ENDBRANCH  19  22
BRANCH  19  21
ATOM     21  C   UNL     1      11.791   8.118  19.270  0.00  0.00    +0.067 C 
BRANCH  21  23
ATOM     23  C   UNL     1      12.725   8.855  18.338  0.00  0.00    -0.045 A 
ATOM     25  C   UNL     1      13.264   8.187  17.250  0.00  0.00    +0.007 A 
ATOM     26  C   UNL     1      13.023  10.183  18.590  0.00  0.00    +0.007 A 
ATOM     29  C   UNL     1      14.126   8.868  16.391  0.00  0.00    +0.046 A 
ATOM     30  C   UNL     1      13.886  10.864  17.730  0.00  0.00    +0.046 A 
ATOM     31  C   UNL     1      14.437  10.206  16.631  0.00  0.00    +0.120 A 
BRANCH  31   7
ATOM      7  O   UNL     1      15.278  10.871  15.792  0.00  0.00    -0.495 OA
ATOM     36  C   UNL     1      15.831  12.098  16.264  0.00  0.00    +0.277 C 
ENDBRANCH  31   7
ENDBRANCH  21  23
ENDBRANCH  19  21
ENDBRANCH   9  19
ENDBRANCH  12  18
BRANCH  12   1
ATOM      1  O   UNL     1      15.691   5.995  21.860  0.00  0.00    -0.379 OA
ATOM     38  H   UNL     1      16.281   6.012  22.628  0.00  0.00    +0.211 HD
ENDBRANCH  12   1
BRANCH  15   2
ATOM      2  O   UNL     1      19.770   5.386  19.990  0.00  0.00    -0.387 OA
ATOM     39  H   UNL     1      19.364   4.506  19.908  0.00  0.00    +0.210 HD
ENDBRANCH  15   2
BRANCH  17   3
ATOM      3  O   UNL     1      17.651   5.295  18.092  0.00  0.00    -0.389 OA
ATOM     40  H   UNL     1      18.579   5.477  17.866  0.00  0.00    +0.210 HD
ENDBRANCH  17   3
TORSDOF 11
ENDMDL
MODEL 3
REMARK VINA RESULT:      -7.1     27.695     30.418
REMARK  Name = 11882569
REMARK  13 active torsions:
REMARK  status: ('A' for Active; 'I' for Inactive)
REMARK    1  A    between atoms: O_1  and  C_12
REMARK    2  A    between atoms: O_2  and  C_15
REMARK    3  A    between atoms: O_3  and  C_17
REMARK    4  A    between atoms: O_7  and  C_31
REMARK    5  A    between atoms: O_7  and  C_36
REMARK    6  A    between atoms: N_8  and  C_13
REMARK    7  A    between atoms: N_9  and  C_19
REMARK    8  A    between atoms: N_10  and  C_24
REMARK    9  A    between atoms: C_12  and  C_18
REMARK   10  A    between atoms: C_19  and  C_21
REMARK   11  A    between atoms: C_19  and  C_22
REMARK   12  A    between atoms: C_21  and  C_23
REMARK   13  A    between atoms: C_34  and  C_35
REMARK                            x       y       z     vdW  Elec       q    Type
REMARK                         _______ _______ _______ _____ _____    ______ ____
ROOT
ATOM     12  C   UNL     1      -5.587 -11.269  17.025  0.00  0.00    +0.146 C 
ATOM     13  C   UNL     1      -7.682 -10.086  17.843  0.00  0.00    +0.109 C 
ATOM     14  C   UNL     1      -6.508 -10.059  16.858  0.00  0.00    +0.069 C 
ATOM     15  C   UNL     1      -7.206 -10.244  19.293  0.00  0.00    +0.163 C 
ATOM     16  C   UNL     1      -5.104 -11.403  18.468  0.00  0.00    +0.078 C 
ATOM     17  C   UNL     1      -6.266 -11.441  19.462  0.00  0.00    +0.148 C 
ENDROOT
BRANCH  13   8
ATOM      5  O   UNL     1      -9.851  -9.678  16.018  0.00  0.00    -0.252 OA
ATOM      8  N   UNL     1      -8.473  -8.883  17.695  0.00  0.00    -0.294 N 
ATOM     10  N   UNL     1     -10.097  -7.500  16.858  0.00  0.00    -0.269 N 
ATOM     20  C   UNL     1      -9.518  -8.769  16.776  0.00  0.00    +0.304 C 
ATOM     37  H   UNL     1      -8.207  -8.063  18.230  0.00  0.00    +0.151 HD
ATOM     42  H   UNL     1      -9.698  -6.862  17.543  0.00  0.00    +0.156 HD
BRANCH  10  24
ATOM     24  C   UNL     1     -11.176  -6.987  16.101  0.00  0.00    +0.035 A 
ATOM     27  C   UNL     1     -12.452  -7.478  16.322  0.00  0.00    +0.023 A 
ATOM     28  C   UNL     1     -10.934  -6.005  15.155  0.00  0.00    +0.023 A 
ATOM     32  C   UNL     1     -13.517  -6.973  15.575  0.00  0.00    +0.005 A 
ATOM     33  C   UNL     1     -11.999  -5.500  14.408  0.00  0.00    +0.005 A 
ATOM     34  C   UNL     1     -13.290  -5.984  14.619  0.00  0.00    -0.050 A 
ATOM     35  C   UNL     1     -14.427  -5.443  13.819  0.00  0.00    +0.044 C 
ENDBRANCH  10  24
ENDBRANCH  13   8
BRANCH  12  18
ATOM      4  O   UNL     1      -3.440 -10.468  16.351  0.00  0.00    -0.273 OA
ATOM      9  N   UNL     1      -4.587 -11.933  14.952  0.00  0.00    -0.301 N 
ATOM     18  C   UNL     1      -4.414 -11.172  16.095  0.00  0.00    +0.246 C 
ATOM     41  H   UNL     1      -5.468 -12.408  14.791  0.00  0.00    +0.150 HD
BRANCH   9  19
ATOM     19  C   UNL     1      -3.612 -11.994  13.887  0.00  0.00    +0.163 C 
BRANCH  19  22
ATOM      6  O   UNL     1      -2.436 -14.055  14.410  0.00  0.00    -0.274 OA
ATOM     11  N   UNL     1      -1.373 -12.056  14.797  0.00  0.00    -0.328 N 
ATOM     22  C   UNL     1      -2.444 -12.826  14.397  0.00  0.00    +0.231 C 
ATOM     43  H   UNL     1      -1.393 -11.041  14.779  0.00  0.00    +0.145 HD
ATOM     44  H   UNL     1      -0.522 -12.487  15.145  0.00  0.00    +0.145 HD
ENDBRANCH  19  22
BRANCH  19  21
ATOM     21  C   UNL     1      -3.130 -10.603  13.459  0.00  0.00    +0.067 C 
BRANCH  21  23
ATOM     23  C   UNL     1      -3.753 -10.155  12.157  0.00  0.00    -0.045 A 
ATOM     25  C   UNL     1      -5.122  -9.950  12.095  0.00  0.00    +0.007 A 
ATOM     26  C   UNL     1      -2.943  -9.959  11.050  0.00  0.00    +0.007 A 
ATOM     29  C   UNL     1      -5.697  -9.538  10.892  0.00  0.00    +0.046 A 
ATOM     30  C   UNL     1      -3.518  -9.548   9.848  0.00  0.00    +0.046 A 
ATOM     31  C   UNL     1      -4.895  -9.337   9.769  0.00  0.00    +0.120 A 
BRANCH  31   7
ATOM      7  O   UNL     1      -5.455  -8.934   8.596  0.00  0.00    -0.495 OA
ATOM     36  C   UNL     1      -5.463  -9.875   7.523  0.00  0.00    +0.277 C 
ENDBRANCH  31   7
ENDBRANCH  21  23
ENDBRANCH  19  21
ENDBRANCH   9  19
ENDBRANCH  12  18
BRANCH  12   1
ATOM      1  O   UNL     1      -6.260 -12.464  16.647  0.00  0.00    -0.379 OA
ATOM     38  H   UNL     1      -7.177 -12.430  16.960  0.00  0.00    +0.211 HD
ENDBRANCH  12   1
BRANCH  15   2
ATOM      2  O   UNL     1      -8.340 -10.464  20.136  0.00  0.00    -0.387 OA
ATOM     39  H   UNL     1      -8.830 -11.222  19.774  0.00  0.00    +0.210 HD
ENDBRANCH  15   2
BRANCH  17   3
ATOM      3  O   UNL     1      -5.739 -11.417  20.789  0.00  0.00    -0.389 OA
ATOM     40  H   UNL     1      -5.829 -10.512  21.133  0.00  0.00    +0.210 HD
ENDBRANCH  17   3
TORSDOF 11
ENDMDL
MODEL 4
REMARK VINA RESULT:      -7.1     27.467     30.501
REMARK  Name = 11882569
REMARK  13 active torsions:
REMARK  status: ('A' for Active; 'I' for Inactive)
REMARK    1  A    between atoms: O_1  and  C_12
REMARK    2  A    between atoms: O_2  and  C_15
REMARK    3  A    between atoms: O_3  and  C_17
REMARK    4  A    between atoms: O_7  and  C_31
REMARK    5  A    between atoms: O_7  and  C_36
REMARK    6  A    between atoms: N_8  and  C_13
REMARK    7  A    between atoms: N_9  and  C_19
REMARK    8  A    between atoms: N_10  and  C_24
REMARK    9  A    between atoms: C_12  and  C_18
REMARK   10  A    between atoms: C_19  and  C_21
REMARK   11  A    between atoms: C_19  and  C_22
REMARK   12  A    between atoms: C_21  and  C_23
REMARK   13  A    between atoms: C_34  and  C_35
REMARK                            x       y       z     vdW  Elec       q    Type
REMARK                         _______ _______ _______ _____ _____    ______ ____
ROOT
ATOM     12  C   UNL     1      -5.327 -12.623  16.634  0.00  0.00    +0.146 C 
ATOM     13  C   UNL     1      -6.748 -11.169  18.159  0.00  0.00    +0.109 C 
ATOM     14  C   UNL     1      -6.276 -11.426  16.724  0.00  0.00    +0.069 C 
ATOM     15  C   UNL     1      -5.569 -11.036  19.132  0.00  0.00    +0.163 C 
ATOM     16  C   UNL     1      -4.147 -12.468  17.593  0.00  0.00    +0.078 C 
ATOM     17  C   UNL     1      -4.604 -12.220  19.031  0.00  0.00    +0.148 C 
ENDROOT
BRANCH  13   8
ATOM      5  O   UNL     1      -9.163 -10.721  16.687  0.00  0.00    -0.252 OA
ATOM      8  N   UNL     1      -7.576  -9.983  18.197  0.00  0.00    -0.294 N 
ATOM     10  N   UNL     1      -9.330  -8.601  17.682  0.00  0.00    -0.269 N 
ATOM     20  C   UNL     1      -8.744  -9.847  17.443  0.00  0.00    +0.304 C 
ATOM     37  H   UNL     1      -7.253  -9.187  18.738  0.00  0.00    +0.151 HD
ATOM     42  H   UNL     1      -8.851  -7.992  18.341  0.00  0.00    +0.156 HD
BRANCH  10  24
ATOM     24  C   UNL     1     -10.516  -8.077  17.117  0.00  0.00    +0.035 A 
ATOM     27  C   UNL     1     -10.459  -6.897  16.394  0.00  0.00    +0.023 A 
ATOM     28  C   UNL     1     -11.711  -8.754  17.300  0.00  0.00    +0.023 A 
ATOM     32  C   UNL     1     -11.629  -6.379  15.838  0.00  0.00    +0.005 A 
ATOM     33  C   UNL     1     -12.881  -8.236  16.743  0.00  0.00    +0.005 A 
ATOM     34  C   UNL     1     -12.839  -7.049  16.012  0.00  0.00    -0.050 A 
ATOM     35  C   UNL     1     -14.090  -6.496  15.417  0.00  0.00    +0.044 C 
ENDBRANCH  10  24
ENDBRANCH  13   8
BRANCH  12  18
ATOM      4  O   UNL     1      -5.560 -12.617  14.258  0.00  0.00    -0.273 OA
ATOM      9  N   UNL     1      -3.508 -13.203  15.187  0.00  0.00    -0.301 N 
ATOM     18  C   UNL     1      -4.832 -12.800  15.229  0.00  0.00    +0.246 C 
ATOM     41  H   UNL     1      -3.019 -13.418  16.048  0.00  0.00    +0.150 HD
BRANCH   9  19
ATOM     19  C   UNL     1      -2.801 -13.465  13.954  0.00  0.00    +0.163 C 
BRANCH  19  22
ATOM      6  O   UNL     1      -1.064 -15.098  13.481  0.00  0.00    -0.274 OA
ATOM     11  N   UNL     1      -2.568 -15.548  15.158  0.00  0.00    -0.328 N 
ATOM     22  C   UNL     1      -2.052 -14.777  14.139  0.00  0.00    +0.231 C 
ATOM     43  H   UNL     1      -3.382 -15.270  15.696  0.00  0.00    +0.145 HD
ATOM     44  H   UNL     1      -2.151 -16.443  15.397  0.00  0.00    +0.145 HD
ENDBRANCH  19  22
BRANCH  19  21
ATOM     21  C   UNL     1      -1.826 -12.339  13.591  0.00  0.00    +0.067 C 
BRANCH  21  23
ATOM     23  C   UNL     1      -2.322 -11.502  12.434  0.00  0.00    -0.045 A 
ATOM     25  C   UNL     1      -1.736 -10.271  12.187  0.00  0.00    +0.007 A 
ATOM     26  C   UNL     1      -3.351 -11.983  11.642  0.00  0.00    +0.007 A 
ATOM     29  C   UNL     1      -2.195  -9.498  11.120  0.00  0.00    +0.046 A 
ATOM     30  C   UNL     1      -3.810 -11.211  10.576  0.00  0.00    +0.046 A 
ATOM     31  C   UNL     1      -3.232  -9.968  10.314  0.00  0.00    +0.120 A 
BRANCH  31   7
ATOM      7  O   UNL     1      -3.679  -9.216   9.273  0.00  0.00    -0.495 OA
ATOM     36  C   UNL     1      -4.764  -9.740   8.510  0.00  0.00    +0.277 C 
ENDBRANCH  31   7
ENDBRANCH  21  23
ENDBRANCH  19  21
ENDBRANCH   9  19
ENDBRANCH  12  18
BRANCH  12   1
ATOM      1  O   UNL     1      -6.017 -13.830  16.938  0.00  0.00    -0.379 OA
ATOM     38  H   UNL     1      -5.377 -14.552  17.029  0.00  0.00    +0.211 HD
ENDBRANCH  12   1
BRANCH  15   2
ATOM      2  O   UNL     1      -6.069 -10.999  20.471  0.00  0.00    -0.387 OA
ATOM     39  H   UNL     1      -5.345 -10.698  21.045  0.00  0.00    +0.210 HD
ENDBRANCH  15   2
BRANCH  17   3
ATOM      3  O   UNL     1      -3.458 -11.939  19.836  0.00  0.00    -0.389 OA
ATOM     40  H   UNL     1      -3.668 -12.182  20.754  0.00  0.00    +0.210 HD
ENDBRANCH  17   3
TORSDOF 11
ENDMDL
MODEL 5
REMARK VINA RESULT:      -7.0     15.353     18.920
REMARK  Name = 11882569
REMARK  13 active torsions:
REMARK  status: ('A' for Active; 'I' for Inactive)
REMARK    1  A    between atoms: O_1  and  C_12
REMARK    2  A    between atoms: O_2  and  C_15
REMARK    3  A    between atoms: O_3  and  C_17
REMARK    4  A    between atoms: O_7  and  C_31
REMARK    5  A    between atoms: O_7  and  C_36
REMARK    6  A    between atoms: N_8  and  C_13
REMARK    7  A    between atoms: N_9  and  C_19
REMARK    8  A    between atoms: N_10  and  C_24
REMARK    9  A    between atoms: C_12  and  C_18
REMARK   10  A    between atoms: C_19  and  C_21
REMARK   11  A    between atoms: C_19  and  C_22
REMARK   12  A    between atoms: C_21  and  C_23
REMARK   13  A    between atoms: C_34  and  C_35
REMARK                            x       y       z     vdW  Elec       q    Type
REMARK                         _______ _______ _______ _____ _____    ______ ____
ROOT
ATOM     12  C   UNL     1      13.114   8.541   5.440  0.00  0.00    +0.146 C 
ATOM     13  C   UNL     1      14.399   7.256   3.664  0.00  0.00    +0.109 C 
ATOM     14  C   UNL     1      13.127   7.322   4.516  0.00  0.00    +0.069 C 
ATOM     15  C   UNL     1      15.666   7.333   4.525  0.00  0.00    +0.163 C 
ATOM     16  C   UNL     1      14.371   8.595   6.305  0.00  0.00    +0.078 C 
ATOM     17  C   UNL     1      15.649   8.539   5.467  0.00  0.00    +0.148 C 
ENDROOT
BRANCH  13   8
ATOM      5  O   UNL     1      13.483   6.982   0.964  0.00  0.00    -0.252 OA
ATOM      8  N   UNL     1      14.394   6.045   2.871  0.00  0.00    -0.294 N 
ATOM     10  N   UNL     1      14.045   4.704   1.046  0.00  0.00    -0.269 N 
ATOM     20  C   UNL     1      13.928   6.000   1.555  0.00  0.00    +0.304 C 
ATOM     37  H   UNL     1      14.672   5.176   3.316  0.00  0.00    +0.151 HD
ATOM     42  H   UNL     1      14.436   4.003   1.671  0.00  0.00    +0.156 HD
BRANCH  10  24
ATOM     24  C   UNL     1      13.686   4.241  -0.241  0.00  0.00    +0.035 A 
ATOM     27  C   UNL     1      14.414   4.663  -1.342  0.00  0.00    +0.023 A 
ATOM     28  C   UNL     1      12.612   3.376  -0.376  0.00  0.00    +0.023 A 
ATOM     32  C   UNL     1      14.059   4.208  -2.611  0.00  0.00    +0.005 A 
ATOM     33  C   UNL     1      12.257   2.920  -1.645  0.00  0.00    +0.005 A 
ATOM     34  C   UNL     1      12.981   3.336  -2.763  0.00  0.00    -0.050 A 
ATOM     35  C   UNL     1      12.600   2.849  -4.120  0.00  0.00    +0.044 C 
ENDBRANCH  10  24
ENDBRANCH  13   8
BRANCH  12  18
ATOM      4  O   UNL     1      11.516   9.537   6.909  0.00  0.00    -0.273 OA
ATOM      9  N   UNL     1      11.283   7.290   6.348  0.00  0.00    -0.301 N 
ATOM     18  C   UNL     1      11.889   8.534   6.307  0.00  0.00    +0.246 C 
ATOM     41  H   UNL     1      11.722   6.500   5.889  0.00  0.00    +0.150 HD
BRANCH   9  19
ATOM     19  C   UNL     1      10.100   7.013   7.130  0.00  0.00    +0.163 C 
BRANCH  19  22
ATOM      6  O   UNL     1       9.706   5.517   9.004  0.00  0.00    -0.274 OA
ATOM     11  N   UNL     1      11.782   5.523   8.022  0.00  0.00    -0.328 N 
ATOM     22  C   UNL     1      10.483   5.962   8.162  0.00  0.00    +0.231 C 
ATOM     43  H   UNL     1      12.413   5.898   7.320  0.00  0.00    +0.145 HD
ATOM     44  H   UNL     1      12.161   4.811   8.639  0.00  0.00    +0.145 HD
ENDBRANCH  19  22
BRANCH  19  21
ATOM     21  C   UNL     1       8.935   6.515   6.267  0.00  0.00    +0.067 C 
BRANCH  21  23
ATOM     23  C   UNL     1       9.342   6.285   4.830  0.00  0.00    -0.045 A 
ATOM     25  C   UNL     1      10.027   5.129   4.495  0.00  0.00    +0.007 A 
ATOM     26  C   UNL     1       9.021   7.235   3.875  0.00  0.00    +0.007 A 
ATOM     29  C   UNL     1      10.404   4.918   3.169  0.00  0.00    +0.046 A 
ATOM     30  C   UNL     1       9.398   7.025   2.549  0.00  0.00    +0.046 A 
ATOM     31  C   UNL     1      10.089   5.866   2.195  0.00  0.00    +0.120 A 
BRANCH  31   7
ATOM      7  O   UNL     1      10.455   5.660   0.901  0.00  0.00    -0.495 OA
ATOM     36  C   UNL     1      10.051   6.641  -0.053  0.00  0.00    +0.277 C 
ENDBRANCH  31   7
ENDBRANCH  21  23
ENDBRANCH  19  21
ENDBRANCH   9  19
ENDBRANCH  12  18
BRANCH  12   1
ATOM      1  O   UNL     1      13.021   9.741   4.680  0.00  0.00    -0.379 OA
ATOM     38  H   UNL     1      13.290   9.564   3.765  0.00  0.00    +0.211 HD
ENDBRANCH  12   1
BRANCH  15   2
ATOM      2  O   UNL     1      16.805   7.469   3.669  0.00  0.00    -0.387 OA
ATOM     39  H   UNL     1      17.007   6.588   3.311  0.00  0.00    +0.210 HD
ENDBRANCH  15   2
BRANCH  17   3
ATOM      3  O   UNL     1      16.772   8.444   6.343  0.00  0.00    -0.389 OA
ATOM     40  H   UNL     1      17.467   7.938   5.889  0.00  0.00    +0.210 HD
ENDBRANCH  17   3
TORSDOF 11
ENDMDL
MODEL 6
REMARK VINA RESULT:      -6.9     27.618     31.027
REMARK  Name = 11882569
REMARK  13 active torsions:
REMARK  status: ('A' for Active; 'I' for Inactive)
REMARK    1  A    between atoms: O_1  and  C_12
REMARK    2  A    between atoms: O_2  and  C_15
REMARK    3  A    between atoms: O_3  and  C_17
REMARK    4  A    between atoms: O_7  and  C_31
REMARK    5  A    between atoms: O_7  and  C_36
REMARK    6  A    between atoms: N_8  and  C_13
REMARK    7  A    between atoms: N_9  and  C_19
REMARK    8  A    between atoms: N_10  and  C_24
REMARK    9  A    between atoms: C_12  and  C_18
REMARK   10  A    between atoms: C_19  and  C_21
REMARK   11  A    between atoms: C_19  and  C_22
REMARK   12  A    between atoms: C_21  and  C_23
REMARK   13  A    between atoms: C_34  and  C_35
REMARK                            x       y       z     vdW  Elec       q    Type
REMARK                         _______ _______ _______ _____ _____    ______ ____
ROOT
ATOM     12  C   UNL     1      -5.155 -12.874  16.839  0.00  0.00    +0.146 C 
ATOM     13  C   UNL     1      -6.700 -11.777  18.532  0.00  0.00    +0.109 C 
ATOM     14  C   UNL     1      -6.305 -11.888  17.055  0.00  0.00    +0.069 C 
ATOM     15  C   UNL     1      -5.494 -11.451  19.422  0.00  0.00    +0.163 C 
ATOM     16  C   UNL     1      -3.954 -12.526  17.716  0.00  0.00    +0.078 C 
ATOM     17  C   UNL     1      -4.332 -12.421  19.194  0.00  0.00    +0.148 C 
ENDROOT
BRANCH  13   8
ATOM      5  O   UNL     1      -9.505 -12.250  18.865  0.00  0.00    -0.252 OA
ATOM      8  N   UNL     1      -7.733 -10.776  18.687  0.00  0.00    -0.294 N 
ATOM     10  N   UNL     1      -9.844  -9.930  18.971  0.00  0.00    -0.269 N 
ATOM     20  C   UNL     1      -9.084 -11.095  18.845  0.00  0.00    +0.304 C 
ATOM     37  H   UNL     1      -7.474  -9.798  18.601  0.00  0.00    +0.151 HD
ATOM     42  H   UNL     1      -9.337  -9.049  18.932  0.00  0.00    +0.156 HD
BRANCH  10  24
ATOM     24  C   UNL     1     -11.244  -9.820  19.146  0.00  0.00    +0.035 A 
ATOM     27  C   UNL     1     -12.048  -9.583  18.043  0.00  0.00    +0.023 A 
ATOM     28  C   UNL     1     -11.781  -9.952  20.416  0.00  0.00    +0.023 A 
ATOM     32  C   UNL     1     -13.428  -9.474  18.216  0.00  0.00    +0.005 A 
ATOM     33  C   UNL     1     -13.161  -9.843  20.588  0.00  0.00    +0.005 A 
ATOM     34  C   UNL     1     -13.984  -9.605  19.487  0.00  0.00    -0.050 A 
ATOM     35  C   UNL     1     -15.459  -9.488  19.673  0.00  0.00    +0.044 C 
ENDBRANCH  10  24
ENDBRANCH  13   8
BRANCH  12  18
ATOM      4  O   UNL     1      -5.540 -12.638  14.494  0.00  0.00    -0.273 OA
ATOM      9  N   UNL     1      -3.426 -13.277  15.229  0.00  0.00    -0.301 N 
ATOM     18  C   UNL     1      -4.749 -12.904  15.395  0.00  0.00    +0.246 C 
ATOM     41  H   UNL     1      -2.880 -13.566  16.033  0.00  0.00    +0.150 HD
BRANCH   9  19
ATOM     19  C   UNL     1      -2.797 -13.404  13.935  0.00  0.00    +0.163 C 
BRANCH  19  22
ATOM      6  O   UNL     1      -2.170 -15.641  14.649  0.00  0.00    -0.274 OA
ATOM     11  N   UNL     1      -0.797 -14.533  13.178  0.00  0.00    -0.328 N 
ATOM     22  C   UNL     1      -1.908 -14.638  13.989  0.00  0.00    +0.231 C 
ATOM     43  H   UNL     1      -0.594 -13.699  12.636  0.00  0.00    +0.145 HD
ATOM     44  H   UNL     1      -0.128 -15.293  13.110  0.00  0.00    +0.145 HD
ENDBRANCH  19  22
BRANCH  19  21
ATOM     21  C   UNL     1      -1.971 -12.166  13.564  0.00  0.00    +0.067 C 
BRANCH  21  23
ATOM     23  C   UNL     1      -2.528 -11.446  12.358  0.00  0.00    -0.045 A 
ATOM     25  C   UNL     1      -3.599 -11.997  11.673  0.00  0.00    +0.007 A 
ATOM     26  C   UNL     1      -1.956 -10.249  11.960  0.00  0.00    +0.007 A 
ATOM     29  C   UNL     1      -4.111 -11.332  10.558  0.00  0.00    +0.046 A 
ATOM     30  C   UNL     1      -2.468  -9.584  10.846  0.00  0.00    +0.046 A 
ATOM     31  C   UNL     1      -3.546 -10.125  10.145  0.00  0.00    +0.120 A 
BRANCH  31   7
ATOM      7  O   UNL     1      -4.046  -9.477   9.059  0.00  0.00    -0.495 OA
ATOM     36  C   UNL     1      -4.926 -10.213   8.210  0.00  0.00    +0.277 C 
ENDBRANCH  31   7
ENDBRANCH  21  23
ENDBRANCH  19  21
ENDBRANCH   9  19
ENDBRANCH  12  18
BRANCH  12   1
ATOM      1  O   UNL     1      -5.575 -14.202  17.131  0.00  0.00    -0.379 OA
ATOM     38  H   UNL     1      -6.512 -14.300  16.903  0.00  0.00    +0.211 HD
ENDBRANCH  12   1
BRANCH  15   2
ATOM      2  O   UNL     1      -5.884 -11.558  20.794  0.00  0.00    -0.387 OA
ATOM     39  H   UNL     1      -6.843 -11.407  20.837  0.00  0.00    +0.210 HD
ENDBRANCH  15   2
BRANCH  17   3
ATOM      3  O   UNL     1      -3.201 -11.951  19.928  0.00  0.00    -0.389 OA
ATOM     40  H   UNL     1      -3.361 -11.023  20.167  0.00  0.00    +0.210 HD
ENDBRANCH  17   3
TORSDOF 11
ENDMDL
MODEL 7
REMARK VINA RESULT:      -6.9      2.948      5.288
REMARK  Name = 11882569
REMARK  13 active torsions:
REMARK  status: ('A' for Active; 'I' for Inactive)
REMARK    1  A    between atoms: O_1  and  C_12
REMARK    2  A    between atoms: O_2  and  C_15
REMARK    3  A    between atoms: O_3  and  C_17
REMARK    4  A    between atoms: O_7  and  C_31
REMARK    5  A    between atoms: O_7  and  C_36
REMARK    6  A    between atoms: N_8  and  C_13
REMARK    7  A    between atoms: N_9  and  C_19
REMARK    8  A    between atoms: N_10  and  C_24
REMARK    9  A    between atoms: C_12  and  C_18
REMARK   10  A    between atoms: C_19  and  C_21
REMARK   11  A    between atoms: C_19  and  C_22
REMARK   12  A    between atoms: C_21  and  C_23
REMARK   13  A    between atoms: C_34  and  C_35
REMARK                            x       y       z     vdW  Elec       q    Type
REMARK                         _______ _______ _______ _____ _____    ______ ____
ROOT
ATOM     12  C   UNL     1      15.367   6.956  20.338  0.00  0.00    +0.146 C 
ATOM     13  C   UNL     1      17.734   7.034  21.259  0.00  0.00    +0.109 C 
ATOM     14  C   UNL     1      16.411   7.789  21.084  0.00  0.00    +0.069 C 
ATOM     15  C   UNL     1      18.272   6.508  19.922  0.00  0.00    +0.163 C 
ATOM     16  C   UNL     1      15.908   6.456  19.000  0.00  0.00    +0.078 C 
ATOM     17  C   UNL     1      17.223   5.692  19.162  0.00  0.00    +0.148 C 
ENDROOT
BRANCH  13   8
ATOM      5  O   UNL     1      19.805   6.230  23.067  0.00  0.00    -0.252 OA
ATOM      8  N   UNL     1      18.707   7.894  21.897  0.00  0.00    -0.294 N 
ATOM     10  N   UNL     1      20.480   8.473  23.228  0.00  0.00    -0.269 N 
ATOM     20  C   UNL     1      19.688   7.417  22.769  0.00  0.00    +0.304 C 
ATOM     37  H   UNL     1      18.625   8.897  21.763  0.00  0.00    +0.151 HD
ATOM     42  H   UNL     1      20.247   9.401  22.882  0.00  0.00    +0.156 HD
BRANCH  10  24
ATOM     24  C   UNL     1      21.575   8.412  24.122  0.00  0.00    +0.035 A 
ATOM     27  C   UNL     1      22.835   8.113  23.631  0.00  0.00    +0.023 A 
ATOM     28  C   UNL     1      21.364   8.651  25.470  0.00  0.00    +0.023 A 
ATOM     32  C   UNL     1      23.915   8.052  24.513  0.00  0.00    +0.005 A 
ATOM     33  C   UNL     1      22.443   8.590  26.352  0.00  0.00    +0.005 A 
ATOM     34  C   UNL     1      23.719   8.291  25.872  0.00  0.00    -0.050 A 
ATOM     35  C   UNL     1      24.872   8.226  26.816  0.00  0.00    +0.044 C 
ENDBRANCH  10  24
ENDBRANCH  13   8
BRANCH  12  18
ATOM      4  O   UNL     1      13.114   7.587  20.819  0.00  0.00    -0.273 OA
ATOM      9  N   UNL     1      14.228   8.637  19.065  0.00  0.00    -0.301 N 
ATOM     18  C   UNL     1      14.113   7.751  20.123  0.00  0.00    +0.246 C 
ATOM     41  H   UNL     1      15.065   8.632  18.493  0.00  0.00    +0.150 HD
BRANCH   9  19
ATOM     19  C   UNL     1      13.153   9.502  18.639  0.00  0.00    +0.163 C 
BRANCH  19  22
ATOM      6  O   UNL     1      12.916   8.356  16.509  0.00  0.00    -0.274 OA
ATOM     11  N   UNL     1      13.165  10.639  16.505  0.00  0.00    -0.328 N 
ATOM     22  C   UNL     1      13.079   9.409  17.122  0.00  0.00    +0.231 C 
ATOM     43  H   UNL     1      13.297  11.501  17.023  0.00  0.00    +0.145 HD
ATOM     44  H   UNL     1      13.114  10.720  15.494  0.00  0.00    +0.145 HD
ENDBRANCH  19  22
BRANCH  19  21
ATOM     21  C   UNL     1      13.368  10.957  19.074  0.00  0.00    +0.067 C 
BRANCH  21  23
ATOM     23  C   UNL     1      13.123  11.155  20.552  0.00  0.00    -0.045 A 
ATOM     25  C   UNL     1      11.859  10.917  21.069  0.00  0.00    +0.007 A 
ATOM     26  C   UNL     1      14.167  11.569  21.362  0.00  0.00    +0.007 A 
ATOM     29  C   UNL     1      11.633  11.102  22.433  0.00  0.00    +0.046 A 
ATOM     30  C   UNL     1      13.941  11.754  22.726  0.00  0.00    +0.046 A 
ATOM     31  C   UNL     1      12.675  11.519  23.262  0.00  0.00    +0.120 A 
BRANCH  31   7
ATOM      7  O   UNL     1      12.455  11.698  24.593  0.00  0.00    -0.495 OA
ATOM     36  C   UNL     1      11.113  11.555  25.055  0.00  0.00    +0.277 C 
ENDBRANCH  31   7
ENDBRANCH  21  23
ENDBRANCH  19  21
ENDBRANCH   9  19
ENDBRANCH  12  18
BRANCH  12   1
ATOM      1  O   UNL     1      14.965   5.839  21.124  0.00  0.00    -0.379 OA
ATOM     38  H   UNL     1      14.485   5.209  20.566  0.00  0.00    +0.211 HD
ENDBRANCH  12   1
BRANCH  15   2
ATOM      2  O   UNL     1      19.388   5.650  20.173  0.00  0.00    -0.387 OA
ATOM     39  H   UNL     1      20.193   6.191  20.107  0.00  0.00    +0.210 HD
ENDBRANCH  15   2
BRANCH  17   3
ATOM      3  O   UNL     1      17.742   5.387  17.866  0.00  0.00    -0.389 OA
ATOM     40  H   UNL     1      18.571   4.893  17.982  0.00  0.00    +0.210 HD
ENDBRANCH  17   3
TORSDOF 11
ENDMDL
MODEL 8
REMARK VINA RESULT:      -6.7      6.631     12.386
REMARK  Name = 11882569
REMARK  13 active torsions:
REMARK  status: ('A' for Active; 'I' for Inactive)
REMARK    1  A    between atoms: O_1  and  C_12
REMARK    2  A    between atoms: O_2  and  C_15
REMARK    3  A    between atoms: O_3  and  C_17
REMARK    4  A    between atoms: O_7  and  C_31
REMARK    5  A    between atoms: O_7  and  C_36
REMARK    6  A    between atoms: N_8  and  C_13
REMARK    7  A    between atoms: N_9  and  C_19
REMARK    8  A    between atoms: N_10  and  C_24
REMARK    9  A    between atoms: C_12  and  C_18
REMARK   10  A    between atoms: C_19  and  C_21
REMARK   11  A    between atoms: C_19  and  C_22
REMARK   12  A    between atoms: C_21  and  C_23
REMARK   13  A    between atoms: C_34  and  C_35
REMARK                            x       y       z     vdW  Elec       q    Type
REMARK                         _______ _______ _______ _____ _____    ______ ____
ROOT
ATOM     12  C   UNL     1      23.295   2.465  23.823  0.00  0.00    +0.146 C 
ATOM     13  C   UNL     1      22.835   3.382  21.498  0.00  0.00    +0.109 C 
ATOM     14  C   UNL     1      22.250   3.063  22.879  0.00  0.00    +0.069 C 
ATOM     15  C   UNL     1      23.533   2.164  20.879  0.00  0.00    +0.163 C 
ATOM     16  C   UNL     1      23.968   1.242  23.202  0.00  0.00    +0.078 C 
ATOM     17  C   UNL     1      24.564   1.549  21.828  0.00  0.00    +0.148 C 
ENDROOT
BRANCH  13   8
ATOM      5  O   UNL     1      20.710   5.168  22.203  0.00  0.00    -0.252 OA
ATOM      8  N   UNL     1      21.788   3.868  20.625  0.00  0.00    -0.294 N 
ATOM     10  N   UNL     1      19.920   5.037  19.996  0.00  0.00    -0.269 N 
ATOM     20  C   UNL     1      20.786   4.742  21.052  0.00  0.00    +0.304 C 
ATOM     37  H   UNL     1      21.738   3.499  19.681  0.00  0.00    +0.151 HD
ATOM     42  H   UNL     1      20.126   4.597  19.102  0.00  0.00    +0.156 HD
BRANCH  10  24
ATOM     24  C   UNL     1      18.782   5.877  20.015  0.00  0.00    +0.035 A 
ATOM     27  C   UNL     1      17.699   5.569  19.208  0.00  0.00    +0.023 A 
ATOM     28  C   UNL     1      18.774   6.990  20.839  0.00  0.00    +0.023 A 
ATOM     32  C   UNL     1      16.577   6.398  19.226  0.00  0.00    +0.005 A 
ATOM     33  C   UNL     1      17.652   7.819  20.857  0.00  0.00    +0.005 A 
ATOM     34  C   UNL     1      16.553   7.522  20.050  0.00  0.00    -0.050 A 
ATOM     35  C   UNL     1      15.354   8.408  20.070  0.00  0.00    +0.044 C 
ENDBRANCH  10  24
ENDBRANCH  13   8
BRANCH  12  18
ATOM      4  O   UNL     1      22.379   2.952  25.974  0.00  0.00    -0.273 OA
ATOM      9  N   UNL     1      22.503   0.734  25.278  0.00  0.00    -0.301 N 
ATOM     18  C   UNL     1      22.672   2.101  25.138  0.00  0.00    +0.246 C 
ATOM     41  H   UNL     1      22.862   0.107  24.567  0.00  0.00    +0.150 HD
BRANCH   9  19
ATOM     19  C   UNL     1      21.944   0.124  26.462  0.00  0.00    +0.163 C 
BRANCH  19  22
ATOM      6  O   UNL     1      24.065  -0.043  27.636  0.00  0.00    -0.274 OA
ATOM     11  N   UNL     1      22.386   1.211  28.575  0.00  0.00    -0.328 N 
ATOM     22  C   UNL     1      22.915   0.390  27.603  0.00  0.00    +0.231 C 
ATOM     43  H   UNL     1      21.435   1.564  28.533  0.00  0.00    +0.145 HD
ATOM     44  H   UNL     1      22.935   1.481  29.386  0.00  0.00    +0.145 HD
ENDBRANCH  19  22
BRANCH  19  21
ATOM     21  C   UNL     1      21.721  -1.384  26.291  0.00  0.00    +0.067 C 
BRANCH  21  23
ATOM     23  C   UNL     1      20.482  -1.692  25.482  0.00  0.00    -0.045 A 
ATOM     25  C   UNL     1      20.332  -2.951  24.923  0.00  0.00    +0.007 A 
ATOM     26  C   UNL     1      19.520  -0.710  25.317  0.00  0.00    +0.007 A 
ATOM     29  C   UNL     1      19.189  -3.234  24.175  0.00  0.00    +0.046 A 
ATOM     30  C   UNL     1      18.376  -0.993  24.569  0.00  0.00    +0.046 A 
ATOM     31  C   UNL     1      18.211  -2.256  23.999  0.00  0.00    +0.120 A 
BRANCH  31   7
ATOM      7  O   UNL     1      17.095  -2.532  23.271  0.00  0.00    -0.495 OA
ATOM     36  C   UNL     1      15.914  -2.871  23.996  0.00  0.00    +0.277 C 
ENDBRANCH  31   7
ENDBRANCH  21  23
ENDBRANCH  19  21
ENDBRANCH   9  19
ENDBRANCH  12  18
BRANCH  12   1
ATOM      1  O   UNL     1      24.290   3.432  24.141  0.00  0.00    -0.379 OA
ATOM     38  H   UNL     1      24.985   3.015  24.673  0.00  0.00    +0.211 HD
ENDBRANCH  12   1
BRANCH  15   2
ATOM      2  O   UNL     1      24.224   2.574  19.696  0.00  0.00    -0.387 OA
ATOM     39  H   UNL     1      24.025   3.514  19.552  0.00  0.00    +0.210 HD
ENDBRANCH  15   2
BRANCH  17   3
ATOM      3  O   UNL     1      25.040   0.333  21.250  0.00  0.00    -0.389 OA
ATOM     40  H   UNL     1      24.926  -0.377  21.904  0.00  0.00    +0.210 HD
ENDBRANCH  17   3
TORSDOF 11
ENDMDL
MODEL 9
REMARK VINA RESULT:      -6.7      3.183      5.213
REMARK  Name = 11882569
REMARK  13 active torsions:
REMARK  status: ('A' for Active; 'I' for Inactive)
REMARK    1  A    between atoms: O_1  and  C_12
REMARK    2  A    between atoms: O_2  and  C_15
REMARK    3  A    between atoms: O_3  and  C_17
REMARK    4  A    between atoms: O_7  and  C_31
REMARK    5  A    between atoms: O_7  and  C_36
REMARK    6  A    between atoms: N_8  and  C_13
REMARK    7  A    between atoms: N_9  and  C_19
REMARK    8  A    between atoms: N_10  and  C_24
REMARK    9  A    between atoms: C_12  and  C_18
REMARK   10  A    between atoms: C_19  and  C_21
REMARK   11  A    between atoms: C_19  and  C_22
REMARK   12  A    between atoms: C_21  and  C_23
REMARK   13  A    between atoms: C_34  and  C_35
REMARK                            x       y       z     vdW  Elec       q    Type
REMARK                         _______ _______ _______ _____ _____    ______ ____
ROOT
ATOM     12  C   UNL     1      15.500   7.078  20.385  0.00  0.00    +0.146 C 
ATOM     13  C   UNL     1      17.900   7.020  21.218  0.00  0.00    +0.109 C 
ATOM     14  C   UNL     1      16.623   7.855  21.074  0.00  0.00    +0.069 C 
ATOM     15  C   UNL     1      18.353   6.434  19.875  0.00  0.00    +0.163 C 
ATOM     16  C   UNL     1      15.958   6.518  19.040  0.00  0.00    +0.078 C 
ATOM     17  C   UNL     1      17.227   5.674  19.170  0.00  0.00    +0.148 C 
ENDROOT
BRANCH  13   8
ATOM      5  O   UNL     1      19.880   6.154  23.098  0.00  0.00    -0.252 OA
ATOM      8  N   UNL     1      18.949   7.827  21.802  0.00  0.00    -0.294 N 
ATOM     10  N   UNL     1      20.767   8.328  23.105  0.00  0.00    -0.269 N 
ATOM     20  C   UNL     1      19.879   7.323  22.715  0.00  0.00    +0.304 C 
ATOM     37  H   UNL     1      18.965   8.821  21.595  0.00  0.00    +0.151 HD
ATOM     42  H   UNL     1      20.625   9.247  22.691  0.00  0.00    +0.156 HD
BRANCH  10  24
ATOM     24  C   UNL     1      21.849   8.228  24.011  0.00  0.00    +0.035 A 
ATOM     27  C   UNL     1      23.094   7.844  23.541  0.00  0.00    +0.023 A 
ATOM     28  C   UNL     1      21.640   8.514  25.350  0.00  0.00    +0.023 A 
ATOM     32  C   UNL     1      24.160   7.744  24.434  0.00  0.00    +0.005 A 
ATOM     33  C   UNL     1      22.707   8.414  26.244  0.00  0.00    +0.005 A 
ATOM     34  C   UNL     1      23.967   8.029  25.785  0.00  0.00    -0.050 A 
ATOM     35  C   UNL     1      25.106   7.922  26.742  0.00  0.00    +0.044 C 
ENDBRANCH  10  24
ENDBRANCH  13   8
BRANCH  12  18
ATOM      4  O   UNL     1      13.565   8.258  21.138  0.00  0.00    -0.273 OA
ATOM      9  N   UNL     1      14.112   8.319  18.876  0.00  0.00    -0.301 N 
ATOM     18  C   UNL     1      14.293   7.949  20.198  0.00  0.00    +0.246 C 
ATOM     41  H   UNL     1      14.717   7.935  18.159  0.00  0.00    +0.150 HD
BRANCH   9  19
ATOM     19  C   UNL     1      13.009   9.138  18.428  0.00  0.00    +0.163 C 
BRANCH  19  22
ATOM      6  O   UNL     1      11.678   7.390  17.389  0.00  0.00    -0.274 OA
ATOM     11  N   UNL     1      10.881   8.390  19.297  0.00  0.00    -0.328 N 
ATOM     22  C   UNL     1      11.802   8.222  18.285  0.00  0.00    +0.231 C 
ATOM     43  H   UNL     1      10.997   9.079  20.033  0.00  0.00    +0.145 HD
ATOM     44  H   UNL     1      10.035   7.830  19.329  0.00  0.00    +0.145 HD
ENDBRANCH  19  22
BRANCH  19  21
ATOM     21  C   UNL     1      13.308   9.841  17.099  0.00  0.00    +0.067 C 
BRANCH  21  23
ATOM     23  C   UNL     1      14.110  11.108  17.288  0.00  0.00    -0.045 A 
ATOM     25  C   UNL     1      13.752  11.994  18.292  0.00  0.00    +0.007 A 
ATOM     26  C   UNL     1      15.186  11.359  16.455  0.00  0.00    +0.007 A 
ATOM     29  C   UNL     1      14.492  13.164  18.465  0.00  0.00    +0.046 A 
ATOM     30  C   UNL     1      15.926  12.529  16.628  0.00  0.00    +0.046 A 
ATOM     31  C   UNL     1      15.579  13.431  17.633  0.00  0.00    +0.120 A 
BRANCH  31   7
ATOM      7  O   UNL     1      16.301  14.572  17.803  0.00  0.00    -0.495 OA
ATOM     36  C   UNL     1      17.331  14.549  18.791  0.00  0.00    +0.277 C 
ENDBRANCH  31   7
ENDBRANCH  21  23
ENDBRANCH  19  21
ENDBRANCH   9  19
ENDBRANCH  12  18
BRANCH  12   1
ATOM      1  O   UNL     1      15.058   6.006  21.209  0.00  0.00    -0.379 OA
ATOM     38  H   UNL     1      14.498   6.355  21.919  0.00  0.00    +0.211 HD
ENDBRANCH  12   1
BRANCH  15   2
ATOM      2  O   UNL     1      19.421   5.510  20.104  0.00  0.00    -0.387 OA
ATOM     39  H   UNL     1      19.977   5.504  19.307  0.00  0.00    +0.210 HD
ENDBRANCH  15   2
BRANCH  17   3
ATOM      3  O   UNL     1      17.675   5.311  17.864  0.00  0.00    -0.389 OA
ATOM     40  H   UNL     1      17.385   4.400  17.688  0.00  0.00    +0.210 HD
ENDBRANCH  17   3
TORSDOF 11
ENDMDL
MODEL 10
REMARK VINA RESULT:      -6.7     15.177     18.727
REMARK  Name = 11882569
REMARK  13 active torsions:
REMARK  status: ('A' for Active; 'I' for Inactive)
REMARK    1  A    between atoms: O_1  and  C_12
REMARK    2  A    between atoms: O_2  and  C_15
REMARK    3  A    between atoms: O_3  and  C_17
REMARK    4  A    between atoms: O_7  and  C_31
REMARK    5  A    between atoms: O_7  and  C_36
REMARK    6  A    between atoms: N_8  and  C_13
REMARK    7  A    between atoms: N_9  and  C_19
REMARK    8  A    between atoms: N_10  and  C_24
REMARK    9  A    between atoms: C_12  and  C_18
REMARK   10  A    between atoms: C_19  and  C_21
REMARK   11  A    between atoms: C_19  and  C_22
REMARK   12  A    between atoms: C_21  and  C_23
REMARK   13  A    between atoms: C_34  and  C_35
REMARK                            x       y       z     vdW  Elec       q    Type
REMARK                         _______ _______ _______ _____ _____    ______ ____
ROOT
ATOM     12  C   UNL     1      12.975   8.264   5.552  0.00  0.00    +0.146 C 
ATOM     13  C   UNL     1      14.306   7.134   3.705  0.00  0.00    +0.109 C 
ATOM     14  C   UNL     1      13.051   7.081   4.584  0.00  0.00    +0.069 C 
ATOM     15  C   UNL     1      15.584   7.268   4.543  0.00  0.00    +0.163 C 
ATOM     16  C   UNL     1      14.245   8.373   6.394  0.00  0.00    +0.078 C 
ATOM     17  C   UNL     1      15.505   8.436   5.529  0.00  0.00    +0.148 C 
ENDROOT
BRANCH  13   8
ATOM      5  O   UNL     1      13.321   6.883   1.028  0.00  0.00    -0.252 OA
ATOM      8  N   UNL     1      14.366   5.955   2.869  0.00  0.00    -0.294 N 
ATOM     10  N   UNL     1      14.059   4.654   1.007  0.00  0.00    -0.269 N 
ATOM     20  C   UNL     1      13.860   5.918   1.567  0.00  0.00    +0.304 C 
ATOM     37  H   UNL     1      14.726   5.095   3.272  0.00  0.00    +0.151 HD
ATOM     42  H   UNL     1      14.523   3.964   1.593  0.00  0.00    +0.156 HD
BRANCH  10  24
ATOM     24  C   UNL     1      13.691   4.209  -0.284  0.00  0.00    +0.035 A 
ATOM     27  C   UNL     1      12.637   3.320  -0.420  0.00  0.00    +0.023 A 
ATOM     28  C   UNL     1      14.392   4.670  -1.386  0.00  0.00    +0.023 A 
ATOM     32  C   UNL     1      12.275   2.880  -1.694  0.00  0.00    +0.005 A 
ATOM     33  C   UNL     1      14.030   4.231  -2.660  0.00  0.00    +0.005 A 
ATOM     34  C   UNL     1      12.970   3.336  -2.813  0.00  0.00    -0.050 A 
ATOM     35  C   UNL     1      12.584   2.866  -4.175  0.00  0.00    +0.044 C 
ENDBRANCH  10  24
ENDBRANCH  13   8
BRANCH  12  18
ATOM      4  O   UNL     1      11.421   9.055   7.183  0.00  0.00    -0.273 OA
ATOM      9  N   UNL     1      11.163   6.904   6.331  0.00  0.00    -0.301 N 
ATOM     18  C   UNL     1      11.774   8.141   6.442  0.00  0.00    +0.246 C 
ATOM     41  H   UNL     1      11.586   6.183   5.758  0.00  0.00    +0.150 HD
BRANCH   9  19
ATOM     19  C   UNL     1       9.999   6.525   7.099  0.00  0.00    +0.163 C 
BRANCH  19  22
ATOM      6  O   UNL     1      10.791   5.391   9.098  0.00  0.00    -0.274 OA
ATOM     11  N   UNL     1      10.203   4.123   7.275  0.00  0.00    -0.328 N 
ATOM     22  C   UNL     1      10.391   5.317   7.938  0.00  0.00    +0.231 C 
ATOM     43  H   UNL     1       9.869   4.076   6.318  0.00  0.00    +0.145 HD
ATOM     44  H   UNL     1      10.411   3.238   7.727  0.00  0.00    +0.145 HD
ENDBRANCH  19  22
BRANCH  19  21
ATOM     21  C   UNL     1       8.797   6.191   6.209  0.00  0.00    +0.067 C 
BRANCH  21  23
ATOM     23  C   UNL     1       8.484   7.297   5.227  0.00  0.00    -0.045 A 
ATOM     25  C   UNL     1       8.722   7.093   3.877  0.00  0.00    +0.007 A 
ATOM     26  C   UNL     1       7.967   8.492   5.696  0.00  0.00    +0.007 A 
ATOM     29  C   UNL     1       8.435   8.114   2.972  0.00  0.00    +0.046 A 
ATOM     30  C   UNL     1       7.680   9.514   4.791  0.00  0.00    +0.046 A 
ATOM     31  C   UNL     1       7.913   9.325   3.429  0.00  0.00    +0.120 A 
BRANCH  31   7
ATOM      7  O   UNL     1       7.632  10.321   2.546  0.00  0.00    -0.495 OA
ATOM     36  C   UNL     1       8.482  11.466   2.565  0.00  0.00    +0.277 C 
ENDBRANCH  31   7
ENDBRANCH  21  23
ENDBRANCH  19  21
ENDBRANCH   9  19
ENDBRANCH  12  18
BRANCH  12   1
ATOM      1  O   UNL     1      12.784   9.480   4.839  0.00  0.00    -0.379 OA
ATOM     38  H   UNL     1      12.710  10.214   5.468  0.00  0.00    +0.211 HD
ENDBRANCH  12   1
BRANCH  15   2
ATOM      2  O   UNL     1      16.691   7.512   3.671  0.00  0.00    -0.387 OA
ATOM     39  H   UNL     1      16.645   8.444   3.396  0.00  0.00    +0.210 HD
ENDBRANCH  15   2
BRANCH  17   3
ATOM      3  O   UNL     1      16.651   8.387   6.380  0.00  0.00    -0.389 OA
ATOM     40  H   UNL     1      17.320   8.994   6.019  0.00  0.00    +0.210 HD
ENDBRANCH  17   3
TORSDOF 11
ENDMDL
