MODEL 1
REMARK VINA RESULT:      -6.3      0.000      0.000
REMARK  Name = 40586269
REMARK  7 active torsions:
REMARK  status: ('A' for Active; 'I' for Inactive)
REMARK    1  A    between atoms: O_3  and  C_10
REMARK    2  A    between atoms: O_3  and  C_20
REMARK    3  A    between atoms: N_5  and  C_9
REMARK    4  A    between atoms: N_5  and  C_14
REMARK    5  A    between atoms: N_6  and  C_21
REMARK    6  A    between atoms: C_12  and  C_14
REMARK    7  A    between atoms: C_21  and  C_22
REMARK                            x       y       z     vdW  Elec       q    Type
REMARK                         _______ _______ _______ _____ _____    ______ ____
ROOT
ATOM      1  O   UNL     1      13.364   7.926  21.883  0.00  0.00    -0.369 OA
ATOM      2  O   UNL     1      11.488   7.805  19.460  0.00  0.00    -0.369 OA
ATOM      7  C   UNL     1      12.834   8.302  19.602  0.00  0.00    +0.170 C 
ATOM      8  C   UNL     1      12.924   8.946  20.971  0.00  0.00    +0.191 C 
ATOM      9  C   UNL     1      13.808   7.149  19.681  0.00  0.00    +0.111 C 
ATOM     10  C   UNL     1      11.493   9.353  21.233  0.00  0.00    +0.235 C 
ATOM     11  C   UNL     1      13.713   6.746  21.143  0.00  0.00    +0.181 C 
ATOM     13  C   UNL     1      10.718   8.221  20.598  0.00  0.00    +0.207 C 
ENDROOT
BRANCH   9   5
ATOM      5  N   UNL     1      15.145   7.568  19.338  0.00  0.00    -0.309 NA
ATOM     23  H   UNL     1      15.441   8.329  19.947  0.00  0.00    +0.122 HD
BRANCH   5  14
ATOM     14  C   UNL     1      16.084   6.492  19.442  0.00  0.00    +0.084 C 
BRANCH  14  12
ATOM     12  C   UNL     1      17.437   6.995  19.941  0.00  0.00    +0.003 C 
ATOM     15  C   UNL     1      17.278   7.757  21.263  0.00  0.00    +0.005 C 
ATOM     16  C   UNL     1      18.425   5.829  20.097  0.00  0.00    +0.005 C 
ATOM     17  C   UNL     1      18.625   8.224  21.810  0.00  0.00    +0.000 C 
ATOM     18  C   UNL     1      19.770   6.301  20.646  0.00  0.00    +0.000 C 
ATOM     19  C   UNL     1      19.607   7.065  21.956  0.00  0.00    +0.000 C 
ENDBRANCH  14  12
ENDBRANCH   5  14
ENDBRANCH   9   5
BRANCH  10   3
ATOM      3  O   UNL     1      11.192   9.499  22.603  0.00  0.00    -0.442 OA
BRANCH   3  20
ATOM      4  O   UNL     1      11.014  11.777  22.372  0.00  0.00    -0.226 OA
ATOM      6  N   UNL     1      11.185  10.788  24.464  0.00  0.00    -0.281 N 
ATOM     20  C   UNL     1      11.120  10.786  23.087  0.00  0.00    +0.401 C 
ATOM     24  H   UNL     1      11.280   9.897  24.940  0.00  0.00    +0.152 HD
BRANCH   6  21
ATOM     21  C   UNL     1      11.135  11.989  25.266  0.00  0.00    +0.104 C 
ATOM     22  C   UNL     1      12.516  12.571  25.481  0.00  0.00    +0.024 C 
ENDBRANCH   6  21
ENDBRANCH   3  20
ENDBRANCH  10   3
TORSDOF 6
ENDMDL
MODEL 2
REMARK VINA RESULT:      -5.9      3.389      7.222
REMARK  Name = 40586269
REMARK  7 active torsions:
REMARK  status: ('A' for Active; 'I' for Inactive)
REMARK    1  A    between atoms: O_3  and  C_10
REMARK    2  A    between atoms: O_3  and  C_20
REMARK    3  A    between atoms: N_5  and  C_9
REMARK    4  A    between atoms: N_5  and  C_14
REMARK    5  A    between atoms: N_6  and  C_21
REMARK    6  A    between atoms: C_12  and  C_14
REMARK    7  A    between atoms: C_21  and  C_22
REMARK                            x       y       z     vdW  Elec       q    Type
REMARK                         _______ _______ _______ _____ _____    ______ ____
ROOT
ATOM      1  O   UNL     1      11.202   8.985  19.838  0.00  0.00    -0.369 OA
ATOM      2  O   UNL     1      13.553   7.065  20.277  0.00  0.00    -0.369 OA
ATOM      7  C   UNL     1      13.260   8.361  20.839  0.00  0.00    +0.170 C 
ATOM      8  C   UNL     1      12.623   9.184  19.738  0.00  0.00    +0.191 C 
ATOM      9  C   UNL     1      12.169   8.241  21.878  0.00  0.00    +0.111 C 
ATOM     10  C   UNL     1      13.189   8.552  18.489  0.00  0.00    +0.235 C 
ATOM     11  C   UNL     1      10.911   8.233  21.026  0.00  0.00    +0.181 C 
ATOM     13  C   UNL     1      13.256   7.092  18.873  0.00  0.00    +0.207 C 
ENDROOT
BRANCH   9   5
ATOM      5  N   UNL     1      12.183   9.364  22.783  0.00  0.00    -0.309 NA
ATOM     23  H   UNL     1      12.491  10.204  22.295  0.00  0.00    +0.122 HD
BRANCH   5  14
ATOM     14  C   UNL     1      10.893   9.604  23.356  0.00  0.00    +0.084 C 
BRANCH  14  12
ATOM     12  C   UNL     1      10.566  11.096  23.364  0.00  0.00    +0.003 C 
ATOM     15  C   UNL     1      10.973  11.731  24.701  0.00  0.00    +0.005 C 
ATOM     16  C   UNL     1      11.251  11.807  22.189  0.00  0.00    +0.005 C 
ATOM     17  C   UNL     1      10.706  13.235  24.714  0.00  0.00    +0.000 C 
ATOM     18  C   UNL     1      10.982  13.311  22.207  0.00  0.00    +0.000 C 
ATOM     19  C   UNL     1      11.380  13.938  23.540  0.00  0.00    +0.000 C 
ENDBRANCH  14  12
ENDBRANCH   5  14
ENDBRANCH   9   5
BRANCH  10   3
ATOM      3  O   UNL     1      12.398   8.764  17.342  0.00  0.00    -0.442 OA
BRANCH   3  20
ATOM      4  O   UNL     1      12.745   8.895  15.075  0.00  0.00    -0.226 OA
ATOM      6  N   UNL     1      14.065  10.084  16.567  0.00  0.00    -0.281 N 
ATOM     20  C   UNL     1      13.048   9.222  16.218  0.00  0.00    +0.401 C 
ATOM     24  H   UNL     1      14.219  10.269  17.553  0.00  0.00    +0.152 HD
BRANCH   6  21
ATOM     21  C   UNL     1      14.931  10.732  15.607  0.00  0.00    +0.104 C 
ATOM     22  C   UNL     1      14.484  12.151  15.326  0.00  0.00    +0.024 C 
ENDBRANCH   6  21
ENDBRANCH   3  20
ENDBRANCH  10   3
TORSDOF 6
ENDMDL
MODEL 3
REMARK VINA RESULT:      -5.8      3.631      5.185
REMARK  Name = 40586269
REMARK  7 active torsions:
REMARK  status: ('A' for Active; 'I' for Inactive)
REMARK    1  A    between atoms: O_3  and  C_10
REMARK    2  A    between atoms: O_3  and  C_20
REMARK    3  A    between atoms: N_5  and  C_9
REMARK    4  A    between atoms: N_5  and  C_14
REMARK    5  A    between atoms: N_6  and  C_21
REMARK    6  A    between atoms: C_12  and  C_14
REMARK    7  A    between atoms: C_21  and  C_22
REMARK                            x       y       z     vdW  Elec       q    Type
REMARK                         _______ _______ _______ _____ _____    ______ ____
ROOT
ATOM      1  O   UNL     1      14.956   9.079  19.244  0.00  0.00    -0.369 OA
ATOM      2  O   UNL     1      13.235   6.630  19.910  0.00  0.00    -0.369 OA
ATOM      7  C   UNL     1      14.579   6.743  19.400  0.00  0.00    +0.170 C 
ATOM      8  C   UNL     1      14.595   7.930  18.458  0.00  0.00    +0.191 C 
ATOM      9  C   UNL     1      15.523   7.148  20.508  0.00  0.00    +0.111 C 
ATOM     10  C   UNL     1      13.159   7.998  17.996  0.00  0.00    +0.235 C 
ATOM     11  C   UNL     1      15.328   8.653  20.564  0.00  0.00    +0.181 C 
ATOM     13  C   UNL     1      12.404   7.589  19.239  0.00  0.00    +0.207 C 
ENDROOT
BRANCH   9   5
ATOM      5  N   UNL     1      16.887   6.807  20.186  0.00  0.00    -0.309 NA
ATOM     23  H   UNL     1      17.064   6.968  19.195  0.00  0.00    +0.122 HD
BRANCH   5  14
ATOM     14  C   UNL     1      17.823   7.566  20.958  0.00  0.00    +0.084 C 
BRANCH  14  12
ATOM     12  C   UNL     1      19.084   6.752  21.244  0.00  0.00    +0.003 C 
ATOM     15  C   UNL     1      19.232   5.610  20.230  0.00  0.00    +0.005 C 
ATOM     16  C   UNL     1      20.326   7.655  21.236  0.00  0.00    +0.005 C 
ATOM     17  C   UNL     1      20.514   4.813  20.462  0.00  0.00    +0.000 C 
ATOM     18  C   UNL     1      21.606   6.854  21.467  0.00  0.00    +0.000 C 
ATOM     19  C   UNL     1      21.745   5.714  20.462  0.00  0.00    +0.000 C 
ENDBRANCH  14  12
ENDBRANCH   5  14
ENDBRANCH   9   5
BRANCH  10   3
ATOM      3  O   UNL     1      12.775   9.274  17.537  0.00  0.00    -0.442 OA
BRANCH   3  20
ATOM      4  O   UNL     1      12.804   8.777  15.295  0.00  0.00    -0.226 OA
ATOM      6  N   UNL     1      13.560  10.824  16.085  0.00  0.00    -0.281 N 
ATOM     20  C   UNL     1      13.028   9.558  16.214  0.00  0.00    +0.401 C 
ATOM     24  H   UNL     1      13.704  11.370  16.928  0.00  0.00    +0.152 HD
BRANCH   6  21
ATOM     21  C   UNL     1      13.932  11.412  14.818  0.00  0.00    +0.104 C 
ATOM     22  C   UNL     1      15.392  11.166  14.500  0.00  0.00    +0.024 C 
ENDBRANCH   6  21
ENDBRANCH   3  20
ENDBRANCH  10   3
TORSDOF 6
ENDMDL
MODEL 4
REMARK VINA RESULT:      -5.7     26.426     28.450
REMARK  Name = 40586269
REMARK  7 active torsions:
REMARK  status: ('A' for Active; 'I' for Inactive)
REMARK    1  A    between atoms: O_3  and  C_10
REMARK    2  A    between atoms: O_3  and  C_20
REMARK    3  A    between atoms: N_5  and  C_9
REMARK    4  A    between atoms: N_5  and  C_14
REMARK    5  A    between atoms: N_6  and  C_21
REMARK    6  A    between atoms: C_12  and  C_14
REMARK    7  A    between atoms: C_21  and  C_22
REMARK                            x       y       z     vdW  Elec       q    Type
REMARK                         _______ _______ _______ _____ _____    ______ ____
ROOT
ATOM      1  O   UNL     1      -2.819 -12.477  12.472  0.00  0.00    -0.369 OA
ATOM      2  O   UNL     1      -1.321  -9.860  13.033  0.00  0.00    -0.369 OA
ATOM      7  C   UNL     1      -2.387 -10.522  13.744  0.00  0.00    +0.170 C 
ATOM      8  C   UNL     1      -3.295 -11.140  12.700  0.00  0.00    +0.191 C 
ATOM      9  C   UNL     1      -1.845 -11.713  14.501  0.00  0.00    +0.111 C 
ATOM     10  C   UNL     1      -3.065 -10.251  11.502  0.00  0.00    +0.235 C 
ATOM     11  C   UNL     1      -1.787 -12.781  13.423  0.00  0.00    +0.181 C 
ATOM     13  C   UNL     1      -1.595  -9.923  11.625  0.00  0.00    +0.207 C 
ENDROOT
BRANCH   9   5
ATOM      5  N   UNL     1      -2.728 -12.097  15.574  0.00  0.00    -0.309 NA
ATOM     23  H   UNL     1      -2.297 -12.831  16.137  0.00  0.00    +0.122 HD
BRANCH   5  14
ATOM     14  C   UNL     1      -3.052 -10.989  16.421  0.00  0.00    +0.084 C 
BRANCH  14  12
ATOM     12  C   UNL     1      -4.370 -11.229  17.155  0.00  0.00    +0.003 C 
ATOM     15  C   UNL     1      -4.117 -11.515  18.642  0.00  0.00    +0.005 C 
ATOM     16  C   UNL     1      -5.314 -10.031  16.981  0.00  0.00    +0.005 C 
ATOM     17  C   UNL     1      -5.424 -11.706  19.409  0.00  0.00    +0.000 C 
ATOM     18  C   UNL     1      -6.619 -10.226  17.751  0.00  0.00    +0.000 C 
ATOM     19  C   UNL     1      -6.363 -10.518  19.227  0.00  0.00    +0.000 C 
ENDBRANCH  14  12
ENDBRANCH   5  14
ENDBRANCH   9   5
BRANCH  10   3
ATOM      3  O   UNL     1      -3.368 -10.873  10.273  0.00  0.00    -0.442 OA
BRANCH   3  20
ATOM      4  O   UNL     1      -3.894  -8.934   9.160  0.00  0.00    -0.226 OA
ATOM      6  N   UNL     1      -5.027 -10.913   8.733  0.00  0.00    -0.281 N 
ATOM     20  C   UNL     1      -4.085 -10.128   9.363  0.00  0.00    +0.401 C 
ATOM     24  H   UNL     1      -5.090 -11.891   8.997  0.00  0.00    +0.152 HD
BRANCH   6  21
ATOM     21  C   UNL     1      -5.936 -10.419   7.724  0.00  0.00    +0.104 C 
ATOM     22  C   UNL     1      -5.456 -10.762   6.329  0.00  0.00    +0.024 C 
ENDBRANCH   6  21
ENDBRANCH   3  20
ENDBRANCH  10   3
TORSDOF 6
ENDMDL
MODEL 5
REMARK VINA RESULT:      -5.7     28.104     29.653
REMARK  Name = 40586269
REMARK  7 active torsions:
REMARK  status: ('A' for Active; 'I' for Inactive)
REMARK    1  A    between atoms: O_3  and  C_10
REMARK    2  A    between atoms: O_3  and  C_20
REMARK    3  A    between atoms: N_5  and  C_9
REMARK    4  A    between atoms: N_5  and  C_14
REMARK    5  A    between atoms: N_6  and  C_21
REMARK    6  A    between atoms: C_12  and  C_14
REMARK    7  A    between atoms: C_21  and  C_22
REMARK                            x       y       z     vdW  Elec       q    Type
REMARK                         _______ _______ _______ _____ _____    ______ ____
ROOT
ATOM      1  O   UNL     1     -11.059  -7.675  17.342  0.00  0.00    -0.369 OA
ATOM      2  O   UNL     1     -10.455  -9.142  14.718  0.00  0.00    -0.369 OA
ATOM      7  C   UNL     1      -9.584  -8.556  15.707  0.00  0.00    +0.170 C 
ATOM      8  C   UNL     1     -10.267  -7.297  16.204  0.00  0.00    +0.191 C 
ATOM      9  C   UNL     1      -9.521  -9.439  16.932  0.00  0.00    +0.111 C 
ATOM     10  C   UNL     1     -11.128  -6.908  15.027  0.00  0.00    +0.235 C 
ATOM     11  C   UNL     1     -10.780  -9.042  17.683  0.00  0.00    +0.181 C 
ATOM     13  C   UNL     1     -11.558  -8.253  14.487  0.00  0.00    +0.207 C 
ENDROOT
BRANCH   9   5
ATOM      5  N   UNL     1      -8.337  -9.169  17.711  0.00  0.00    -0.309 NA
ATOM     23  H   UNL     1      -8.298  -9.793  18.517  0.00  0.00    +0.122 HD
BRANCH   5  14
ATOM     14  C   UNL     1      -7.142  -9.327  16.939  0.00  0.00    +0.084 C 
BRANCH  14  12
ATOM     12  C   UNL     1      -6.323 -10.516  17.436  0.00  0.00    +0.003 C 
ATOM     15  C   UNL     1      -4.887 -10.448  16.897  0.00  0.00    +0.005 C 
ATOM     16  C   UNL     1      -6.329 -10.575  18.970  0.00  0.00    +0.005 C 
ATOM     17  C   UNL     1      -4.033 -11.599  17.424  0.00  0.00    +0.000 C 
ATOM     18  C   UNL     1      -5.471 -11.726  19.493  0.00  0.00    +0.000 C 
ATOM     19  C   UNL     1      -4.048 -11.660  18.948  0.00  0.00    +0.000 C 
ENDBRANCH  14  12
ENDBRANCH   5  14
ENDBRANCH   9   5
BRANCH  10   3
ATOM      3  O   UNL     1     -12.230  -6.101  15.377  0.00  0.00    -0.442 OA
BRANCH   3  20
ATOM      4  O   UNL     1     -14.069  -5.559  14.112  0.00  0.00    -0.226 OA
ATOM      6  N   UNL     1     -11.978  -4.669  13.641  0.00  0.00    -0.281 N 
ATOM     20  C   UNL     1     -12.870  -5.447  14.348  0.00  0.00    +0.401 C 
ATOM     24  H   UNL     1     -11.007  -4.668  13.935  0.00  0.00    +0.152 HD
BRANCH   6  21
ATOM     21  C   UNL     1     -12.348  -3.861  12.502  0.00  0.00    +0.104 C 
ATOM     22  C   UNL     1     -12.062  -4.576  11.198  0.00  0.00    +0.024 C 
ENDBRANCH   6  21
ENDBRANCH   3  20
ENDBRANCH  10   3
TORSDOF 6
ENDMDL
MODEL 6
REMARK VINA RESULT:      -5.6     26.383     29.400
REMARK  Name = 40586269
REMARK  7 active torsions:
REMARK  status: ('A' for Active; 'I' for Inactive)
REMARK    1  A    between atoms: O_3  and  C_10
REMARK    2  A    between atoms: O_3  and  C_20
REMARK    3  A    between atoms: N_5  and  C_9
REMARK    4  A    between atoms: N_5  and  C_14
REMARK    5  A    between atoms: N_6  and  C_21
REMARK    6  A    between atoms: C_12  and  C_14
REMARK    7  A    between atoms: C_21  and  C_22
REMARK                            x       y       z     vdW  Elec       q    Type
REMARK                         _______ _______ _______ _____ _____    ______ ____
ROOT
ATOM      1  O   UNL     1      -6.639 -11.709  17.287  0.00  0.00    -0.369 OA
ATOM      2  O   UNL     1      -4.980 -11.687  19.866  0.00  0.00    -0.369 OA
ATOM      7  C   UNL     1      -5.983 -10.778  19.367  0.00  0.00    +0.170 C 
ATOM      8  C   UNL     1      -5.796 -10.698  17.865  0.00  0.00    +0.191 C 
ATOM      9  C   UNL     1      -7.359 -11.382  19.528  0.00  0.00    +0.111 C 
ATOM     10  C   UNL     1      -4.333 -11.029  17.701  0.00  0.00    +0.235 C 
ATOM     11  C   UNL     1      -7.457 -12.290  18.315  0.00  0.00    +0.181 C 
ATOM     13  C   UNL     1      -4.115 -12.061  18.784  0.00  0.00    +0.207 C 
ENDROOT
BRANCH   9   5
ATOM      5  N   UNL     1      -8.382 -10.367  19.509  0.00  0.00    -0.309 NA
ATOM     23  H   UNL     1      -8.081  -9.575  18.942  0.00  0.00    +0.122 HD
BRANCH   5  14
ATOM     14  C   UNL     1      -9.621 -10.867  18.993  0.00  0.00    +0.084 C 
BRANCH  14  12
ATOM     12  C   UNL     1     -10.132  -9.989  17.852  0.00  0.00    +0.003 C 
ATOM     15  C   UNL     1     -11.495  -9.380  18.207  0.00  0.00    +0.005 C 
ATOM     16  C   UNL     1      -9.114  -8.891  17.515  0.00  0.00    +0.005 C 
ATOM     17  C   UNL     1     -12.003  -8.455  17.103  0.00  0.00    +0.000 C 
ATOM     18  C   UNL     1      -9.627  -7.967  16.411  0.00  0.00    +0.000 C 
ATOM     19  C   UNL     1     -10.986  -7.370  16.764  0.00  0.00    +0.000 C 
ENDBRANCH  14  12
ENDBRANCH   5  14
ENDBRANCH   9   5
BRANCH  10   3
ATOM      3  O   UNL     1      -4.007 -11.525  16.422  0.00  0.00    -0.442 OA
BRANCH   3  20
ATOM      4  O   UNL     1      -1.850 -10.736  16.450  0.00  0.00    -0.226 OA
ATOM      6  N   UNL     1      -3.057 -10.874  14.473  0.00  0.00    -0.281 N 
ATOM     20  C   UNL     1      -2.872 -11.017  15.832  0.00  0.00    +0.401 C 
ATOM     24  H   UNL     1      -3.957 -11.137  14.082  0.00  0.00    +0.152 HD
BRANCH   6  21
ATOM     21  C   UNL     1      -2.046 -10.363  13.575  0.00  0.00    +0.104 C 
ATOM     22  C   UNL     1      -2.077 -11.078  12.241  0.00  0.00    +0.024 C 
ENDBRANCH   6  21
ENDBRANCH   3  20
ENDBRANCH  10   3
TORSDOF 6
ENDMDL
MODEL 7
REMARK VINA RESULT:      -5.6     28.906     31.524
REMARK  Name = 40586269
REMARK  7 active torsions:
REMARK  status: ('A' for Active; 'I' for Inactive)
REMARK    1  A    between atoms: O_3  and  C_10
REMARK    2  A    between atoms: O_3  and  C_20
REMARK    3  A    between atoms: N_5  and  C_9
REMARK    4  A    between atoms: N_5  and  C_14
REMARK    5  A    between atoms: N_6  and  C_21
REMARK    6  A    between atoms: C_12  and  C_14
REMARK    7  A    between atoms: C_21  and  C_22
REMARK                            x       y       z     vdW  Elec       q    Type
REMARK                         _______ _______ _______ _____ _____    ______ ____
ROOT
ATOM      1  O   UNL     1       2.471   2.965  -6.347  0.00  0.00    -0.369 OA
ATOM      2  O   UNL     1       1.478   4.303  -3.772  0.00  0.00    -0.369 OA
ATOM      7  C   UNL     1       0.766   3.721  -4.883  0.00  0.00    +0.170 C 
ATOM      8  C   UNL     1       1.554   4.051  -6.134  0.00  0.00    +0.191 C 
ATOM      9  C   UNL     1       0.826   2.213  -4.805  0.00  0.00    +0.111 C 
ATOM     10  C   UNL     1       2.271   5.321  -5.742  0.00  0.00    +0.235 C 
ATOM     11  C   UNL     1       2.186   1.913  -5.412  0.00  0.00    +0.181 C 
ATOM     13  C   UNL     1       2.575   5.076  -4.281  0.00  0.00    +0.207 C 
ENDROOT
BRANCH   9   5
ATOM      5  N   UNL     1      -0.236   1.606  -5.569  0.00  0.00    -0.309 NA
ATOM     23  H   UNL     1      -0.474   2.194  -6.367  0.00  0.00    +0.122 HD
BRANCH   5  14
ATOM     14  C   UNL     1       0.124   0.302  -6.040  0.00  0.00    +0.084 C 
BRANCH  14  12
ATOM     12  C   UNL     1      -0.946  -0.255  -6.978  0.00  0.00    +0.003 C 
ATOM     15  C   UNL     1      -1.785  -1.326  -6.267  0.00  0.00    +0.005 C 
ATOM     16  C   UNL     1      -1.839   0.873  -7.512  0.00  0.00    +0.005 C 
ATOM     17  C   UNL     1      -2.896  -1.860  -7.167  0.00  0.00    +0.000 C 
ATOM     18  C   UNL     1      -2.950   0.334  -8.411  0.00  0.00    +0.000 C 
ATOM     19  C   UNL     1      -3.776  -0.736  -7.704  0.00  0.00    +0.000 C 
ENDBRANCH  14  12
ENDBRANCH   5  14
ENDBRANCH   9   5
BRANCH  10   3
ATOM      3  O   UNL     1       3.438   5.564  -6.494  0.00  0.00    -0.442 OA
BRANCH   3  20
ATOM      4  O   UNL     1       5.257   6.934  -6.196  0.00  0.00    -0.226 OA
ATOM      6  N   UNL     1       3.104   7.794  -6.293  0.00  0.00    -0.281 N 
ATOM     20  C   UNL     1       4.045   6.787  -6.316  0.00  0.00    +0.401 C 
ATOM     24  H   UNL     1       2.127   7.539  -6.396  0.00  0.00    +0.152 HD
BRANCH   6  21
ATOM     21  C   UNL     1       3.430   9.192  -6.121  0.00  0.00    +0.104 C 
ATOM     22  C   UNL     1       3.377   9.599  -4.663  0.00  0.00    +0.024 C 
ENDBRANCH   6  21
ENDBRANCH   3  20
ENDBRANCH  10   3
TORSDOF 6
ENDMDL
MODEL 8
REMARK VINA RESULT:      -5.6     14.057     15.702
REMARK  Name = 40586269
REMARK  7 active torsions:
REMARK  status: ('A' for Active; 'I' for Inactive)
REMARK    1  A    between atoms: O_3  and  C_10
REMARK    2  A    between atoms: O_3  and  C_20
REMARK    3  A    between atoms: N_5  and  C_9
REMARK    4  A    between atoms: N_5  and  C_14
REMARK    5  A    between atoms: N_6  and  C_21
REMARK    6  A    between atoms: C_12  and  C_14
REMARK    7  A    between atoms: C_21  and  C_22
REMARK                            x       y       z     vdW  Elec       q    Type
REMARK                         _______ _______ _______ _____ _____    ______ ____
ROOT
ATOM      1  O   UNL     1      13.500   7.202   4.814  0.00  0.00    -0.369 OA
ATOM      2  O   UNL     1      12.861   9.110   7.128  0.00  0.00    -0.369 OA
ATOM      7  C   UNL     1      14.003   8.269   6.872  0.00  0.00    +0.170 C 
ATOM      8  C   UNL     1      13.480   6.996   6.237  0.00  0.00    +0.191 C 
ATOM      9  C   UNL     1      14.868   8.881   5.793  0.00  0.00    +0.111 C 
ATOM     10  C   UNL     1      12.070   6.922   6.771  0.00  0.00    +0.235 C 
ATOM     11  C   UNL     1      14.157   8.446   4.524  0.00  0.00    +0.181 C 
ATOM     13  C   UNL     1      11.667   8.379   6.812  0.00  0.00    +0.207 C 
ENDROOT
BRANCH   9   5
ATOM      5  N   UNL     1      16.214   8.365   5.845  0.00  0.00    -0.309 NA
ATOM     23  H   UNL     1      16.197   7.347   5.892  0.00  0.00    +0.122 HD
BRANCH   5  14
ATOM     14  C   UNL     1      16.984   8.769   4.707  0.00  0.00    +0.084 C 
BRANCH  14  12
ATOM     12  C   UNL     1      18.471   8.831   5.048  0.00  0.00    +0.003 C 
ATOM     15  C   UNL     1      18.688   8.670   6.559  0.00  0.00    +0.005 C 
ATOM     16  C   UNL     1      19.251   7.764   4.267  0.00  0.00    +0.005 C 
ATOM     17  C   UNL     1      20.172   8.675   6.919  0.00  0.00    +0.000 C 
ATOM     18  C   UNL     1      20.735   7.772   4.631  0.00  0.00    +0.000 C 
ATOM     19  C   UNL     1      20.946   7.620   6.134  0.00  0.00    +0.000 C 
ENDBRANCH  14  12
ENDBRANCH   5  14
ENDBRANCH   9   5
BRANCH  10   3
ATOM      3  O   UNL     1      11.203   6.154   5.968  0.00  0.00    -0.442 OA
BRANCH   3  20
ATOM      4  O   UNL     1       8.983   5.630   6.240  0.00  0.00    -0.226 OA
ATOM      6  N   UNL     1      10.598   4.824   7.698  0.00  0.00    -0.281 N 
ATOM     20  C   UNL     1      10.150   5.539   6.608  0.00  0.00    +0.401 C 
ATOM     24  H   UNL     1      11.592   4.834   7.901  0.00  0.00    +0.152 HD
BRANCH   6  21
ATOM     21  C   UNL     1       9.730   4.068   8.572  0.00  0.00    +0.104 C 
ATOM     22  C   UNL     1       9.344   4.869   9.798  0.00  0.00    +0.024 C 
ENDBRANCH   6  21
ENDBRANCH   3  20
ENDBRANCH  10   3
TORSDOF 6
ENDMDL
MODEL 9
REMARK VINA RESULT:      -5.4     27.286     28.601
REMARK  Name = 40586269
REMARK  7 active torsions:
REMARK  status: ('A' for Active; 'I' for Inactive)
REMARK    1  A    between atoms: O_3  and  C_10
REMARK    2  A    between atoms: O_3  and  C_20
REMARK    3  A    between atoms: N_5  and  C_9
REMARK    4  A    between atoms: N_5  and  C_14
REMARK    5  A    between atoms: N_6  and  C_21
REMARK    6  A    between atoms: C_12  and  C_14
REMARK    7  A    between atoms: C_21  and  C_22
REMARK                            x       y       z     vdW  Elec       q    Type
REMARK                         _______ _______ _______ _____ _____    ______ ____
ROOT
ATOM      1  O   UNL     1      -6.316 -10.312  17.376  0.00  0.00    -0.369 OA
ATOM      2  O   UNL     1      -4.268 -12.220  18.630  0.00  0.00    -0.369 OA
ATOM      7  C   UNL     1      -5.033 -12.307  17.410  0.00  0.00    +0.170 C 
ATOM      8  C   UNL     1      -6.396 -11.710  17.702  0.00  0.00    +0.191 C 
ATOM      9  C   UNL     1      -4.451 -11.383  16.365  0.00  0.00    +0.111 C 
ATOM     10  C   UNL     1      -6.537 -11.932  19.188  0.00  0.00    +0.235 C 
ATOM     11  C   UNL     1      -5.054 -10.042  16.747  0.00  0.00    +0.181 C 
ATOM     13  C   UNL     1      -5.120 -11.732  19.676  0.00  0.00    +0.207 C 
ENDROOT
BRANCH   9   5
ATOM      5  N   UNL     1      -4.849 -11.779  15.036  0.00  0.00    -0.309 NA
ATOM     23  H   UNL     1      -5.702 -12.335  15.077  0.00  0.00    +0.122 HD
BRANCH   5  14
ATOM     14  C   UNL     1      -5.067 -10.648  14.186  0.00  0.00    +0.084 C 
BRANCH  14  12
ATOM     12  C   UNL     1      -4.250 -10.764  12.901  0.00  0.00    +0.003 C 
ATOM     15  C   UNL     1      -4.779  -9.796  11.833  0.00  0.00    +0.005 C 
ATOM     16  C   UNL     1      -2.762 -10.510  13.179  0.00  0.00    +0.005 C 
ATOM     17  C   UNL     1      -3.944  -9.855  10.556  0.00  0.00    +0.000 C 
ATOM     18  C   UNL     1      -1.931 -10.569  11.899  0.00  0.00    +0.000 C 
ATOM     19  C   UNL     1      -2.465  -9.612  10.838  0.00  0.00    +0.000 C 
ENDBRANCH  14  12
ENDBRANCH   5  14
ENDBRANCH   9   5
BRANCH  10   3
ATOM      3  O   UNL     1      -7.441 -11.045  19.807  0.00  0.00    -0.442 OA
BRANCH   3  20
ATOM      4  O   UNL     1      -9.453 -12.098  19.460  0.00  0.00    -0.226 OA
ATOM      6  N   UNL     1      -9.134  -9.880  18.856  0.00  0.00    -0.281 N 
ATOM     20  C   UNL     1      -8.749 -11.097  19.378  0.00  0.00    +0.401 C 
ATOM     24  H   UNL     1      -8.451  -9.129  18.839  0.00  0.00    +0.152 HD
BRANCH   6  21
ATOM     21  C   UNL     1     -10.451  -9.618  18.323  0.00  0.00    +0.104 C 
ATOM     22  C   UNL     1     -10.460  -8.381  17.450  0.00  0.00    +0.024 C 
ENDBRANCH   6  21
ENDBRANCH   3  20
ENDBRANCH  10   3
TORSDOF 6
ENDMDL
MODEL 10
REMARK VINA RESULT:      -5.3     29.238     31.789
REMARK  Name = 40586269
REMARK  7 active torsions:
REMARK  status: ('A' for Active; 'I' for Inactive)
REMARK    1  A    between atoms: O_3  and  C_10
REMARK    2  A    between atoms: O_3  and  C_20
REMARK    3  A    between atoms: N_5  and  C_9
REMARK    4  A    between atoms: N_5  and  C_14
REMARK    5  A    between atoms: N_6  and  C_21
REMARK    6  A    between atoms: C_12  and  C_14
REMARK    7  A    between atoms: C_21  and  C_22
REMARK                            x       y       z     vdW  Elec       q    Type
REMARK                         _______ _______ _______ _____ _____    ______ ____
ROOT
ATOM      1  O   UNL     1       1.848   4.192  -6.827  0.00  0.00    -0.369 OA
ATOM      2  O   UNL     1       2.214   4.611  -3.811  0.00  0.00    -0.369 OA
ATOM      7  C   UNL     1       1.063   4.222  -4.590  0.00  0.00    +0.170 C 
ATOM      8  C   UNL     1       1.125   5.003  -5.887  0.00  0.00    +0.191 C 
ATOM      9  C   UNL     1       1.195   2.782  -5.029  0.00  0.00    +0.111 C 
ATOM     10  C   UNL     1       1.907   6.232  -5.490  0.00  0.00    +0.235 C 
ATOM     11  C   UNL     1       2.088   2.898  -6.252  0.00  0.00    +0.181 C 
ATOM     13  C   UNL     1       2.897   5.672  -4.494  0.00  0.00    +0.207 C 
ENDROOT
BRANCH   9   5
ATOM      5  N   UNL     1      -0.088   2.218  -5.367  0.00  0.00    -0.309 NA
ATOM     23  H   UNL     1      -0.738   2.958  -5.632  0.00  0.00    +0.122 HD
BRANCH   5  14
ATOM     14  C   UNL     1       0.010   1.275  -6.440  0.00  0.00    +0.084 C 
BRANCH  14  12
ATOM     12  C   UNL     1      -1.298   0.504  -6.611  0.00  0.00    +0.003 C 
ATOM     15  C   UNL     1      -1.943   0.826  -7.966  0.00  0.00    +0.005 C 
ATOM     16  C   UNL     1      -1.060  -1.006  -6.464  0.00  0.00    +0.005 C 
ATOM     17  C   UNL     1      -3.225   0.026  -8.183  0.00  0.00    +0.000 C 
ATOM     18  C   UNL     1      -2.345  -1.802  -6.683  0.00  0.00    +0.000 C 
ATOM     19  C   UNL     1      -2.988  -1.473  -8.027  0.00  0.00    +0.000 C 
ENDBRANCH  14  12
ENDBRANCH   5  14
ENDBRANCH   9   5
BRANCH  10   3
ATOM      3  O   UNL     1       2.547   6.867  -6.574  0.00  0.00    -0.442 OA
BRANCH   3  20
ATOM      4  O   UNL     1       3.455   8.967  -6.779  0.00  0.00    -0.226 OA
ATOM      6  N   UNL     1       1.180   8.667  -6.440  0.00  0.00    -0.281 N 
ATOM     20  C   UNL     1       2.480   8.242  -6.613  0.00  0.00    +0.401 C 
ATOM     24  H   UNL     1       0.460   7.964  -6.304  0.00  0.00    +0.152 HD
BRANCH   6  21
ATOM     21  C   UNL     1       0.785  10.057  -6.432  0.00  0.00    +0.104 C 
ATOM     22  C   UNL     1       0.146  10.460  -7.744  0.00  0.00    +0.024 C 
ENDBRANCH   6  21
ENDBRANCH   3  20
ENDBRANCH  10   3
TORSDOF 6
ENDMDL
