MODEL 1
REMARK VINA RESULT:      -6.7      0.000      0.000
REMARK  Name = 45783280
REMARK  8 active torsions:
REMARK  status: ('A' for Active; 'I' for Inactive)
REMARK    1  A    between atoms: O_2  and  C_27
REMARK    2  A    between atoms: O_2  and  C_28
REMARK    3  A    between atoms: N_3  and  C_13
REMARK    4  A    between atoms: N_7  and  C_26
REMARK    5  A    between atoms: C_9  and  C_14
REMARK    6  A    between atoms: C_13  and  C_15
REMARK    7  A    between atoms: C_16  and  C_19
REMARK    8  A    between atoms: C_26  and  C_27
REMARK                            x       y       z     vdW  Elec       q    Type
REMARK                         _______ _______ _______ _____ _____    ______ ____
ROOT
ATOM      1  O   UNL     1      -4.477 -13.139  15.257  0.00  0.00    -0.336 OA
ATOM      4  N   UNL     1      -4.480 -11.313  16.554  0.00  0.00    -0.190 NA
ATOM      5  N   UNL     1      -5.632 -13.222  16.045  0.00  0.00    -0.056 NA
ATOM     14  C   UNL     1      -3.857 -11.986  15.621  0.00  0.00    +0.245 A 
ATOM     16  C   UNL     1      -5.563 -12.110  16.783  0.00  0.00    +0.202 A 
ENDROOT
BRANCH  16  19
ATOM      7  N   UNL     1      -9.230  -9.312  18.255  0.00  0.00    -0.327 N 
ATOM      8  N   UNL     1      -8.501 -11.099  19.653  0.00  0.00    -0.240 NA
ATOM     19  C   UNL     1      -6.559 -11.767  17.757  0.00  0.00    +0.027 A 
ATOM     22  C   UNL     1      -7.417 -10.696  17.530  0.00  0.00    +0.055 A 
ATOM     23  C   UNL     1      -6.670 -12.503  18.931  0.00  0.00    +0.031 A 
ATOM     24  C   UNL     1      -8.363 -10.406  18.500  0.00  0.00    +0.119 A 
ATOM     25  C   UNL     1      -7.649 -12.132  19.838  0.00  0.00    +0.113 A 
ATOM     29  H   UNL     1      -9.918  -9.112  18.971  0.00  0.00    +0.148 HD
BRANCH   7  26
ATOM     26  C   UNL     1      -9.157  -8.522  17.070  0.00  0.00    +0.131 C 
BRANCH  26  27
ATOM     27  C   UNL     1     -10.398  -7.656  16.945  0.00  0.00    +0.178 C 
BRANCH  27   2
ATOM      2  O   UNL     1     -10.191  -6.675  15.936  0.00  0.00    -0.381 OA
ATOM     28  C   UNL     1     -11.393  -5.979  15.633  0.00  0.00    +0.194 C 
ENDBRANCH  27   2
ENDBRANCH  26  27
ENDBRANCH   7  26
ENDBRANCH  16  19
BRANCH  14   9
ATOM      3  N   UNL     1      -2.747 -10.668  13.825  0.00  0.00    -0.287 NA
ATOM      9  C   UNL     1      -2.563 -11.661  14.902  0.00  0.00    +0.146 C 
ATOM     10  C   UNL     1      -1.507 -11.038  15.833  0.00  0.00    +0.030 C 
ATOM     11  C   UNL     1      -1.113  -9.727  15.165  0.00  0.00    +0.017 C 
ATOM     12  C   UNL     1      -1.482  -9.942  13.712  0.00  0.00    +0.085 C 
BRANCH   3  13
ATOM     13  C   UNL     1      -3.152 -11.264  12.558  0.00  0.00    +0.120 C 
BRANCH  13  15
ATOM      6  N   UNL     1      -4.961  -8.377   9.934  0.00  0.00    -0.263 NA
ATOM     15  C   UNL     1      -3.785 -10.253  11.639  0.00  0.00    -0.030 A 
ATOM     17  C   UNL     1      -5.000  -9.668  11.977  0.00  0.00    +0.024 A 
ATOM     18  C   UNL     1      -3.157  -9.902  10.449  0.00  0.00    +0.024 A 
ATOM     20  C   UNL     1      -5.541  -8.744  11.098  0.00  0.00    +0.111 A 
ATOM     21  C   UNL     1      -3.780  -8.967   9.640  0.00  0.00    +0.111 A 
ENDBRANCH  13  15
ENDBRANCH   3  13
ENDBRANCH  14   9
TORSDOF 7
ENDMDL
MODEL 2
REMARK VINA RESULT:      -6.7     26.285     29.497
REMARK  Name = 45783280
REMARK  8 active torsions:
REMARK  status: ('A' for Active; 'I' for Inactive)
REMARK    1  A    between atoms: O_2  and  C_27
REMARK    2  A    between atoms: O_2  and  C_28
REMARK    3  A    between atoms: N_3  and  C_13
REMARK    4  A    between atoms: N_7  and  C_26
REMARK    5  A    between atoms: C_9  and  C_14
REMARK    6  A    between atoms: C_13  and  C_15
REMARK    7  A    between atoms: C_16  and  C_19
REMARK    8  A    between atoms: C_26  and  C_27
REMARK                            x       y       z     vdW  Elec       q    Type
REMARK                         _______ _______ _______ _____ _____    ______ ____
ROOT
ATOM      1  O   UNL     1      14.466   6.788  19.424  0.00  0.00    -0.336 OA
ATOM      4  N   UNL     1      15.717   7.486  21.146  0.00  0.00    -0.190 NA
ATOM      5  N   UNL     1      15.745   6.254  19.218  0.00  0.00    -0.056 NA
ATOM     14  C   UNL     1      14.538   7.499  20.579  0.00  0.00    +0.245 A 
ATOM     16  C   UNL     1      16.425   6.710  20.274  0.00  0.00    +0.202 A 
ENDROOT
BRANCH  16  19
ATOM      7  N   UNL     1      20.630   7.575  22.514  0.00  0.00    -0.327 N 
ATOM      8  N   UNL     1      20.512   5.821  20.905  0.00  0.00    -0.240 NA
ATOM     19  C   UNL     1      17.811   6.409  20.487  0.00  0.00    +0.027 A 
ATOM     22  C   UNL     1      18.552   7.145  21.405  0.00  0.00    +0.055 A 
ATOM     23  C   UNL     1      18.420   5.379  19.778  0.00  0.00    +0.031 A 
ATOM     24  C   UNL     1      19.887   6.815  21.576  0.00  0.00    +0.119 A 
ATOM     25  C   UNL     1      19.760   5.128  20.022  0.00  0.00    +0.113 A 
ATOM     29  H   UNL     1      21.604   7.321  22.632  0.00  0.00    +0.148 HD
BRANCH   7  26
ATOM     26  C   UNL     1      20.056   8.643  23.266  0.00  0.00    +0.131 C 
BRANCH  26  27
ATOM     27  C   UNL     1      20.629   8.655  24.672  0.00  0.00    +0.178 C 
BRANCH  27   2
ATOM      2  O   UNL     1      20.476   7.367  25.257  0.00  0.00    -0.381 OA
ATOM     28  C   UNL     1      20.213   7.457  26.651  0.00  0.00    +0.194 C 
ENDBRANCH  27   2
ENDBRANCH  26  27
ENDBRANCH   7  26
ENDBRANCH  16  19
BRANCH  14   9
ATOM      3  N   UNL     1      12.433   8.638  19.895  0.00  0.00    -0.287 NA
ATOM      9  C   UNL     1      13.265   8.186  21.029  0.00  0.00    +0.146 C 
ATOM     10  C   UNL     1      12.344   7.257  21.843  0.00  0.00    +0.030 C 
ATOM     11  C   UNL     1      11.002   7.299  21.125  0.00  0.00    +0.017 C 
ATOM     12  C   UNL     1      11.046   8.606  20.360  0.00  0.00    +0.085 C 
BRANCH   3  13
ATOM     13  C   UNL     1      12.813   9.952  19.393  0.00  0.00    +0.120 C 
BRANCH  13  15
ATOM      6  N   UNL     1      13.792   9.847  15.206  0.00  0.00    -0.263 NA
ATOM     15  C   UNL     1      13.156   9.915  17.927  0.00  0.00    -0.030 A 
ATOM     17  C   UNL     1      14.372  10.420  17.482  0.00  0.00    +0.024 A 
ATOM     18  C   UNL     1      12.257   9.376  17.013  0.00  0.00    +0.024 A 
ATOM     20  C   UNL     1      14.640  10.363  16.123  0.00  0.00    +0.111 A 
ATOM     21  C   UNL     1      12.620   9.365  15.677  0.00  0.00    +0.111 A 
ENDBRANCH  13  15
ENDBRANCH   3  13
ENDBRANCH  14   9
TORSDOF 7
ENDMDL
MODEL 3
REMARK VINA RESULT:      -6.6     26.604     29.938
REMARK  Name = 45783280
REMARK  8 active torsions:
REMARK  status: ('A' for Active; 'I' for Inactive)
REMARK    1  A    between atoms: O_2  and  C_27
REMARK    2  A    between atoms: O_2  and  C_28
REMARK    3  A    between atoms: N_3  and  C_13
REMARK    4  A    between atoms: N_7  and  C_26
REMARK    5  A    between atoms: C_9  and  C_14
REMARK    6  A    between atoms: C_13  and  C_15
REMARK    7  A    between atoms: C_16  and  C_19
REMARK    8  A    between atoms: C_26  and  C_27
REMARK                            x       y       z     vdW  Elec       q    Type
REMARK                         _______ _______ _______ _____ _____    ______ ____
ROOT
ATOM      1  O   UNL     1      14.504   9.340  22.673  0.00  0.00    -0.336 OA
ATOM      4  N   UNL     1      15.566   9.715  20.737  0.00  0.00    -0.190 NA
ATOM      5  N   UNL     1      15.084   8.119  22.304  0.00  0.00    -0.056 NA
ATOM     14  C   UNL     1      14.837  10.225  21.697  0.00  0.00    +0.245 A 
ATOM     16  C   UNL     1      15.692   8.421  21.153  0.00  0.00    +0.202 A 
ENDROOT
BRANCH  16  19
ATOM      7  N   UNL     1      19.765   5.940  20.319  0.00  0.00    -0.327 N 
ATOM      8  N   UNL     1      17.873   5.568  18.918  0.00  0.00    -0.240 NA
ATOM     19  C   UNL     1      16.432   7.454  20.394  0.00  0.00    +0.027 A 
ATOM     22  C   UNL     1      17.750   7.166  20.728  0.00  0.00    +0.055 A 
ATOM     23  C   UNL     1      15.833   6.802  19.322  0.00  0.00    +0.031 A 
ATOM     24  C   UNL     1      18.421   6.223  19.966  0.00  0.00    +0.119 A 
ATOM     25  C   UNL     1      16.590   5.876  18.623  0.00  0.00    +0.113 A 
ATOM     29  H   UNL     1      20.243   5.247  19.755  0.00  0.00    +0.148 HD
BRANCH   7  26
ATOM     26  C   UNL     1      20.427   6.582  21.407  0.00  0.00    +0.131 C 
BRANCH  26  27
ATOM     27  C   UNL     1      21.157   5.553  22.251  0.00  0.00    +0.178 C 
BRANCH  27   2
ATOM      2  O   UNL     1      21.052   5.906  23.625  0.00  0.00    -0.381 OA
ATOM     28  C   UNL     1      20.394   7.155  23.793  0.00  0.00    +0.194 C 
ENDBRANCH  27   2
ENDBRANCH  26  27
ENDBRANCH   7  26
ENDBRANCH  16  19
BRANCH  14   9
ATOM      3  N   UNL     1      12.984  11.687  22.486  0.00  0.00    -0.287 NA
ATOM      9  C   UNL     1      14.323  11.639  21.865  0.00  0.00    +0.146 C 
ATOM     10  C   UNL     1      15.214  12.489  22.790  0.00  0.00    +0.030 C 
ATOM     11  C   UNL     1      14.276  13.021  23.866  0.00  0.00    +0.017 C 
ATOM     12  C   UNL     1      12.910  12.954  23.214  0.00  0.00    +0.085 C 
BRANCH   3  13
ATOM     13  C   UNL     1      11.900  11.544  21.523  0.00  0.00    +0.120 C 
BRANCH  13  15
ATOM      6  N   UNL     1      10.691   7.441  21.069  0.00  0.00    -0.263 NA
ATOM     15  C   UNL     1      11.477  10.107  21.364  0.00  0.00    -0.030 A 
ATOM     17  C   UNL     1      11.681   9.449  20.157  0.00  0.00    +0.024 A 
ATOM     18  C   UNL     1      10.880   9.434  22.425  0.00  0.00    +0.024 A 
ATOM     20  C   UNL     1      11.274   8.128  20.061  0.00  0.00    +0.111 A 
ATOM     21  C   UNL     1      10.510   8.114  22.227  0.00  0.00    +0.111 A 
ENDBRANCH  13  15
ENDBRANCH   3  13
ENDBRANCH  14   9
TORSDOF 7
ENDMDL
MODEL 4
REMARK VINA RESULT:      -6.5     26.899     30.052
REMARK  Name = 45783280
REMARK  8 active torsions:
REMARK  status: ('A' for Active; 'I' for Inactive)
REMARK    1  A    between atoms: O_2  and  C_27
REMARK    2  A    between atoms: O_2  and  C_28
REMARK    3  A    between atoms: N_3  and  C_13
REMARK    4  A    between atoms: N_7  and  C_26
REMARK    5  A    between atoms: C_9  and  C_14
REMARK    6  A    between atoms: C_13  and  C_15
REMARK    7  A    between atoms: C_16  and  C_19
REMARK    8  A    between atoms: C_26  and  C_27
REMARK                            x       y       z     vdW  Elec       q    Type
REMARK                         _______ _______ _______ _____ _____    ______ ____
ROOT
ATOM      1  O   UNL     1      16.107   5.918  18.558  0.00  0.00    -0.336 OA
ATOM      4  N   UNL     1      16.170   7.576  20.064  0.00  0.00    -0.190 NA
ATOM      5  N   UNL     1      17.356   5.826  19.188  0.00  0.00    -0.056 NA
ATOM     14  C   UNL     1      15.474   6.974  19.133  0.00  0.00    +0.245 A 
ATOM     16  C   UNL     1      17.317   6.837  20.061  0.00  0.00    +0.202 A 
ENDROOT
BRANCH  16  19
ATOM      7  N   UNL     1      21.547   5.636  22.089  0.00  0.00    -0.327 N 
ATOM      8  N   UNL     1      20.534   7.715  22.663  0.00  0.00    -0.240 NA
ATOM     19  C   UNL     1      18.408   7.135  20.944  0.00  0.00    +0.027 A 
ATOM     22  C   UNL     1      19.456   6.232  21.088  0.00  0.00    +0.055 A 
ATOM     23  C   UNL     1      18.422   8.327  21.660  0.00  0.00    +0.031 A 
ATOM     24  C   UNL     1      20.486   6.567  21.952  0.00  0.00    +0.119 A 
ATOM     25  C   UNL     1      19.498   8.567  22.497  0.00  0.00    +0.113 A 
ATOM     29  H   UNL     1      22.295   5.894  22.721  0.00  0.00    +0.148 HD
BRANCH   7  26
ATOM     26  C   UNL     1      21.581   4.398  21.381  0.00  0.00    +0.131 C 
BRANCH  26  27
ATOM     27  C   UNL     1      22.297   3.346  22.209  0.00  0.00    +0.178 C 
BRANCH  27   2
ATOM      2  O   UNL     1      22.117   3.628  23.592  0.00  0.00    -0.381 OA
ATOM     28  C   UNL     1      23.359   3.650  24.284  0.00  0.00    +0.194 C 
ENDBRANCH  27   2
ENDBRANCH  26  27
ENDBRANCH   7  26
ENDBRANCH  16  19
BRANCH  14   9
ATOM      3  N   UNL     1      13.417   8.349  19.400  0.00  0.00    -0.287 NA
ATOM      9  C   UNL     1      14.083   7.286  18.621  0.00  0.00    +0.146 C 
ATOM     10  C   UNL     1      14.087   7.808  17.171  0.00  0.00    +0.030 C 
ATOM     11  C   UNL     1      13.349   9.138  17.226  0.00  0.00    +0.017 C 
ATOM     12  C   UNL     1      12.504   9.027  18.479  0.00  0.00    +0.085 C 
BRANCH   3  13
ATOM     13  C   UNL     1      12.730   7.848  20.583  0.00  0.00    +0.120 C 
BRANCH  13  15
ATOM      6  N   UNL     1      11.819  11.000  23.364  0.00  0.00    -0.263 NA
ATOM     15  C   UNL     1      12.411   8.952  21.557  0.00  0.00    -0.030 A 
ATOM     17  C   UNL     1      13.403   9.841  21.952  0.00  0.00    +0.024 A 
ATOM     18  C   UNL     1      11.123   9.084  22.064  0.00  0.00    +0.024 A 
ATOM     20  C   UNL     1      13.059  10.839  22.850  0.00  0.00    +0.111 A 
ATOM     21  C   UNL     1      10.881  10.116  22.955  0.00  0.00    +0.111 A 
ENDBRANCH  13  15
ENDBRANCH   3  13
ENDBRANCH  14   9
TORSDOF 7
ENDMDL
MODEL 5
REMARK VINA RESULT:      -6.4     26.653     29.842
REMARK  Name = 45783280
REMARK  8 active torsions:
REMARK  status: ('A' for Active; 'I' for Inactive)
REMARK    1  A    between atoms: O_2  and  C_27
REMARK    2  A    between atoms: O_2  and  C_28
REMARK    3  A    between atoms: N_3  and  C_13
REMARK    4  A    between atoms: N_7  and  C_26
REMARK    5  A    between atoms: C_9  and  C_14
REMARK    6  A    between atoms: C_13  and  C_15
REMARK    7  A    between atoms: C_16  and  C_19
REMARK    8  A    between atoms: C_26  and  C_27
REMARK                            x       y       z     vdW  Elec       q    Type
REMARK                         _______ _______ _______ _____ _____    ______ ____
ROOT
ATOM      1  O   UNL     1      14.078   8.645  22.233  0.00  0.00    -0.336 OA
ATOM      4  N   UNL     1      15.644   9.256  20.753  0.00  0.00    -0.190 NA
ATOM      5  N   UNL     1      14.868   7.510  22.011  0.00  0.00    -0.056 NA
ATOM     14  C   UNL     1      14.603   9.626  21.454  0.00  0.00    +0.245 A 
ATOM     16  C   UNL     1      15.769   7.950  21.127  0.00  0.00    +0.202 A 
ENDROOT
BRANCH  16  19
ATOM      7  N   UNL     1      20.297   6.242  21.282  0.00  0.00    -0.327 N 
ATOM      8  N   UNL     1      18.826   5.472  19.573  0.00  0.00    -0.240 NA
ATOM     19  C   UNL     1      16.806   7.110  20.600  0.00  0.00    +0.027 A 
ATOM     22  C   UNL     1      18.058   7.085  21.203  0.00  0.00    +0.055 A 
ATOM     23  C   UNL     1      16.562   6.318  19.483  0.00  0.00    +0.031 A 
ATOM     24  C   UNL     1      19.025   6.256  20.657  0.00  0.00    +0.119 A 
ATOM     25  C   UNL     1      17.596   5.524  19.014  0.00  0.00    +0.113 A 
ATOM     29  H   UNL     1      20.994   5.630  20.874  0.00  0.00    +0.148 HD
BRANCH   7  26
ATOM     26  C   UNL     1      20.601   7.036  22.427  0.00  0.00    +0.131 C 
BRANCH  26  27
ATOM     27  C   UNL     1      21.441   6.236  23.406  0.00  0.00    +0.178 C 
BRANCH  27   2
ATOM      2  O   UNL     1      21.440   4.866  23.023  0.00  0.00    -0.381 OA
ATOM     28  C   UNL     1      22.745   4.306  23.088  0.00  0.00    +0.194 C 
ENDBRANCH  27   2
ENDBRANCH  26  27
ENDBRANCH   7  26
ENDBRANCH  16  19
BRANCH  14   9
ATOM      3  N   UNL     1      12.782  11.078  20.575  0.00  0.00    -0.287 NA
ATOM      9  C   UNL     1      13.917  10.975  21.515  0.00  0.00    +0.146 C 
ATOM     10  C   UNL     1      13.307  11.270  22.898  0.00  0.00    +0.030 C 
ATOM     11  C   UNL     1      11.843  11.586  22.627  0.00  0.00    +0.017 C 
ATOM     12  C   UNL     1      11.832  12.016  21.174  0.00  0.00    +0.085 C 
BRANCH   3  13
ATOM     13  C   UNL     1      13.183  11.485  19.234  0.00  0.00    +0.120 C 
BRANCH  13  15
ATOM      6  N   UNL     1      13.215   8.168  16.496  0.00  0.00    -0.263 NA
ATOM     15  C   UNL     1      13.194  10.323  18.275  0.00  0.00    -0.030 A 
ATOM     17  C   UNL     1      13.879  10.421  17.069  0.00  0.00    +0.024 A 
ATOM     18  C   UNL     1      12.519   9.150  18.593  0.00  0.00    +0.024 A 
ATOM     20  C   UNL     1      13.859   9.325  16.222  0.00  0.00    +0.111 A 
ATOM     21  C   UNL     1      12.561   8.111  17.678  0.00  0.00    +0.111 A 
ENDBRANCH  13  15
ENDBRANCH   3  13
ENDBRANCH  14   9
TORSDOF 7
ENDMDL
MODEL 6
REMARK VINA RESULT:      -6.3     26.733     29.953
REMARK  Name = 45783280
REMARK  8 active torsions:
REMARK  status: ('A' for Active; 'I' for Inactive)
REMARK    1  A    between atoms: O_2  and  C_27
REMARK    2  A    between atoms: O_2  and  C_28
REMARK    3  A    between atoms: N_3  and  C_13
REMARK    4  A    between atoms: N_7  and  C_26
REMARK    5  A    between atoms: C_9  and  C_14
REMARK    6  A    between atoms: C_13  and  C_15
REMARK    7  A    between atoms: C_16  and  C_19
REMARK    8  A    between atoms: C_26  and  C_27
REMARK                            x       y       z     vdW  Elec       q    Type
REMARK                         _______ _______ _______ _____ _____    ______ ____
ROOT
ATOM      1  O   UNL     1      16.553   6.498  18.950  0.00  0.00    -0.336 OA
ATOM      4  N   UNL     1      17.488   7.563  20.685  0.00  0.00    -0.190 NA
ATOM      5  N   UNL     1      17.692   5.758  19.294  0.00  0.00    -0.056 NA
ATOM     14  C   UNL     1      16.508   7.543  19.817  0.00  0.00    +0.245 A 
ATOM     16  C   UNL     1      18.189   6.449  20.324  0.00  0.00    +0.202 A 
ENDROOT
BRANCH  16  19
ATOM      7  N   UNL     1      21.230   6.873  24.068  0.00  0.00    -0.327 N 
ATOM      8  N   UNL     1      21.708   5.280  22.361  0.00  0.00    -0.240 NA
ATOM     19  C   UNL     1      19.383   6.053  21.014  0.00  0.00    +0.027 A 
ATOM     22  C   UNL     1      19.728   6.661  22.216  0.00  0.00    +0.055 A 
ATOM     23  C   UNL     1      20.199   5.060  20.484  0.00  0.00    +0.031 A 
ATOM     24  C   UNL     1      20.890   6.242  22.844  0.00  0.00    +0.119 A 
ATOM     25  C   UNL     1      21.339   4.713  21.190  0.00  0.00    +0.113 A 
ATOM     29  H   UNL     1      22.080   6.555  24.519  0.00  0.00    +0.148 HD
BRANCH   7  26
ATOM     26  C   UNL     1      20.430   7.898  24.654  0.00  0.00    +0.131 C 
BRANCH  26  27
ATOM     27  C   UNL     1      20.237   7.624  26.135  0.00  0.00    +0.178 C 
BRANCH  27   2
ATOM      2  O   UNL     1      20.116   6.222  26.346  0.00  0.00    -0.381 OA
ATOM     28  C   UNL     1      20.588   5.847  27.633  0.00  0.00    +0.194 C 
ENDBRANCH  27   2
ENDBRANCH  26  27
ENDBRANCH   7  26
ENDBRANCH  16  19
BRANCH  14   9
ATOM      3  N   UNL     1      14.085   7.970  20.190  0.00  0.00    -0.287 NA
ATOM      9  C   UNL     1      15.352   8.507  19.652  0.00  0.00    +0.146 C 
ATOM     10  C   UNL     1      15.568   9.830  20.409  0.00  0.00    +0.030 C 
ATOM     11  C   UNL     1      14.345   9.982  21.302  0.00  0.00    +0.017 C 
ATOM     12  C   UNL     1      13.297   9.125  20.622  0.00  0.00    +0.085 C 
BRANCH   3  13
ATOM     13  C   UNL     1      13.363   7.140  19.235  0.00  0.00    +0.120 C 
BRANCH  13  15
ATOM      6  N   UNL     1      12.653   9.205  15.530  0.00  0.00    -0.263 NA
ATOM     15  C   UNL     1      13.114   7.863  17.938  0.00  0.00    -0.030 A 
ATOM     17  C   UNL     1      11.884   8.465  17.699  0.00  0.00    +0.024 A 
ATOM     18  C   UNL     1      14.114   7.930  16.974  0.00  0.00    +0.024 A 
ATOM     20  C   UNL     1      11.706   9.118  16.490  0.00  0.00    +0.111 A 
ATOM     21  C   UNL     1      13.836   8.607  15.798  0.00  0.00    +0.111 A 
ENDBRANCH  13  15
ENDBRANCH   3  13
ENDBRANCH  14   9
TORSDOF 7
ENDMDL
MODEL 7
REMARK VINA RESULT:      -6.1     19.127     22.349
REMARK  Name = 45783280
REMARK  8 active torsions:
REMARK  status: ('A' for Active; 'I' for Inactive)
REMARK    1  A    between atoms: O_2  and  C_27
REMARK    2  A    between atoms: O_2  and  C_28
REMARK    3  A    between atoms: N_3  and  C_13
REMARK    4  A    between atoms: N_7  and  C_26
REMARK    5  A    between atoms: C_9  and  C_14
REMARK    6  A    between atoms: C_13  and  C_15
REMARK    7  A    between atoms: C_16  and  C_19
REMARK    8  A    between atoms: C_26  and  C_27
REMARK                            x       y       z     vdW  Elec       q    Type
REMARK                         _______ _______ _______ _____ _____    ______ ____
ROOT
ATOM      1  O   UNL     1     -16.761   5.713  29.454  0.00  0.00    -0.336 OA
ATOM      4  N   UNL     1     -15.862   3.663  29.373  0.00  0.00    -0.190 NA
ATOM      5  N   UNL     1     -16.981   5.241  28.153  0.00  0.00    -0.056 NA
ATOM     14  C   UNL     1     -16.097   4.722  30.105  0.00  0.00    +0.245 A 
ATOM     16  C   UNL     1     -16.422   4.028  28.184  0.00  0.00    +0.202 A 
ENDROOT
BRANCH  16  19
ATOM      7  N   UNL     1     -15.728   3.295  23.448  0.00  0.00    -0.327 N 
ATOM      8  N   UNL     1     -16.375   1.459  24.823  0.00  0.00    -0.240 NA
ATOM     19  C   UNL     1     -16.407   3.157  27.044  0.00  0.00    +0.027 A 
ATOM     22  C   UNL     1     -16.072   3.655  25.790  0.00  0.00    +0.055 A 
ATOM     23  C   UNL     1     -16.726   1.811  27.189  0.00  0.00    +0.031 A 
ATOM     24  C   UNL     1     -16.070   2.773  24.721  0.00  0.00    +0.119 A 
ATOM     25  C   UNL     1     -16.695   1.012  26.058  0.00  0.00    +0.113 A 
ATOM     29  H   UNL     1     -15.728   2.639  22.676  0.00  0.00    +0.148 HD
BRANCH   7  26
ATOM     26  C   UNL     1     -15.395   4.667  23.244  0.00  0.00    +0.131 C 
BRANCH  26  27
ATOM     27  C   UNL     1     -13.911   4.803  22.953  0.00  0.00    +0.178 C 
BRANCH  27   2
ATOM      2  O   UNL     1     -13.730   5.479  21.715  0.00  0.00    -0.381 OA
ATOM     28  C   UNL     1     -14.965   5.957  21.197  0.00  0.00    +0.194 C 
ENDBRANCH  27   2
ENDBRANCH  26  27
ENDBRANCH   7  26
ENDBRANCH  16  19
BRANCH  14   9
ATOM      3  N   UNL     1     -14.667   4.098  32.044  0.00  0.00    -0.287 NA
ATOM      9  C   UNL     1     -15.737   4.989  31.552  0.00  0.00    +0.146 C 
ATOM     10  C   UNL     1     -15.196   6.413  31.777  0.00  0.00    +0.030 C 
ATOM     11  C   UNL     1     -13.846   6.222  32.454  0.00  0.00    +0.017 C 
ATOM     12  C   UNL     1     -13.950   4.845  33.078  0.00  0.00    +0.085 C 
BRANCH   3  13
ATOM     13  C   UNL     1     -15.165   2.821  32.536  0.00  0.00    +0.120 C 
BRANCH  13  15
ATOM      6  N   UNL     1     -13.919  -0.455  30.042  0.00  0.00    -0.263 NA
ATOM     15  C   UNL     1     -14.729   1.674  31.663  0.00  0.00    -0.030 A 
ATOM     17  C   UNL     1     -15.257   0.404  31.864  0.00  0.00    +0.024 A 
ATOM     18  C   UNL     1     -13.796   1.882  30.653  0.00  0.00    +0.024 A 
ATOM     20  C   UNL     1     -14.823  -0.618  31.034  0.00  0.00    +0.111 A 
ATOM     21  C   UNL     1     -13.429   0.795  29.877  0.00  0.00    +0.111 A 
ENDBRANCH  13  15
ENDBRANCH   3  13
ENDBRANCH  14   9
TORSDOF 7
ENDMDL
MODEL 8
REMARK VINA RESULT:      -6.1     26.457     29.746
REMARK  Name = 45783280
REMARK  8 active torsions:
REMARK  status: ('A' for Active; 'I' for Inactive)
REMARK    1  A    between atoms: O_2  and  C_27
REMARK    2  A    between atoms: O_2  and  C_28
REMARK    3  A    between atoms: N_3  and  C_13
REMARK    4  A    between atoms: N_7  and  C_26
REMARK    5  A    between atoms: C_9  and  C_14
REMARK    6  A    between atoms: C_13  and  C_15
REMARK    7  A    between atoms: C_16  and  C_19
REMARK    8  A    between atoms: C_26  and  C_27
REMARK                            x       y       z     vdW  Elec       q    Type
REMARK                         _______ _______ _______ _____ _____    ______ ____
ROOT
ATOM      1  O   UNL     1      13.279   8.273  16.124  0.00  0.00    -0.336 OA
ATOM      4  N   UNL     1      14.055   9.820  17.546  0.00  0.00    -0.190 NA
ATOM      5  N   UNL     1      14.001   9.188  15.348  0.00  0.00    -0.056 NA
ATOM     14  C   UNL     1      13.361   8.720  17.405  0.00  0.00    +0.245 A 
ATOM     16  C   UNL     1      14.427  10.070  16.257  0.00  0.00    +0.202 A 
ENDROOT
BRANCH  16  19
ATOM      7  N   UNL     1      16.499  12.909  12.926  0.00  0.00    -0.327 N 
ATOM      8  N   UNL     1      16.778  13.435  15.234  0.00  0.00    -0.240 NA
ATOM     19  C   UNL     1      15.225  11.211  15.910  0.00  0.00    +0.027 A 
ATOM     22  C   UNL     1      15.476  11.507  14.575  0.00  0.00    +0.055 A 
ATOM     23  C   UNL     1      15.750  12.025  16.908  0.00  0.00    +0.031 A 
ATOM     24  C   UNL     1      16.251  12.620  14.292  0.00  0.00    +0.119 A 
ATOM     25  C   UNL     1      16.512  13.114  16.520  0.00  0.00    +0.113 A 
ATOM     29  H   UNL     1      17.065  13.727  12.733  0.00  0.00    +0.148 HD
BRANCH   7  26
ATOM     26  C   UNL     1      15.987  12.106  11.865  0.00  0.00    +0.131 C 
BRANCH  26  27
ATOM     27  C   UNL     1      14.738  12.747  11.285  0.00  0.00    +0.178 C 
BRANCH  27   2
ATOM      2  O   UNL     1      13.589  12.039  11.735  0.00  0.00    -0.381 OA
ATOM     28  C   UNL     1      12.463  12.294  10.906  0.00  0.00    +0.194 C 
ENDBRANCH  27   2
ENDBRANCH  26  27
ENDBRANCH   7  26
ENDBRANCH  16  19
BRANCH  14   9
ATOM      3  N   UNL     1      13.364   7.881  19.748  0.00  0.00    -0.287 NA
ATOM      9  C   UNL     1      12.651   7.891  18.455  0.00  0.00    +0.146 C 
ATOM     10  C   UNL     1      11.246   8.428  18.787  0.00  0.00    +0.030 C 
ATOM     11  C   UNL     1      11.246   8.633  20.296  0.00  0.00    +0.017 C 
ATOM     12  C   UNL     1      12.344   7.709  20.782  0.00  0.00    +0.085 C 
BRANCH   3  13
ATOM     13  C   UNL     1      14.400   6.859  19.824  0.00  0.00    +0.120 C 
BRANCH  13  15
ATOM      6  N   UNL     1      18.106   8.442  21.329  0.00  0.00    -0.263 NA
ATOM     15  C   UNL     1      15.698   7.414  20.351  0.00  0.00    -0.030 A 
ATOM     17  C   UNL     1      16.721   6.553  20.729  0.00  0.00    +0.024 A 
ATOM     18  C   UNL     1      15.875   8.788  20.461  0.00  0.00    +0.024 A 
ATOM     20  C   UNL     1      17.895   7.112  21.208  0.00  0.00    +0.111 A 
ATOM     21  C   UNL     1      17.087   9.247  20.951  0.00  0.00    +0.111 A 
ENDBRANCH  13  15
ENDBRANCH   3  13
ENDBRANCH  14   9
TORSDOF 7
ENDMDL
MODEL 9
REMARK VINA RESULT:      -6.0     20.967     25.192
REMARK  Name = 45783280
REMARK  8 active torsions:
REMARK  status: ('A' for Active; 'I' for Inactive)
REMARK    1  A    between atoms: O_2  and  C_27
REMARK    2  A    between atoms: O_2  and  C_28
REMARK    3  A    between atoms: N_3  and  C_13
REMARK    4  A    between atoms: N_7  and  C_26
REMARK    5  A    between atoms: C_9  and  C_14
REMARK    6  A    between atoms: C_13  and  C_15
REMARK    7  A    between atoms: C_16  and  C_19
REMARK    8  A    between atoms: C_26  and  C_27
REMARK                            x       y       z     vdW  Elec       q    Type
REMARK                         _______ _______ _______ _____ _____    ______ ____
ROOT
ATOM      1  O   UNL     1     -13.765   9.448  31.354  0.00  0.00    -0.336 OA
ATOM      4  N   UNL     1     -12.246   8.074  32.260  0.00  0.00    -0.190 NA
ATOM      5  N   UNL     1     -14.484   8.375  31.897  0.00  0.00    -0.056 NA
ATOM     14  C   UNL     1     -12.456   9.191  31.612  0.00  0.00    +0.245 A 
ATOM     16  C   UNL     1     -13.519   7.608  32.412  0.00  0.00    +0.202 A 
ENDROOT
BRANCH  16  19
ATOM      7  N   UNL     1     -13.981   2.788  32.347  0.00  0.00    -0.327 N 
ATOM      8  N   UNL     1     -14.327   3.959  34.394  0.00  0.00    -0.240 NA
ATOM     19  C   UNL     1     -13.794   6.371  33.084  0.00  0.00    +0.027 A 
ATOM     22  C   UNL     1     -13.754   5.171  32.382  0.00  0.00    +0.055 A 
ATOM     23  C   UNL     1     -14.102   6.366  34.440  0.00  0.00    +0.031 A 
ATOM     24  C   UNL     1     -14.025   4.003  33.077  0.00  0.00    +0.119 A 
ATOM     25  C   UNL     1     -14.357   5.145  35.042  0.00  0.00    +0.113 A 
ATOM     29  H   UNL     1     -14.179   1.942  32.868  0.00  0.00    +0.148 HD
BRANCH   7  26
ATOM     26  C   UNL     1     -13.674   2.737  30.955  0.00  0.00    +0.131 C 
BRANCH  26  27
ATOM     27  C   UNL     1     -14.308   1.508  30.328  0.00  0.00    +0.178 C 
BRANCH  27   2
ATOM      2  O   UNL     1     -13.417   0.405  30.442  0.00  0.00    -0.381 OA
ATOM     28  C   UNL     1     -13.722  -0.611  29.497  0.00  0.00    +0.194 C 
ENDBRANCH  27   2
ENDBRANCH  26  27
ENDBRANCH   7  26
ENDBRANCH  16  19
BRANCH  14   9
ATOM      3  N   UNL     1     -11.801  10.750  29.785  0.00  0.00    -0.287 NA
ATOM      9  C   UNL     1     -11.458  10.218  31.120  0.00  0.00    +0.146 C 
ATOM     10  C   UNL     1     -11.385  11.459  32.028  0.00  0.00    +0.030 C 
ATOM     11  C   UNL     1     -11.641  12.643  31.105  0.00  0.00    +0.017 C 
ATOM     12  C   UNL     1     -11.273  12.113  29.735  0.00  0.00    +0.085 C 
BRANCH   3  13
ATOM     13  C   UNL     1     -11.299   9.926  28.693  0.00  0.00    +0.120 C 
BRANCH  13  15
ATOM      6  N   UNL     1     -13.055  11.021  24.922  0.00  0.00    -0.263 NA
ATOM     15  C   UNL     1     -11.914  10.310  27.373  0.00  0.00    -0.030 A 
ATOM     17  C   UNL     1     -11.101  10.615  26.287  0.00  0.00    +0.024 A 
ATOM     18  C   UNL     1     -13.297  10.360  27.236  0.00  0.00    +0.024 A 
ATOM     20  C   UNL     1     -11.716  10.961  25.094  0.00  0.00    +0.111 A 
ATOM     21  C   UNL     1     -13.812  10.718  26.001  0.00  0.00    +0.111 A 
ENDBRANCH  13  15
ENDBRANCH   3  13
ENDBRANCH  14   9
TORSDOF 7
ENDMDL
MODEL 10
REMARK VINA RESULT:      -6.0     27.085     29.660
REMARK  Name = 45783280
REMARK  8 active torsions:
REMARK  status: ('A' for Active; 'I' for Inactive)
REMARK    1  A    between atoms: O_2  and  C_27
REMARK    2  A    between atoms: O_2  and  C_28
REMARK    3  A    between atoms: N_3  and  C_13
REMARK    4  A    between atoms: N_7  and  C_26
REMARK    5  A    between atoms: C_9  and  C_14
REMARK    6  A    between atoms: C_13  and  C_15
REMARK    7  A    between atoms: C_16  and  C_19
REMARK    8  A    between atoms: C_26  and  C_27
REMARK                            x       y       z     vdW  Elec       q    Type
REMARK                         _______ _______ _______ _____ _____    ______ ____
ROOT
ATOM      1  O   UNL     1      12.545  11.330  20.394  0.00  0.00    -0.336 OA
ATOM      4  N   UNL     1      11.576  10.554  22.258  0.00  0.00    -0.190 NA
ATOM      5  N   UNL     1      12.484  12.413  21.280  0.00  0.00    -0.056 NA
ATOM     14  C   UNL     1      11.989  10.277  21.048  0.00  0.00    +0.245 A 
ATOM     16  C   UNL     1      11.900  11.876  22.356  0.00  0.00    +0.202 A 
ENDROOT
BRANCH  16  19
ATOM      7  N   UNL     1      13.099  13.271  26.835  0.00  0.00    -0.327 N 
ATOM      8  N   UNL     1      11.095  14.110  25.857  0.00  0.00    -0.240 NA
ATOM     19  C   UNL     1      11.626  12.633  23.543  0.00  0.00    +0.027 A 
ATOM     22  C   UNL     1      12.504  12.583  24.621  0.00  0.00    +0.055 A 
ATOM     23  C   UNL     1      10.483  13.421  23.622  0.00  0.00    +0.031 A 
ATOM     24  C   UNL     1      12.196  13.334  25.744  0.00  0.00    +0.119 A 
ATOM     25  C   UNL     1      10.265  14.134  24.789  0.00  0.00    +0.113 A 
ATOM     29  H   UNL     1      12.864  13.827  27.649  0.00  0.00    +0.148 HD
BRANCH   7  26
ATOM     26  C   UNL     1      14.284  12.478  26.808  0.00  0.00    +0.131 C 
BRANCH  26  27
ATOM     27  C   UNL     1      15.103  12.724  28.063  0.00  0.00    +0.178 C 
BRANCH  27   2
ATOM      2  O   UNL     1      14.868  11.675  28.995  0.00  0.00    -0.381 OA
ATOM     28  C   UNL     1      14.559  12.184  30.285  0.00  0.00    +0.194 C 
ENDBRANCH  27   2
ENDBRANCH  26  27
ENDBRANCH   7  26
ENDBRANCH  16  19
BRANCH  14   9
ATOM      3  N   UNL     1      13.159   8.157  20.471  0.00  0.00    -0.287 NA
ATOM      9  C   UNL     1      11.936   8.966  20.292  0.00  0.00    +0.146 C 
ATOM     10  C   UNL     1      10.790   8.052  20.765  0.00  0.00    +0.030 C 
ATOM     11  C   UNL     1      11.458   6.734  21.133  0.00  0.00    +0.017 C 
ATOM     12  C   UNL     1      12.751   6.757  20.343  0.00  0.00    +0.085 C 
BRANCH   3  13
ATOM     13  C   UNL     1      14.220   8.506  19.535  0.00  0.00    +0.120 C 
BRANCH  13  15
ATOM      6  N   UNL     1      17.952   6.640  20.575  0.00  0.00    -0.263 NA
ATOM     15  C   UNL     1      15.527   7.853  19.899  0.00  0.00    -0.030 A 
ATOM     17  C   UNL     1      16.267   8.325  20.977  0.00  0.00    +0.024 A 
ATOM     18  C   UNL     1      15.998   6.774  19.158  0.00  0.00    +0.024 A 
ATOM     20  C   UNL     1      17.462   7.689  21.271  0.00  0.00    +0.111 A 
ATOM     21  C   UNL     1      17.204   6.208  19.534  0.00  0.00    +0.111 A 
ENDBRANCH  13  15
ENDBRANCH   3  13
ENDBRANCH  14   9
TORSDOF 7
ENDMDL
