REMARK  Name = 45784128
REMARK  10 active torsions:
REMARK  status: ('A' for Active; 'I' for Inactive)
REMARK    1  A    between atoms: O_1  and  C_15
REMARK    2  A    between atoms: N_5  and  C_24
REMARK    3  A    between atoms: C_7  and  C_11
REMARK    4  A    between atoms: C_9  and  C_15
REMARK    5  A    between atoms: C_10  and  C_14
REMARK    6  A    between atoms: C_11  and  C_16
REMARK    7  A    between atoms: C_11  and  C_17
REMARK    8  A    between atoms: C_12  and  C_18
REMARK    9  A    between atoms: C_14  and  C_19
REMARK   10  A    between atoms: C_20  and  C_21
REMARK                            x       y       z     vdW  Elec       q    Type
REMARK                         _______ _______ _______ _____ _____    ______ ____
ROOT
ATOM      7  C   UNL     1       2.039  -1.000  -0.202  0.00  0.00    +0.001 C 
ATOM      8  C   UNL     1       1.532   0.147  -1.090  0.00  0.00    +0.012 C 
ATOM      9  C   UNL     1       3.565  -0.872   0.028  0.00  0.00    +0.040 C 
ATOM     10  C   UNL     1       1.819   1.530  -0.475  0.00  0.00    +0.024 C 
ATOM     12  C   UNL     1       3.245   1.640   0.025  0.00  0.00    -0.073 C 
ATOM     13  C   UNL     1       4.015   0.556   0.231  0.00  0.00    -0.022 C 
ATOM     18  C   UNL     1       3.783   3.027   0.238  0.00  0.00    +0.039 C 
ENDROOT
BRANCH   7  11
ATOM     11  C   UNL     1       1.670  -2.346  -0.834  0.00  0.00    -0.013 C 
ATOM     16  C   UNL     1       0.224  -2.707  -0.510  0.00  0.00    +0.007 C 
ATOM     17  C   UNL     1       1.893  -2.305  -2.342  0.00  0.00    +0.007 C 
ENDBRANCH   7  11
BRANCH  10  14
ATOM     14  C   UNL     1       0.820   1.856   0.642  0.00  0.00    +0.105 C 
BRANCH  14  19
ATOM      2  O   UNL     1      -1.315   0.683   0.500  0.00  0.00    -0.419 OA
ATOM      3  N   UNL     1      -1.270   2.637  -0.588  0.00  0.00    -0.112 NA
ATOM      4  N   UNL     1      -2.527   2.086  -0.751  0.00  0.00    -0.106 NA
ATOM     19  C   UNL     1      -0.596   1.784   0.148  0.00  0.00    +0.218 A 
ATOM     20  C   UNL     1      -2.508   0.947  -0.100  0.00  0.00    +0.266 A 
BRANCH  20  21
ATOM      5  N   UNL     1      -3.892  -0.760   1.021  0.00  0.00    -0.329 N 
ATOM      6  N   UNL     1      -5.521  -1.085  -0.452  0.00  0.00    -0.243 NA
ATOM     21  C   UNL     1      -3.621   0.074  -0.027  0.00  0.00    +0.125 A 
ATOM     22  C   UNL     1      -4.640  -0.144  -0.923  0.00  0.00    +0.143 A 
ATOM     23  C   UNL     1      -5.042  -1.436   0.720  0.00  0.00    +0.199 A 
ATOM     24  C   UNL     1      -3.123  -0.919   2.233  0.00  0.00    +0.150 C 
ENDBRANCH  20  21
ENDBRANCH  14  19
ENDBRANCH  10  14
BRANCH   9  15
ATOM     15  C   UNL     1       4.018  -1.723   1.220  0.00  0.00    +0.163 C 
BRANCH  15   1
ATOM      1  O   UNL     1       5.429  -1.674   1.289  0.00  0.00    -0.394 OA
ATOM     25  H   UNL     1       5.699  -2.210   2.054  0.00  0.00    +0.209 HD
ENDBRANCH  15   1
ENDBRANCH   9  15
TORSDOF 6
