MODEL 1
REMARK VINA RESULT:      -6.6      0.000      0.000
REMARK  Name = 26743070
REMARK  7 active torsions:
REMARK  status: ('A' for Active; 'I' for Inactive)
REMARK    1  A    between atoms: N_6  and  C_19
REMARK    2  A    between atoms: C_8  and  C_14
REMARK    3  A    between atoms: C_9  and  C_13
REMARK    4  A    between atoms: C_13  and  C_15
REMARK    5  A    between atoms: C_14  and  C_16
REMARK    6  A    between atoms: C_18  and  C_21
REMARK    7  A    between atoms: C_19  and  C_20
REMARK                            x       y       z     vdW  Elec       q    Type
REMARK                         _______ _______ _______ _____ _____    ______ ____
ROOT
ATOM      5  N   UNL     1      15.517  10.980  13.126  0.00  0.00    -0.316 NA
ATOM      8  C   UNL     1      15.139  12.434  15.640  0.00  0.00    +0.004 C 
ATOM      9  C   UNL     1      14.947  10.900  15.553  0.00  0.00    +0.012 C 
ATOM     10  C   UNL     1      14.921  13.096  14.271  0.00  0.00    +0.019 C 
ATOM     11  C   UNL     1      15.813  10.341  14.409  0.00  0.00    +0.085 C 
ATOM     12  C   UNL     1      15.759  12.421  13.185  0.00  0.00    +0.081 C 
ATOM     33  H   UNL     1      14.547  10.808  12.864  0.00  0.00    +0.122 HD
ENDROOT
BRANCH   9  13
ATOM     13  C   UNL     1      13.484  10.468  15.388  0.00  0.00    +0.064 C 
BRANCH  13  15
ATOM      2  O   UNL     1      12.760   7.553  17.374  0.00  0.00    -0.354 OA
ATOM      7  N   UNL     1      13.212   8.169  16.213  0.00  0.00    -0.083 NA
ATOM     15  C   UNL     1      13.084   9.478  16.444  0.00  0.00    +0.085 A 
ATOM     17  C   UNL     1      12.559   9.746  17.721  0.00  0.00    +0.076 A 
ATOM     18  C   UNL     1      12.374   8.502  18.264  0.00  0.00    +0.167 A 
BRANCH  18  21
ATOM     21  C   UNL     1      11.880   8.013  19.518  0.00  0.00    +0.020 A 
ATOM     24  C   UNL     1      11.085   8.831  20.320  0.00  0.00    +0.011 A 
ATOM     25  C   UNL     1      12.193   6.720  19.935  0.00  0.00    +0.011 A 
ATOM     29  C   UNL     1      10.604   8.356  21.540  0.00  0.00    +0.001 A 
ATOM     30  C   UNL     1      11.713   6.244  21.155  0.00  0.00    +0.001 A 
ATOM     32  C   UNL     1      10.918   7.062  21.958  0.00  0.00    +0.000 A 
ENDBRANCH  18  21
ENDBRANCH  13  15
ENDBRANCH   9  13
BRANCH   8  14
ATOM     14  C   UNL     1      14.269  13.095  16.708  0.00  0.00    +0.099 C 
BRANCH  14  16
ATOM      1  O   UNL     1      16.013  13.663  18.286  0.00  0.00    -0.276 OA
ATOM      6  N   UNL     1      14.186  12.419  19.004  0.00  0.00    -0.311 N 
ATOM     16  C   UNL     1      14.939  13.109  18.066  0.00  0.00    +0.214 C 
ATOM     34  H   UNL     1      13.312  11.985  18.723  0.00  0.00    +0.149 HD
BRANCH   6  19
ATOM     19  C   UNL     1      14.588  12.270  20.384  0.00  0.00    +0.139 C 
BRANCH  19  20
ATOM      3  O   UNL     1      16.208   7.650  19.682  0.00  0.00    -0.453 OA
ATOM      4  O   UNL     1      15.206   6.863  21.727  0.00  0.00    -0.453 OA
ATOM     20  C   UNL     1      14.731  10.828  20.774  0.00  0.00    -0.027 A 
ATOM     22  C   UNL     1      15.447   9.954  19.951  0.00  0.00    +0.054 A 
ATOM     23  C   UNL     1      14.147  10.368  21.967  0.00  0.00    +0.009 A 
ATOM     26  C   UNL     1      15.554   8.638  20.352  0.00  0.00    +0.167 A 
ATOM     27  C   UNL     1      14.982   8.189  21.520  0.00  0.00    +0.166 A 
ATOM     28  C   UNL     1      14.270   9.030  22.351  0.00  0.00    +0.050 A 
ATOM     31  C   UNL     1      15.983   6.528  20.560  0.00  0.00    +0.466 C 
ENDBRANCH  19  20
ENDBRANCH   6  19
ENDBRANCH  14  16
ENDBRANCH   8  14
TORSDOF 7
ENDMDL
MODEL 2
REMARK VINA RESULT:      -6.1      5.458      8.994
REMARK  Name = 26743070
REMARK  7 active torsions:
REMARK  status: ('A' for Active; 'I' for Inactive)
REMARK    1  A    between atoms: N_6  and  C_19
REMARK    2  A    between atoms: C_8  and  C_14
REMARK    3  A    between atoms: C_9  and  C_13
REMARK    4  A    between atoms: C_13  and  C_15
REMARK    5  A    between atoms: C_14  and  C_16
REMARK    6  A    between atoms: C_18  and  C_21
REMARK    7  A    between atoms: C_19  and  C_20
REMARK                            x       y       z     vdW  Elec       q    Type
REMARK                         _______ _______ _______ _____ _____    ______ ____
ROOT
ATOM      5  N   UNL     1      19.183   9.432  21.916  0.00  0.00    -0.316 NA
ATOM      8  C   UNL     1      17.338   7.266  21.222  0.00  0.00    +0.004 C 
ATOM      9  C   UNL     1      18.817   6.987  21.583  0.00  0.00    +0.012 C 
ATOM     10  C   UNL     1      17.161   8.695  20.687  0.00  0.00    +0.019 C 
ATOM     11  C   UNL     1      19.336   8.103  22.509  0.00  0.00    +0.085 C 
ATOM     12  C   UNL     1      17.778   9.725  21.633  0.00  0.00    +0.081 C 
ATOM     33  H   UNL     1      19.725   9.497  21.056  0.00  0.00    +0.122 HD
ENDROOT
BRANCH   9  13
ATOM     13  C   UNL     1      19.733   6.826  20.362  0.00  0.00    +0.064 C 
BRANCH  13  15
ATOM      2  O   UNL     1      22.961   5.283  20.772  0.00  0.00    -0.354 OA
ATOM      7  N   UNL     1      22.139   6.326  20.360  0.00  0.00    -0.083 NA
ATOM     15  C   UNL     1      20.901   5.932  20.669  0.00  0.00    +0.085 A 
ATOM     17  C   UNL     1      20.878   4.662  21.271  0.00  0.00    +0.076 A 
ATOM     18  C   UNL     1      22.199   4.299  21.312  0.00  0.00    +0.167 A 
BRANCH  18  21
ATOM     21  C   UNL     1      22.913   3.149  21.785  0.00  0.00    +0.020 A 
ATOM     24  C   UNL     1      22.903   2.832  23.143  0.00  0.00    +0.011 A 
ATOM     25  C   UNL     1      23.616   2.347  20.888  0.00  0.00    +0.011 A 
ATOM     29  C   UNL     1      23.598   1.714  23.603  0.00  0.00    +0.001 A 
ATOM     30  C   UNL     1      24.311   1.228  21.347  0.00  0.00    +0.001 A 
ATOM     32  C   UNL     1      24.302   0.911  22.705  0.00  0.00    +0.000 A 
ENDBRANCH  18  21
ENDBRANCH  13  15
ENDBRANCH   9  13
BRANCH   8  14
ATOM     14  C   UNL     1      16.748   6.246  20.249  0.00  0.00    +0.099 C 
BRANCH  14  16
ATOM      1  O   UNL     1      15.060   7.006  18.691  0.00  0.00    -0.276 OA
ATOM      6  N   UNL     1      14.440   6.442  20.859  0.00  0.00    -0.311 N 
ATOM     16  C   UNL     1      15.343   6.611  19.819  0.00  0.00    +0.214 C 
ATOM     34  H   UNL     1      14.772   6.117  21.762  0.00  0.00    +0.149 HD
BRANCH   6  19
ATOM     19  C   UNL     1      13.028   6.717  20.730  0.00  0.00    +0.139 C 
BRANCH  19  20
ATOM      3  O   UNL     1      14.027  11.055  22.887  0.00  0.00    -0.453 OA
ATOM      4  O   UNL     1      11.704  11.488  23.359  0.00  0.00    -0.453 OA
ATOM     20  C   UNL     1      12.637   7.984  21.435  0.00  0.00    -0.027 A 
ATOM     22  C   UNL     1      13.622   8.903  21.808  0.00  0.00    +0.054 A 
ATOM     23  C   UNL     1      11.282   8.237  21.711  0.00  0.00    +0.009 A 
ATOM     26  C   UNL     1      13.214  10.053  22.451  0.00  0.00    +0.167 A 
ATOM     27  C   UNL     1      11.888  10.301  22.721  0.00  0.00    +0.166 A 
ATOM     28  C   UNL     1      10.896   9.411  22.364  0.00  0.00    +0.050 A 
ATOM     31  C   UNL     1      13.063  11.960  23.461  0.00  0.00    +0.466 C 
ENDBRANCH  19  20
ENDBRANCH   6  19
ENDBRANCH  14  16
ENDBRANCH   8  14
TORSDOF 7
ENDMDL
MODEL 3
REMARK VINA RESULT:      -5.9      1.288      2.042
REMARK  Name = 26743070
REMARK  7 active torsions:
REMARK  status: ('A' for Active; 'I' for Inactive)
REMARK    1  A    between atoms: N_6  and  C_19
REMARK    2  A    between atoms: C_8  and  C_14
REMARK    3  A    between atoms: C_9  and  C_13
REMARK    4  A    between atoms: C_13  and  C_15
REMARK    5  A    between atoms: C_14  and  C_16
REMARK    6  A    between atoms: C_18  and  C_21
REMARK    7  A    between atoms: C_19  and  C_20
REMARK                            x       y       z     vdW  Elec       q    Type
REMARK                         _______ _______ _______ _____ _____    ______ ____
ROOT
ATOM      5  N   UNL     1      15.799  11.022  12.814  0.00  0.00    -0.316 NA
ATOM      8  C   UNL     1      14.917  13.020  14.765  0.00  0.00    +0.004 C 
ATOM      9  C   UNL     1      14.690  11.506  14.995  0.00  0.00    +0.012 C 
ATOM     10  C   UNL     1      15.041  13.337  13.267  0.00  0.00    +0.019 C 
ATOM     11  C   UNL     1      15.772  10.708  14.243  0.00  0.00    +0.085 C 
ATOM     12  C   UNL     1      16.077  12.441  12.591  0.00  0.00    +0.081 C 
ATOM     33  H   UNL     1      14.909  10.777  12.384  0.00  0.00    +0.122 HD
ENDROOT
BRANCH   9  13
ATOM     13  C   UNL     1      13.288  11.022  14.604  0.00  0.00    +0.064 C 
BRANCH  13  15
ATOM      2  O   UNL     1      11.547   8.434  16.403  0.00  0.00    -0.354 OA
ATOM      7  N   UNL     1      11.831   9.150  15.246  0.00  0.00    -0.083 NA
ATOM     15  C   UNL     1      12.740  10.057  15.615  0.00  0.00    +0.085 A 
ATOM     17  C   UNL     1      13.064   9.963  16.980  0.00  0.00    +0.076 A 
ATOM     18  C   UNL     1      12.287   8.928  17.428  0.00  0.00    +0.167 A 
BRANCH  18  21
ATOM     21  C   UNL     1      12.099   8.284  18.695  0.00  0.00    +0.020 A 
ATOM     24  C   UNL     1      12.946   7.245  19.082  0.00  0.00    +0.011 A 
ATOM     25  C   UNL     1      11.072   8.697  19.542  0.00  0.00    +0.011 A 
ATOM     29  C   UNL     1      12.764   6.619  20.315  0.00  0.00    +0.001 A 
ATOM     30  C   UNL     1      10.889   8.071  20.775  0.00  0.00    +0.001 A 
ATOM     32  C   UNL     1      11.735   7.032  21.162  0.00  0.00    +0.000 A 
ENDBRANCH  18  21
ENDBRANCH  13  15
ENDBRANCH   9  13
BRANCH   8  14
ATOM     14  C   UNL     1      13.853  13.900  15.420  0.00  0.00    +0.099 C 
BRANCH  14  16
ATOM      1  O   UNL     1      14.981  14.968  17.275  0.00  0.00    -0.276 OA
ATOM      6  N   UNL     1      13.352  13.365  17.700  0.00  0.00    -0.311 N 
ATOM     16  C   UNL     1      14.144  14.158  16.883  0.00  0.00    +0.214 C 
ATOM     34  H   UNL     1      12.692  12.716  17.281  0.00  0.00    +0.149 HD
BRANCH   6  19
ATOM     19  C   UNL     1      13.420  13.403  19.143  0.00  0.00    +0.139 C 
BRANCH  19  20
ATOM      3  O   UNL     1      13.733   9.609  22.302  0.00  0.00    -0.453 OA
ATOM      4  O   UNL     1      15.790   8.817  21.330  0.00  0.00    -0.453 OA
ATOM     20  C   UNL     1      14.084  12.179  19.705  0.00  0.00    -0.027 A 
ATOM     22  C   UNL     1      13.502  11.507  20.783  0.00  0.00    +0.054 A 
ATOM     23  C   UNL     1      15.284  11.716  19.138  0.00  0.00    +0.009 A 
ATOM     26  C   UNL     1      14.147  10.386  21.263  0.00  0.00    +0.167 A 
ATOM     27  C   UNL     1      15.322   9.934  20.709  0.00  0.00    +0.166 A 
ATOM     28  C   UNL     1      15.917  10.577  19.643  0.00  0.00    +0.050 A 
ATOM     31  C   UNL     1      14.778   8.618  22.338  0.00  0.00    +0.466 C 
ENDBRANCH  19  20
ENDBRANCH   6  19
ENDBRANCH  14  16
ENDBRANCH   8  14
TORSDOF 7
ENDMDL
MODEL 4
REMARK VINA RESULT:      -5.8      6.186      9.931
REMARK  Name = 26743070
REMARK  7 active torsions:
REMARK  status: ('A' for Active; 'I' for Inactive)
REMARK    1  A    between atoms: N_6  and  C_19
REMARK    2  A    between atoms: C_8  and  C_14
REMARK    3  A    between atoms: C_9  and  C_13
REMARK    4  A    between atoms: C_13  and  C_15
REMARK    5  A    between atoms: C_14  and  C_16
REMARK    6  A    between atoms: C_18  and  C_21
REMARK    7  A    between atoms: C_19  and  C_20
REMARK                            x       y       z     vdW  Elec       q    Type
REMARK                         _______ _______ _______ _____ _____    ______ ____
ROOT
ATOM      5  N   UNL     1      21.085   8.090  22.680  0.00  0.00    -0.316 NA
ATOM      8  C   UNL     1      18.535   7.278  21.492  0.00  0.00    +0.004 C 
ATOM      9  C   UNL     1      19.629   6.243  21.848  0.00  0.00    +0.012 C 
ATOM     10  C   UNL     1      19.146   8.666  21.249  0.00  0.00    +0.019 C 
ATOM     11  C   UNL     1      20.493   6.789  23.000  0.00  0.00    +0.085 C 
ATOM     12  C   UNL     1      20.052   9.088  22.406  0.00  0.00    +0.081 C 
ATOM     33  H   UNL     1      21.701   8.006  21.873  0.00  0.00    +0.122 HD
ENDROOT
BRANCH   9  13
ATOM     13  C   UNL     1      20.507   5.835  20.657  0.00  0.00    +0.064 C 
BRANCH  13  15
ATOM      2  O   UNL     1      23.757   4.632  21.636  0.00  0.00    -0.354 OA
ATOM      7  N   UNL     1      22.894   5.634  21.206  0.00  0.00    -0.083 NA
ATOM     15  C   UNL     1      21.701   5.041  21.104  0.00  0.00    +0.085 A 
ATOM     17  C   UNL     1      21.749   3.680  21.453  0.00  0.00    +0.076 A 
ATOM     18  C   UNL     1      23.063   3.474  21.779  0.00  0.00    +0.167 A 
BRANCH  18  21
ATOM     21  C   UNL     1      23.827   2.344  22.221  0.00  0.00    +0.020 A 
ATOM     24  C   UNL     1      23.927   2.059  23.583  0.00  0.00    +0.011 A 
ATOM     25  C   UNL     1      24.469   1.529  21.290  0.00  0.00    +0.011 A 
ATOM     29  C   UNL     1      24.669   0.959  24.012  0.00  0.00    +0.001 A 
ATOM     30  C   UNL     1      25.212   0.429  21.719  0.00  0.00    +0.001 A 
ATOM     32  C   UNL     1      25.312   0.144  23.080  0.00  0.00    +0.000 A 
ENDBRANCH  18  21
ENDBRANCH  13  15
ENDBRANCH   9  13
BRANCH   8  14
ATOM     14  C   UNL     1      17.661   6.856  20.311  0.00  0.00    +0.099 C 
BRANCH  14  16
ATOM      1  O   UNL     1      15.429   6.254  21.028  0.00  0.00    -0.276 OA
ATOM      6  N   UNL     1      15.831   8.397  20.222  0.00  0.00    -0.311 N 
ATOM     16  C   UNL     1      16.190   7.104  20.570  0.00  0.00    +0.214 C 
ATOM     34  H   UNL     1      16.531   9.027  19.842  0.00  0.00    +0.149 HD
BRANCH   6  19
ATOM     19  C   UNL     1      14.486   8.908  20.363  0.00  0.00    +0.139 C 
BRANCH  19  20
ATOM      3  O   UNL     1      10.551   8.350  17.419  0.00  0.00    -0.453 OA
ATOM      4  O   UNL     1      11.727   9.192  15.491  0.00  0.00    -0.453 OA
ATOM     20  C   UNL     1      13.779   8.996  19.041  0.00  0.00    -0.027 A 
ATOM     22  C   UNL     1      12.445   8.593  18.940  0.00  0.00    +0.054 A 
ATOM     23  C   UNL     1      14.464   9.487  17.917  0.00  0.00    +0.009 A 
ATOM     26  C   UNL     1      11.836   8.695  17.706  0.00  0.00    +0.167 A 
ATOM     27  C   UNL     1      12.507   9.175  16.606  0.00  0.00    +0.166 A 
ATOM     28  C   UNL     1      13.824   9.580  16.677  0.00  0.00    +0.050 A 
ATOM     31  C   UNL     1      10.489   8.668  16.014  0.00  0.00    +0.466 C 
ENDBRANCH  19  20
ENDBRANCH   6  19
ENDBRANCH  14  16
ENDBRANCH   8  14
TORSDOF 7
ENDMDL
MODEL 5
REMARK VINA RESULT:      -5.7     28.005     31.561
REMARK  Name = 26743070
REMARK  7 active torsions:
REMARK  status: ('A' for Active; 'I' for Inactive)
REMARK    1  A    between atoms: N_6  and  C_19
REMARK    2  A    between atoms: C_8  and  C_14
REMARK    3  A    between atoms: C_9  and  C_13
REMARK    4  A    between atoms: C_13  and  C_15
REMARK    5  A    between atoms: C_14  and  C_16
REMARK    6  A    between atoms: C_18  and  C_21
REMARK    7  A    between atoms: C_19  and  C_20
REMARK                            x       y       z     vdW  Elec       q    Type
REMARK                         _______ _______ _______ _____ _____    ______ ____
ROOT
ATOM      5  N   UNL     1     -19.456   0.183  22.363  0.00  0.00    -0.316 NA
ATOM      8  C   UNL     1     -17.671   2.426  22.961  0.00  0.00    +0.004 C 
ATOM      9  C   UNL     1     -17.780   1.203  23.903  0.00  0.00    +0.012 C 
ATOM     10  C   UNL     1     -18.952   2.598  22.130  0.00  0.00    +0.019 C 
ATOM     11  C   UNL     1     -18.203  -0.034  23.088  0.00  0.00    +0.085 C 
ATOM     12  C   UNL     1     -19.338   1.298  21.424  0.00  0.00    +0.081 C 
ATOM     33  H   UNL     1     -20.213   0.368  23.020  0.00  0.00    +0.122 HD
ENDROOT
BRANCH   9  13
ATOM     13  C   UNL     1     -18.724   1.418  25.093  0.00  0.00    +0.064 C 
BRANCH  13  15
ATOM      2  O   UNL     1     -17.563   0.132  28.248  0.00  0.00    -0.354 OA
ATOM      7  N   UNL     1     -18.387   0.086  27.130  0.00  0.00    -0.083 NA
ATOM     15  C   UNL     1     -18.032   1.145  26.397  0.00  0.00    +0.085 A 
ATOM     17  C   UNL     1     -17.001   1.889  26.997  0.00  0.00    +0.076 A 
ATOM     18  C   UNL     1     -16.743   1.209  28.158  0.00  0.00    +0.167 A 
BRANCH  18  21
ATOM     21  C   UNL     1     -15.830   1.388  29.249  0.00  0.00    +0.020 A 
ATOM     24  C   UNL     1     -15.062   2.550  29.332  0.00  0.00    +0.011 A 
ATOM     25  C   UNL     1     -15.710   0.402  30.227  0.00  0.00    +0.011 A 
ATOM     29  C   UNL     1     -14.174   2.724  30.394  0.00  0.00    +0.001 A 
ATOM     30  C   UNL     1     -14.823   0.576  31.289  0.00  0.00    +0.001 A 
ATOM     32  C   UNL     1     -14.055   1.737  31.372  0.00  0.00    +0.000 A 
ENDBRANCH  18  21
ENDBRANCH  13  15
ENDBRANCH   9  13
BRANCH   8  14
ATOM     14  C   UNL     1     -17.317   3.723  23.688  0.00  0.00    +0.099 C 
BRANCH  14  16
ATOM      1  O   UNL     1     -15.153   3.396  24.719  0.00  0.00    -0.276 OA
ATOM      6  N   UNL     1     -15.325   4.735  22.827  0.00  0.00    -0.311 N 
ATOM     16  C   UNL     1     -15.822   3.912  23.827  0.00  0.00    +0.214 C 
ATOM     34  H   UNL     1     -15.960   5.122  22.136  0.00  0.00    +0.149 HD
BRANCH   6  19
ATOM     19  C   UNL     1     -13.928   5.088  22.716  0.00  0.00    +0.139 C 
BRANCH  19  20
ATOM      3  O   UNL     1     -10.999   7.759  19.758  0.00  0.00    -0.453 OA
ATOM      4  O   UNL     1     -12.865   8.662  18.530  0.00  0.00    -0.453 OA
ATOM     20  C   UNL     1     -13.681   6.050  21.590  0.00  0.00    -0.027 A 
ATOM     22  C   UNL     1     -12.372   6.410  21.261  0.00  0.00    +0.054 A 
ATOM     23  C   UNL     1     -14.769   6.577  20.873  0.00  0.00    +0.009 A 
ATOM     26  C   UNL     1     -12.194   7.295  20.217  0.00  0.00    +0.167 A 
ATOM     27  C   UNL     1     -13.259   7.811  19.516  0.00  0.00    +0.166 A 
ATOM     28  C   UNL     1     -14.561   7.471  19.820  0.00  0.00    +0.050 A 
ATOM     31  C   UNL     1     -11.433   8.623  18.689  0.00  0.00    +0.466 C 
ENDBRANCH  19  20
ENDBRANCH   6  19
ENDBRANCH  14  16
ENDBRANCH   8  14
TORSDOF 7
ENDMDL
MODEL 6
REMARK VINA RESULT:      -5.7      2.188      3.010
REMARK  Name = 26743070
REMARK  7 active torsions:
REMARK  status: ('A' for Active; 'I' for Inactive)
REMARK    1  A    between atoms: N_6  and  C_19
REMARK    2  A    between atoms: C_8  and  C_14
REMARK    3  A    between atoms: C_9  and  C_13
REMARK    4  A    between atoms: C_13  and  C_15
REMARK    5  A    between atoms: C_14  and  C_16
REMARK    6  A    between atoms: C_18  and  C_21
REMARK    7  A    between atoms: C_19  and  C_20
REMARK                            x       y       z     vdW  Elec       q    Type
REMARK                         _______ _______ _______ _____ _____    ______ ____
ROOT
ATOM      5  N   UNL     1      15.758  11.078  12.730  0.00  0.00    -0.316 NA
ATOM      8  C   UNL     1      14.842  13.003  14.737  0.00  0.00    +0.004 C 
ATOM      9  C   UNL     1      14.698  11.478  14.952  0.00  0.00    +0.012 C 
ATOM     10  C   UNL     1      14.902  13.346  13.241  0.00  0.00    +0.019 C 
ATOM     11  C   UNL     1      15.792  10.744  14.155  0.00  0.00    +0.085 C 
ATOM     12  C   UNL     1      15.959  12.511  12.519  0.00  0.00    +0.081 C 
ATOM     33  H   UNL     1      14.868  10.794  12.325  0.00  0.00    +0.122 HD
ENDROOT
BRANCH   9  13
ATOM     13  C   UNL     1      13.309  10.930  14.598  0.00  0.00    +0.064 C 
BRANCH  13  15
ATOM      2  O   UNL     1      11.721   8.312  16.492  0.00  0.00    -0.354 OA
ATOM      7  N   UNL     1      11.968   8.997  15.308  0.00  0.00    -0.083 NA
ATOM     15  C   UNL     1      12.815   9.973  15.645  0.00  0.00    +0.085 A 
ATOM     17  C   UNL     1      13.134   9.955  17.015  0.00  0.00    +0.076 A 
ATOM     18  C   UNL     1      12.420   8.892  17.500  0.00  0.00    +0.167 A 
BRANCH  18  21
ATOM     21  C   UNL     1      12.263   8.290  18.792  0.00  0.00    +0.020 A 
ATOM     24  C   UNL     1      11.071   8.453  19.497  0.00  0.00    +0.011 A 
ATOM     25  C   UNL     1      13.301   7.540  19.343  0.00  0.00    +0.011 A 
ATOM     29  C   UNL     1      10.918   7.867  20.754  0.00  0.00    +0.001 A 
ATOM     30  C   UNL     1      13.149   6.953  20.599  0.00  0.00    +0.001 A 
ATOM     32  C   UNL     1      11.957   7.117  21.305  0.00  0.00    +0.000 A 
ENDBRANCH  18  21
ENDBRANCH  13  15
ENDBRANCH   9  13
BRANCH   8  14
ATOM     14  C   UNL     1      13.758  13.820  15.438  0.00  0.00    +0.099 C 
BRANCH  14  16
ATOM      1  O   UNL     1      15.318  14.730  17.048  0.00  0.00    -0.276 OA
ATOM      6  N   UNL     1      13.168  14.170  17.733  0.00  0.00    -0.311 N 
ATOM     16  C   UNL     1      14.194  14.295  16.808  0.00  0.00    +0.214 C 
ATOM     34  H   UNL     1      12.273  13.790  17.439  0.00  0.00    +0.149 HD
BRANCH   6  19
ATOM     19  C   UNL     1      13.306  14.547  19.121  0.00  0.00    +0.139 C 
BRANCH  19  20
ATOM      3  O   UNL     1      10.780  12.530  22.865  0.00  0.00    -0.453 OA
ATOM      4  O   UNL     1      11.901  10.409  22.633  0.00  0.00    -0.453 OA
ATOM     20  C   UNL     1      12.957  13.417  20.046  0.00  0.00    -0.027 A 
ATOM     22  C   UNL     1      11.982  13.602  21.030  0.00  0.00    +0.054 A 
ATOM     23  C   UNL     1      13.610  12.180  19.911  0.00  0.00    +0.009 A 
ATOM     26  C   UNL     1      11.693  12.534  21.855  0.00  0.00    +0.167 A 
ATOM     27  C   UNL     1      12.334  11.324  21.723  0.00  0.00    +0.166 A 
ATOM     28  C   UNL     1      13.298  11.114  20.759  0.00  0.00    +0.050 A 
ATOM     31  C   UNL     1      10.918  11.180  23.352  0.00  0.00    +0.466 C 
ENDBRANCH  19  20
ENDBRANCH   6  19
ENDBRANCH  14  16
ENDBRANCH   8  14
TORSDOF 7
ENDMDL
MODEL 7
REMARK VINA RESULT:      -5.6     26.673     30.160
REMARK  Name = 26743070
REMARK  7 active torsions:
REMARK  status: ('A' for Active; 'I' for Inactive)
REMARK    1  A    between atoms: N_6  and  C_19
REMARK    2  A    between atoms: C_8  and  C_14
REMARK    3  A    between atoms: C_9  and  C_13
REMARK    4  A    between atoms: C_13  and  C_15
REMARK    5  A    between atoms: C_14  and  C_16
REMARK    6  A    between atoms: C_18  and  C_21
REMARK    7  A    between atoms: C_19  and  C_20
REMARK                            x       y       z     vdW  Elec       q    Type
REMARK                         _______ _______ _______ _____ _____    ______ ____
ROOT
ATOM      5  N   UNL     1     -18.545   2.323  23.186  0.00  0.00    -0.316 NA
ATOM      8  C   UNL     1     -16.321   4.156  22.668  0.00  0.00    +0.004 C 
ATOM      9  C   UNL     1     -16.532   3.509  24.058  0.00  0.00    +0.012 C 
ATOM     10  C   UNL     1     -17.642   4.231  21.889  0.00  0.00    +0.019 C 
ATOM     11  C   UNL     1     -17.271   2.169  23.892  0.00  0.00    +0.085 C 
ATOM     12  C   UNL     1     -18.344   2.874  21.847  0.00  0.00    +0.081 C 
ATOM     33  H   UNL     1     -19.167   2.931  23.716  0.00  0.00    +0.122 HD
ENDROOT
BRANCH   9  13
ATOM     13  C   UNL     1     -17.265   4.413  25.058  0.00  0.00    +0.064 C 
BRANCH  13  15
ATOM      2  O   UNL     1     -16.491   4.526  28.573  0.00  0.00    -0.354 OA
ATOM      7  N   UNL     1     -17.037   5.069  27.415  0.00  0.00    -0.083 NA
ATOM     15  C   UNL     1     -16.805   4.160  26.465  0.00  0.00    +0.085 A 
ATOM     17  C   UNL     1     -16.122   3.034  26.958  0.00  0.00    +0.076 A 
ATOM     18  C   UNL     1     -15.949   3.315  28.287  0.00  0.00    +0.167 A 
BRANCH  18  21
ATOM     21  C   UNL     1     -15.344   2.630  29.392  0.00  0.00    +0.020 A 
ATOM     24  C   UNL     1     -14.378   3.272  30.166  0.00  0.00    +0.011 A 
ATOM     25  C   UNL     1     -15.721   1.322  29.693  0.00  0.00    +0.011 A 
ATOM     29  C   UNL     1     -13.789   2.606  31.241  0.00  0.00    +0.001 A 
ATOM     30  C   UNL     1     -15.133   0.655  30.767  0.00  0.00    +0.001 A 
ATOM     32  C   UNL     1     -14.167   1.297  31.542  0.00  0.00    +0.000 A 
ENDBRANCH  18  21
ENDBRANCH  13  15
ENDBRANCH   9  13
BRANCH   8  14
ATOM     14  C   UNL     1     -15.649   5.527  22.732  0.00  0.00    +0.099 C 
BRANCH  14  16
ATOM      1  O   UNL     1     -13.466   4.800  23.480  0.00  0.00    -0.276 OA
ATOM      6  N   UNL     1     -13.637   6.138  21.586  0.00  0.00    -0.311 N 
ATOM     16  C   UNL     1     -14.139   5.429  22.667  0.00  0.00    +0.214 C 
ATOM     34  H   UNL     1     -14.275   6.635  20.973  0.00  0.00    +0.149 HD
BRANCH   6  19
ATOM     19  C   UNL     1     -12.226   6.218  21.282  0.00  0.00    +0.139 C 
BRANCH  19  20
ATOM      3  O   UNL     1     -10.415   8.085  17.076  0.00  0.00    -0.453 OA
ATOM      4  O   UNL     1     -11.031  10.337  17.672  0.00  0.00    -0.453 OA
ATOM     20  C   UNL     1     -11.919   7.346  20.341  0.00  0.00    -0.027 A 
ATOM     22  C   UNL     1     -11.283   7.082  19.125  0.00  0.00    +0.054 A 
ATOM     23  C   UNL     1     -12.279   8.660  20.688  0.00  0.00    +0.009 A 
ATOM     26  C   UNL     1     -11.025   8.150  18.291  0.00  0.00    +0.167 A 
ATOM     27  C   UNL     1     -11.376   9.436  18.632  0.00  0.00    +0.166 A 
ATOM     28  C   UNL     1     -12.006   9.725  19.825  0.00  0.00    +0.050 A 
ATOM     31  C   UNL     1     -10.423   9.474  16.690  0.00  0.00    +0.466 C 
ENDBRANCH  19  20
ENDBRANCH   6  19
ENDBRANCH  14  16
ENDBRANCH   8  14
TORSDOF 7
ENDMDL
MODEL 8
REMARK VINA RESULT:      -5.6     13.813     17.097
REMARK  Name = 26743070
REMARK  7 active torsions:
REMARK  status: ('A' for Active; 'I' for Inactive)
REMARK    1  A    between atoms: N_6  and  C_19
REMARK    2  A    between atoms: C_8  and  C_14
REMARK    3  A    between atoms: C_9  and  C_13
REMARK    4  A    between atoms: C_13  and  C_15
REMARK    5  A    between atoms: C_14  and  C_16
REMARK    6  A    between atoms: C_18  and  C_21
REMARK    7  A    between atoms: C_19  and  C_20
REMARK                            x       y       z     vdW  Elec       q    Type
REMARK                         _______ _______ _______ _____ _____    ______ ____
ROOT
ATOM      5  N   UNL     1      11.596   2.829  -2.976  0.00  0.00    -0.316 NA
ATOM      8  C   UNL     1      13.437   4.687  -1.659  0.00  0.00    +0.004 C 
ATOM      9  C   UNL     1      12.421   3.843  -0.852  0.00  0.00    +0.012 C 
ATOM     10  C   UNL     1      12.956   4.896  -3.103  0.00  0.00    +0.019 C 
ATOM     11  C   UNL     1      12.097   2.553  -1.628  0.00  0.00    +0.085 C 
ATOM     12  C   UNL     1      12.580   3.570  -3.764  0.00  0.00    +0.081 C 
ATOM     33  H   UNL     1      10.728   3.360  -2.925  0.00  0.00    +0.122 HD
ENDROOT
BRANCH   9  13
ATOM     13  C   UNL     1      11.135   4.599  -0.492  0.00  0.00    +0.064 C 
BRANCH  13  15
ATOM      2  O   UNL     1      11.276   4.269   3.090  0.00  0.00    -0.354 OA
ATOM      7  N   UNL     1      11.688   3.930   1.806  0.00  0.00    -0.083 NA
ATOM     15  C   UNL     1      10.955   4.697   0.995  0.00  0.00    +0.085 A 
ATOM     17  C   UNL     1      10.071   5.531   1.702  0.00  0.00    +0.076 A 
ATOM     18  C   UNL     1      10.314   5.223   3.015  0.00  0.00    +0.167 A 
BRANCH  18  21
ATOM     21  C   UNL     1       9.788   5.675   4.270  0.00  0.00    +0.020 A 
ATOM     24  C   UNL     1      10.220   5.088   5.459  0.00  0.00    +0.011 A 
ATOM     25  C   UNL     1       8.846   6.702   4.302  0.00  0.00    +0.011 A 
ATOM     29  C   UNL     1       9.710   5.528   6.680  0.00  0.00    +0.001 A 
ATOM     30  C   UNL     1       8.335   7.143   5.523  0.00  0.00    +0.001 A 
ATOM     32  C   UNL     1       8.767   6.556   6.712  0.00  0.00    +0.000 A 
ENDBRANCH  18  21
ENDBRANCH  13  15
ENDBRANCH   9  13
BRANCH   8  14
ATOM     14  C   UNL     1      13.776   6.023  -1.000  0.00  0.00    +0.099 C 
BRANCH  14  16
ATOM      1  O   UNL     1      15.426   5.180   0.555  0.00  0.00    -0.276 OA
ATOM      6  N   UNL     1      13.699   6.523   1.340  0.00  0.00    -0.311 N 
ATOM     16  C   UNL     1      14.411   5.846   0.362  0.00  0.00    +0.214 C 
ATOM     34  H   UNL     1      12.864   7.041   1.083  0.00  0.00    +0.149 HD
BRANCH   6  19
ATOM     19  C   UNL     1      14.079   6.526   2.734  0.00  0.00    +0.139 C 
BRANCH  19  20
ATOM      3  O   UNL     1      12.214   8.147   7.020  0.00  0.00    -0.453 OA
ATOM      4  O   UNL     1      10.787   9.751   5.926  0.00  0.00    -0.453 OA
ATOM     20  C   UNL     1      13.182   7.405   3.558  0.00  0.00    -0.027 A 
ATOM     22  C   UNL     1      13.185   7.289   4.951  0.00  0.00    +0.054 A 
ATOM     23  C   UNL     1      12.349   8.340   2.921  0.00  0.00    +0.009 A 
ATOM     26  C   UNL     1      12.347   8.119   5.665  0.00  0.00    +0.167 A 
ATOM     27  C   UNL     1      11.531   9.035   5.041  0.00  0.00    +0.166 A 
ATOM     28  C   UNL     1      11.509   9.171   3.668  0.00  0.00    +0.050 A 
ATOM     31  C   UNL     1      11.225   9.183   7.177  0.00  0.00    +0.466 C 
ENDBRANCH  19  20
ENDBRANCH   6  19
ENDBRANCH  14  16
ENDBRANCH   8  14
TORSDOF 7
ENDMDL
MODEL 9
REMARK VINA RESULT:      -5.6     26.155     29.275
REMARK  Name = 26743070
REMARK  7 active torsions:
REMARK  status: ('A' for Active; 'I' for Inactive)
REMARK    1  A    between atoms: N_6  and  C_19
REMARK    2  A    between atoms: C_8  and  C_14
REMARK    3  A    between atoms: C_9  and  C_13
REMARK    4  A    between atoms: C_13  and  C_15
REMARK    5  A    between atoms: C_14  and  C_16
REMARK    6  A    between atoms: C_18  and  C_21
REMARK    7  A    between atoms: C_19  and  C_20
REMARK                            x       y       z     vdW  Elec       q    Type
REMARK                         _______ _______ _______ _____ _____    ______ ____
ROOT
ATOM      5  N   UNL     1      -4.507 -12.954  10.671  0.00  0.00    -0.316 NA
ATOM      8  C   UNL     1      -3.170 -11.262  12.652  0.00  0.00    +0.004 C 
ATOM      9  C   UNL     1      -4.148 -10.671  11.608  0.00  0.00    +0.012 C 
ATOM     10  C   UNL     1      -2.553 -12.576  12.148  0.00  0.00    +0.019 C 
ATOM     11  C   UNL     1      -5.161 -11.752  11.188  0.00  0.00    +0.085 C 
ATOM     12  C   UNL     1      -3.630 -13.553  11.678  0.00  0.00    +0.081 C 
ATOM     33  H   UNL     1      -3.965 -12.728   9.839  0.00  0.00    +0.122 HD
ENDROOT
BRANCH   9  13
ATOM     13  C   UNL     1      -3.453 -10.070  10.378  0.00  0.00    +0.064 C 
BRANCH  13  15
ATOM      2  O   UNL     1      -6.083  -8.851   8.243  0.00  0.00    -0.354 OA
ATOM      7  N   UNL     1      -5.356  -8.840   9.427  0.00  0.00    -0.083 NA
ATOM     15  C   UNL     1      -4.435  -9.795   9.275  0.00  0.00    +0.085 A 
ATOM     17  C   UNL     1      -4.531 -10.437   8.028  0.00  0.00    +0.076 A 
ATOM     18  C   UNL     1      -5.583  -9.806   7.419  0.00  0.00    +0.167 A 
BRANCH  18  21
ATOM     21  C   UNL     1      -6.237  -9.936   6.149  0.00  0.00    +0.020 A 
ATOM     24  C   UNL     1      -6.059 -11.091   5.388  0.00  0.00    +0.011 A 
ATOM     25  C   UNL     1      -7.051  -8.908   5.676  0.00  0.00    +0.011 A 
ATOM     29  C   UNL     1      -6.696 -11.217   4.153  0.00  0.00    +0.001 A 
ATOM     30  C   UNL     1      -7.688  -9.034   4.441  0.00  0.00    +0.001 A 
ATOM     32  C   UNL     1      -7.510 -10.189   3.680  0.00  0.00    +0.000 A 
ENDBRANCH  18  21
ENDBRANCH  13  15
ENDBRANCH   9  13
BRANCH   8  14
ATOM     14  C   UNL     1      -2.080 -10.282  13.086  0.00  0.00    +0.099 C 
BRANCH  14  16
ATOM      1  O   UNL     1      -0.941  -9.795  15.164  0.00  0.00    -0.276 OA
ATOM      6  N   UNL     1      -3.104 -10.643  15.221  0.00  0.00    -0.311 N 
ATOM     16  C   UNL     1      -1.950 -10.201  14.592  0.00  0.00    +0.214 C 
ATOM     34  H   UNL     1      -3.886 -10.969  14.660  0.00  0.00    +0.149 HD
BRANCH   6  19
ATOM     19  C   UNL     1      -3.258 -10.677  16.657  0.00  0.00    +0.139 C 
BRANCH  19  20
ATOM      3  O   UNL     1      -7.950  -9.363  15.803  0.00  0.00    -0.453 OA
ATOM      4  O   UNL     1      -8.612  -9.810  18.077  0.00  0.00    -0.453 OA
ATOM     20  C   UNL     1      -4.684 -10.453  17.073  0.00  0.00    -0.027 A 
ATOM     22  C   UNL     1      -5.615  -9.993  16.139  0.00  0.00    +0.054 A 
ATOM     23  C   UNL     1      -5.070 -10.714  18.399  0.00  0.00    +0.009 A 
ATOM     26  C   UNL     1      -6.913  -9.805  16.567  0.00  0.00    +0.167 A 
ATOM     27  C   UNL     1      -7.291 -10.060  17.865  0.00  0.00    +0.166 A 
ATOM     28  C   UNL     1      -6.393 -10.517  18.807  0.00  0.00    +0.050 A 
ATOM     31  C   UNL     1      -9.023  -9.369  16.767  0.00  0.00    +0.466 C 
ENDBRANCH  19  20
ENDBRANCH   6  19
ENDBRANCH  14  16
ENDBRANCH   8  14
TORSDOF 7
ENDMDL
MODEL 10
REMARK VINA RESULT:      -5.5     26.689     29.718
REMARK  Name = 26743070
REMARK  7 active torsions:
REMARK  status: ('A' for Active; 'I' for Inactive)
REMARK    1  A    between atoms: N_6  and  C_19
REMARK    2  A    between atoms: C_8  and  C_14
REMARK    3  A    between atoms: C_9  and  C_13
REMARK    4  A    between atoms: C_13  and  C_15
REMARK    5  A    between atoms: C_14  and  C_16
REMARK    6  A    between atoms: C_18  and  C_21
REMARK    7  A    between atoms: C_19  and  C_20
REMARK                            x       y       z     vdW  Elec       q    Type
REMARK                         _______ _______ _______ _____ _____    ______ ____
ROOT
ATOM      5  N   UNL     1     -10.108 -11.493  20.470  0.00  0.00    -0.316 NA
ATOM      8  C   UNL     1      -9.670 -10.451  17.769  0.00  0.00    +0.004 C 
ATOM      9  C   UNL     1      -8.638 -11.375  18.459  0.00  0.00    +0.012 C 
ATOM     10  C   UNL     1     -10.522  -9.704  18.806  0.00  0.00    +0.019 C 
ATOM     11  C   UNL     1      -9.359 -12.272  19.483  0.00  0.00    +0.085 C 
ATOM     12  C   UNL     1     -11.129 -10.666  19.827  0.00  0.00    +0.081 C 
ATOM     33  H   UNL     1      -9.475 -10.900  21.003  0.00  0.00    +0.122 HD
ENDROOT
BRANCH   9  13
ATOM     13  C   UNL     1      -7.476 -10.622  19.120  0.00  0.00    +0.064 C 
BRANCH  13  15
ATOM      2  O   UNL     1      -4.141 -11.757  18.375  0.00  0.00    -0.354 OA
ATOM      7  N   UNL     1      -5.203 -11.546  19.248  0.00  0.00    -0.083 NA
ATOM     15  C   UNL     1      -6.160 -10.992  18.499  0.00  0.00    +0.085 A 
ATOM     17  C   UNL     1      -5.764 -10.830  17.160  0.00  0.00    +0.076 A 
ATOM     18  C   UNL     1      -4.487 -11.326  17.136  0.00  0.00    +0.167 A 
BRANCH  18  21
ATOM     21  C   UNL     1      -3.485 -11.480  16.123  0.00  0.00    +0.020 A 
ATOM     24  C   UNL     1      -3.416 -12.662  15.384  0.00  0.00    +0.011 A 
ATOM     25  C   UNL     1      -2.579 -10.450  15.874  0.00  0.00    +0.011 A 
ATOM     29  C   UNL     1      -2.441 -12.812  14.398  0.00  0.00    +0.001 A 
ATOM     30  C   UNL     1      -1.604 -10.599  14.888  0.00  0.00    +0.001 A 
ATOM     32  C   UNL     1      -1.535 -11.780  14.150  0.00  0.00    +0.000 A 
ENDBRANCH  18  21
ENDBRANCH  13  15
ENDBRANCH   9  13
BRANCH   8  14
ATOM     14  C   UNL     1      -9.042  -9.473  16.777  0.00  0.00    +0.099 C 
BRANCH  14  16
ATOM      1  O   UNL     1     -10.145 -10.674  14.989  0.00  0.00    -0.276 OA
ATOM      6  N   UNL     1      -8.341  -9.293  14.494  0.00  0.00    -0.311 N 
ATOM     16  C   UNL     1      -9.261  -9.895  15.339  0.00  0.00    +0.214 C 
ATOM     34  H   UNL     1      -7.640  -8.668  14.880  0.00  0.00    +0.149 HD
BRANCH   6  19
ATOM     19  C   UNL     1      -8.317  -9.517  13.066  0.00  0.00    +0.139 C 
BRANCH  19  20
ATOM      3  O   UNL     1      -4.388  -8.446  10.259  0.00  0.00    -0.453 OA
ATOM      4  O   UNL     1      -3.127 -10.317  11.105  0.00  0.00    -0.453 OA
ATOM     20  C   UNL     1      -6.925  -9.763  12.561  0.00  0.00    -0.027 A 
ATOM     22  C   UNL     1      -6.370  -8.904  11.609  0.00  0.00    +0.054 A 
ATOM     23  C   UNL     1      -6.188 -10.854  13.054  0.00  0.00    +0.009 A 
ATOM     26  C   UNL     1      -5.086  -9.168  11.178  0.00  0.00    +0.167 A 
ATOM     27  C   UNL     1      -4.366 -10.236  11.660  0.00  0.00    +0.166 A 
ATOM     28  C   UNL     1      -4.889 -11.099  12.601  0.00  0.00    +0.050 A 
ATOM     31  C   UNL     1      -3.148  -9.179  10.218  0.00  0.00    +0.466 C 
ENDBRANCH  19  20
ENDBRANCH   6  19
ENDBRANCH  14  16
ENDBRANCH   8  14
TORSDOF 7
ENDMDL
