MODEL 1
REMARK VINA RESULT:      -6.4      0.000      0.000
REMARK  Name = 75536896
REMARK  5 active torsions:
REMARK  status: ('A' for Active; 'I' for Inactive)
REMARK    1  A    between atoms: O_2  and  C_8
REMARK    2  A    between atoms: O_2  and  C_15
REMARK    3  A    between atoms: O_4  and  C_20
REMARK    4  A    between atoms: O_4  and  C_24
REMARK    5  A    between atoms: C_13  and  C_14
REMARK                            x       y       z     vdW  Elec       q    Type
REMARK                         _______ _______ _______ _____ _____    ______ ____
ROOT
ATOM      1  O   UNL     1      10.491   8.328  22.787  0.00  0.00    -0.375 OA
ATOM      3  O   UNL     1      12.431   6.274  18.873  0.00  0.00    -0.270 OA
ATOM      5  N   UNL     1      12.495   8.058  20.393  0.00  0.00    -0.292 N 
ATOM      8  C   UNL     1      11.991  10.044  21.915  0.00  0.00    +0.218 C 
ATOM      9  C   UNL     1      12.613   9.501  20.625  0.00  0.00    +0.155 C 
ATOM     10  C   UNL     1      12.263   7.185  21.544  0.00  0.00    +0.136 C 
ATOM     11  C   UNL     1      10.549   9.587  22.124  0.00  0.00    +0.206 C 
ATOM     12  C   UNL     1      10.800   7.208  21.965  0.00  0.00    +0.179 C 
ATOM     13  C   UNL     1      12.556   7.474  19.116  0.00  0.00    +0.247 C 
ENDROOT
BRANCH  13  14
ATOM     14  C   UNL     1      12.790   8.350  17.958  0.00  0.00    +0.037 A 
ATOM     16  C   UNL     1      14.069   8.848  17.706  0.00  0.00    +0.016 A 
ATOM     17  C   UNL     1      11.732   8.687  17.113  0.00  0.00    +0.016 A 
ATOM     18  C   UNL     1      14.289   9.680  16.609  0.00  0.00    +0.046 A 
ATOM     19  C   UNL     1      11.953   9.520  16.016  0.00  0.00    +0.046 A 
ATOM     20  C   UNL     1      13.232  10.016  15.764  0.00  0.00    +0.120 A 
BRANCH  20   4
ATOM      4  O   UNL     1      13.449  10.829  14.694  0.00  0.00    -0.495 OA
ATOM     24  C   UNL     1      14.102  12.073  14.945  0.00  0.00    +0.277 C 
ENDBRANCH  20   4
ENDBRANCH  13  14
BRANCH   8   2
ATOM      2  O   UNL     1      12.020  11.469  21.818  0.00  0.00    -0.468 OA
BRANCH   2  15
ATOM      6  N   UNL     1      11.943  11.791  24.119  0.00  0.00    -0.219 NA
ATOM      7  N   UNL     1      10.151  13.914  23.731  0.00  0.00    -0.256 NA
ATOM     15  C   UNL     1      11.533  12.163  22.890  0.00  0.00    +0.234 A 
ATOM     21  C   UNL     1      10.653  13.207  22.699  0.00  0.00    +0.177 A 
ATOM     22  C   UNL     1      11.440  12.499  25.151  0.00  0.00    +0.134 A 
ATOM     23  C   UNL     1      10.561  13.542  24.960  0.00  0.00    +0.130 A 
ENDBRANCH   2  15
ENDBRANCH   8   2
TORSDOF 4
ENDMDL
MODEL 2
REMARK VINA RESULT:      -6.3      3.158      7.502
REMARK  Name = 75536896
REMARK  5 active torsions:
REMARK  status: ('A' for Active; 'I' for Inactive)
REMARK    1  A    between atoms: O_2  and  C_8
REMARK    2  A    between atoms: O_2  and  C_15
REMARK    3  A    between atoms: O_4  and  C_20
REMARK    4  A    between atoms: O_4  and  C_24
REMARK    5  A    between atoms: C_13  and  C_14
REMARK                            x       y       z     vdW  Elec       q    Type
REMARK                         _______ _______ _______ _____ _____    ______ ____
ROOT
ATOM      1  O   UNL     1      13.456   8.342  16.281  0.00  0.00    -0.375 OA
ATOM      3  O   UNL     1      13.126  12.629  18.476  0.00  0.00    -0.270 OA
ATOM      5  N   UNL     1      14.081  10.488  18.478  0.00  0.00    -0.292 N 
ATOM      8  C   UNL     1      14.559   7.981  18.428  0.00  0.00    +0.218 C 
ATOM      9  C   UNL     1      14.450   9.282  19.228  0.00  0.00    +0.155 C 
ATOM     10  C   UNL     1      14.315  10.508  17.033  0.00  0.00    +0.136 C 
ATOM     11  C   UNL     1      13.338   7.710  17.552  0.00  0.00    +0.206 C 
ATOM     12  C   UNL     1      13.225   9.746  16.290  0.00  0.00    +0.179 C 
ATOM     13  C   UNL     1      13.480  11.611  19.070  0.00  0.00    +0.247 C 
ENDROOT
BRANCH  13  14
ATOM     14  C   UNL     1      13.245  11.593  20.522  0.00  0.00    +0.037 A 
ATOM     16  C   UNL     1      12.038  11.110  21.028  0.00  0.00    +0.016 A 
ATOM     17  C   UNL     1      14.229  12.060  21.394  0.00  0.00    +0.016 A 
ATOM     18  C   UNL     1      11.815  11.094  22.405  0.00  0.00    +0.046 A 
ATOM     19  C   UNL     1      14.006  12.044  22.771  0.00  0.00    +0.046 A 
ATOM     20  C   UNL     1      12.799  11.561  23.276  0.00  0.00    +0.120 A 
BRANCH  20   4
ATOM      4  O   UNL     1      12.581  11.545  24.620  0.00  0.00    -0.495 OA
ATOM     24  C   UNL     1      11.223  11.566  25.057  0.00  0.00    +0.277 C 
ENDBRANCH  20   4
ENDBRANCH  13  14
BRANCH   8   2
ATOM      2  O   UNL     1      14.696   6.924  19.378  0.00  0.00    -0.468 OA
BRANCH   2  15
ATOM      6  N   UNL     1      16.681   5.874  18.775  0.00  0.00    -0.219 NA
ATOM      7  N   UNL     1      17.750   6.521  21.286  0.00  0.00    -0.256 NA
ATOM     15  C   UNL     1      15.972   6.553  19.700  0.00  0.00    +0.234 A 
ATOM     21  C   UNL     1      16.497   6.871  20.933  0.00  0.00    +0.177 A 
ATOM     22  C   UNL     1      17.934   5.525  19.129  0.00  0.00    +0.134 A 
ATOM     23  C   UNL     1      18.459   5.843  20.362  0.00  0.00    +0.130 A 
ENDBRANCH   2  15
ENDBRANCH   8   2
TORSDOF 4
ENDMDL
MODEL 3
REMARK VINA RESULT:      -6.2      3.940      6.954
REMARK  Name = 75536896
REMARK  5 active torsions:
REMARK  status: ('A' for Active; 'I' for Inactive)
REMARK    1  A    between atoms: O_2  and  C_8
REMARK    2  A    between atoms: O_2  and  C_15
REMARK    3  A    between atoms: O_4  and  C_20
REMARK    4  A    between atoms: O_4  and  C_24
REMARK    5  A    between atoms: C_13  and  C_14
REMARK                            x       y       z     vdW  Elec       q    Type
REMARK                         _______ _______ _______ _____ _____    ______ ____
ROOT
ATOM      1  O   UNL     1      11.157   8.773  18.015  0.00  0.00    -0.375 OA
ATOM      3  O   UNL     1      13.698   7.824  22.009  0.00  0.00    -0.270 OA
ATOM      5  N   UNL     1      13.650   8.870  19.911  0.00  0.00    -0.292 N 
ATOM      8  C   UNL     1      13.422   9.476  17.442  0.00  0.00    +0.218 C 
ATOM      9  C   UNL     1      14.322   9.155  18.639  0.00  0.00    +0.155 C 
ATOM     10  C   UNL     1      12.287   9.366  20.104  0.00  0.00    +0.136 C 
ATOM     11  C   UNL     1      12.307   8.454  17.238  0.00  0.00    +0.206 C 
ATOM     12  C   UNL     1      11.273   8.473  19.402  0.00  0.00    +0.179 C 
ATOM     13  C   UNL     1      14.235   8.113  20.940  0.00  0.00    +0.247 C 
ENDROOT
BRANCH  13  14
ATOM     14  C   UNL     1      15.606   7.615  20.748  0.00  0.00    +0.037 A 
ATOM     16  C   UNL     1      15.842   6.527  19.906  0.00  0.00    +0.016 A 
ATOM     17  C   UNL     1      16.670   8.228  21.408  0.00  0.00    +0.016 A 
ATOM     18  C   UNL     1      17.141   6.055  19.725  0.00  0.00    +0.046 A 
ATOM     19  C   UNL     1      17.970   7.755  21.227  0.00  0.00    +0.046 A 
ATOM     20  C   UNL     1      18.205   6.668  20.385  0.00  0.00    +0.120 A 
BRANCH  20   4
ATOM      4  O   UNL     1      19.473   6.206  20.207  0.00  0.00    -0.495 OA
ATOM     24  C   UNL     1      20.515   6.883  20.910  0.00  0.00    +0.277 C 
ENDBRANCH  20   4
ENDBRANCH  13  14
BRANCH   8   2
ATOM      2  O   UNL     1      14.262   9.488  16.287  0.00  0.00    -0.468 OA
BRANCH   2  15
ATOM      6  N   UNL     1      13.539  10.961  14.640  0.00  0.00    -0.219 NA
ATOM      7  N   UNL     1      15.549  12.759  15.408  0.00  0.00    -0.256 NA
ATOM     15  C   UNL     1      14.397  10.686  15.642  0.00  0.00    +0.234 A 
ATOM     21  C   UNL     1      15.384  11.570  16.020  0.00  0.00    +0.177 A 
ATOM     22  C   UNL     1      13.704  12.151  14.028  0.00  0.00    +0.134 A 
ATOM     23  C   UNL     1      14.691  13.034  14.406  0.00  0.00    +0.130 A 
ENDBRANCH   2  15
ENDBRANCH   8   2
TORSDOF 4
ENDMDL
MODEL 4
REMARK VINA RESULT:      -6.1      3.717      5.522
REMARK  Name = 75536896
REMARK  5 active torsions:
REMARK  status: ('A' for Active; 'I' for Inactive)
REMARK    1  A    between atoms: O_2  and  C_8
REMARK    2  A    between atoms: O_2  and  C_15
REMARK    3  A    between atoms: O_4  and  C_20
REMARK    4  A    between atoms: O_4  and  C_24
REMARK    5  A    between atoms: C_13  and  C_14
REMARK                            x       y       z     vdW  Elec       q    Type
REMARK                         _______ _______ _______ _____ _____    ______ ____
ROOT
ATOM      1  O   UNL     1      12.778   7.326  21.962  0.00  0.00    -0.375 OA
ATOM      3  O   UNL     1      11.599   7.875  17.313  0.00  0.00    -0.270 OA
ATOM      5  N   UNL     1      13.316   7.630  18.890  0.00  0.00    -0.292 N 
ATOM      8  C   UNL     1      14.909   7.809  20.877  0.00  0.00    +0.218 C 
ATOM      9  C   UNL     1      14.626   8.061  19.393  0.00  0.00    +0.155 C 
ATOM     10  C   UNL     1      12.592   6.598  19.632  0.00  0.00    +0.136 C 
ATOM     11  C   UNL     1      13.796   8.308  21.795  0.00  0.00    +0.206 C 
ATOM     12  C   UNL     1      11.897   7.186  20.853  0.00  0.00    +0.179 C 
ATOM     13  C   UNL     1      12.707   8.184  17.752  0.00  0.00    +0.247 C 
ENDROOT
BRANCH  13  14
ATOM     14  C   UNL     1      13.435   9.220  17.004  0.00  0.00    +0.037 A 
ATOM     16  C   UNL     1      14.094   8.893  15.819  0.00  0.00    +0.016 A 
ATOM     17  C   UNL     1      13.470  10.530  17.482  0.00  0.00    +0.016 A 
ATOM     18  C   UNL     1      14.786   9.875  15.112  0.00  0.00    +0.046 A 
ATOM     19  C   UNL     1      14.162  11.513  16.775  0.00  0.00    +0.046 A 
ATOM     20  C   UNL     1      14.820  11.185  15.589  0.00  0.00    +0.120 A 
BRANCH  20   4
ATOM      4  O   UNL     1      15.496  12.144  14.898  0.00  0.00    -0.495 OA
ATOM     24  C   UNL     1      16.921  12.080  14.924  0.00  0.00    +0.277 C 
ENDBRANCH  20   4
ENDBRANCH  13  14
BRANCH   8   2
ATOM      2  O   UNL     1      16.117   8.504  21.189  0.00  0.00    -0.468 OA
BRANCH   2  15
ATOM      6  N   UNL     1      18.367   8.255  21.721  0.00  0.00    -0.219 NA
ATOM      7  N   UNL     1      18.442   5.914  20.180  0.00  0.00    -0.256 NA
ATOM     15  C   UNL     1      17.279   7.792  21.074  0.00  0.00    +0.234 A 
ATOM     21  C   UNL     1      17.315   6.641  20.317  0.00  0.00    +0.177 A 
ATOM     22  C   UNL     1      19.493   7.527  21.584  0.00  0.00    +0.134 A 
ATOM     23  C   UNL     1      19.530   6.376  20.827  0.00  0.00    +0.130 A 
ENDBRANCH   2  15
ENDBRANCH   8   2
TORSDOF 4
ENDMDL
MODEL 5
REMARK VINA RESULT:      -6.1     26.125     27.909
REMARK  Name = 75536896
REMARK  5 active torsions:
REMARK  status: ('A' for Active; 'I' for Inactive)
REMARK    1  A    between atoms: O_2  and  C_8
REMARK    2  A    between atoms: O_2  and  C_15
REMARK    3  A    between atoms: O_4  and  C_20
REMARK    4  A    between atoms: O_4  and  C_24
REMARK    5  A    between atoms: C_13  and  C_14
REMARK                            x       y       z     vdW  Elec       q    Type
REMARK                         _______ _______ _______ _____ _____    ______ ____
ROOT
ATOM      1  O   UNL     1      -8.336 -11.339  19.092  0.00  0.00    -0.375 OA
ATOM      3  O   UNL     1      -3.538 -11.828  18.871  0.00  0.00    -0.270 OA
ATOM      5  N   UNL     1      -5.436 -10.690  18.097  0.00  0.00    -0.292 N 
ATOM      8  C   UNL     1      -7.705  -9.996  17.156  0.00  0.00    +0.218 C 
ATOM      9  C   UNL     1      -6.192 -10.139  16.967  0.00  0.00    +0.155 C 
ATOM     10  C   UNL     1      -6.025 -10.606  19.434  0.00  0.00    +0.136 C 
ATOM     11  C   UNL     1      -8.370 -11.270  17.670  0.00  0.00    +0.206 C 
ATOM     12  C   UNL     1      -7.072 -11.694  19.642  0.00  0.00    +0.179 C 
ATOM     13  C   UNL     1      -4.191 -11.326  17.957  0.00  0.00    +0.247 C 
ENDROOT
BRANCH  13  14
ATOM     14  C   UNL     1      -3.598 -11.409  16.613  0.00  0.00    +0.037 A 
ATOM     16  C   UNL     1      -4.051 -12.369  15.708  0.00  0.00    +0.016 A 
ATOM     17  C   UNL     1      -2.580 -10.529  16.245  0.00  0.00    +0.016 A 
ATOM     18  C   UNL     1      -3.487 -12.448  14.435  0.00  0.00    +0.046 A 
ATOM     19  C   UNL     1      -2.016 -10.608  14.971  0.00  0.00    +0.046 A 
ATOM     20  C   UNL     1      -2.470 -11.568  14.067  0.00  0.00    +0.120 A 
BRANCH  20   4
ATOM      4  O   UNL     1      -1.920 -11.646  12.823  0.00  0.00    -0.495 OA
ATOM     24  C   UNL     1      -1.926 -10.456  12.036  0.00  0.00    +0.277 C 
ENDBRANCH  20   4
ENDBRANCH  13  14
BRANCH   8   2
ATOM      2  O   UNL     1      -8.250  -9.669  15.877  0.00  0.00    -0.468 OA
BRANCH   2  15
ATOM      6  N   UNL     1      -9.524  -8.047  16.950  0.00  0.00    -0.219 NA
ATOM      7  N   UNL     1     -11.251  -7.985  14.741  0.00  0.00    -0.256 NA
ATOM     15  C   UNL     1      -9.329  -8.829  15.869  0.00  0.00    +0.234 A 
ATOM     21  C   UNL     1     -10.177  -8.799  14.784  0.00  0.00    +0.177 A 
ATOM     22  C   UNL     1     -10.598  -7.234  16.906  0.00  0.00    +0.134 A 
ATOM     23  C   UNL     1     -11.446  -7.203  15.820  0.00  0.00    +0.130 A 
ENDBRANCH   2  15
ENDBRANCH   8   2
TORSDOF 4
ENDMDL
MODEL 6
REMARK VINA RESULT:      -6.0      2.441      6.601
REMARK  Name = 75536896
REMARK  5 active torsions:
REMARK  status: ('A' for Active; 'I' for Inactive)
REMARK    1  A    between atoms: O_2  and  C_8
REMARK    2  A    between atoms: O_2  and  C_15
REMARK    3  A    between atoms: O_4  and  C_20
REMARK    4  A    between atoms: O_4  and  C_24
REMARK    5  A    between atoms: C_13  and  C_14
REMARK                            x       y       z     vdW  Elec       q    Type
REMARK                         _______ _______ _______ _____ _____    ______ ____
ROOT
ATOM      1  O   UNL     1      13.350  10.034  15.017  0.00  0.00    -0.375 OA
ATOM      3  O   UNL     1      14.866  12.906  18.589  0.00  0.00    -0.270 OA
ATOM      5  N   UNL     1      14.387  10.719  17.893  0.00  0.00    -0.292 N 
ATOM      8  C   UNL     1      13.352   8.575  16.973  0.00  0.00    +0.218 C 
ATOM      9  C   UNL     1      13.765   9.421  18.180  0.00  0.00    +0.155 C 
ATOM     10  C   UNL     1      15.010  10.917  16.584  0.00  0.00    +0.136 C 
ATOM     11  C   UNL     1      12.522   9.350  15.952  0.00  0.00    +0.206 C 
ATOM     12  C   UNL     1      13.964  11.216  15.518  0.00  0.00    +0.179 C 
ATOM     13  C   UNL     1      14.384  11.793  18.799  0.00  0.00    +0.247 C 
ENDROOT
BRANCH  13  14
ATOM     14  C   UNL     1      13.759  11.594  20.116  0.00  0.00    +0.037 A 
ATOM     16  C   UNL     1      12.415  11.913  20.306  0.00  0.00    +0.016 A 
ATOM     17  C   UNL     1      14.512  11.088  21.175  0.00  0.00    +0.016 A 
ATOM     18  C   UNL     1      11.824  11.725  21.555  0.00  0.00    +0.046 A 
ATOM     19  C   UNL     1      13.921  10.900  22.425  0.00  0.00    +0.046 A 
ATOM     20  C   UNL     1      12.576  11.219  22.614  0.00  0.00    +0.120 A 
BRANCH  20   4
ATOM      4  O   UNL     1      11.998  11.036  23.833  0.00  0.00    -0.495 OA
ATOM     24  C   UNL     1      10.814  11.783  24.109  0.00  0.00    +0.277 C 
ENDBRANCH  20   4
ENDBRANCH  13  14
BRANCH   8   2
ATOM      2  O   UNL     1      12.575   7.489  17.478  0.00  0.00    -0.468 OA
BRANCH   2  15
ATOM      6  N   UNL     1      11.165   8.265  19.156  0.00  0.00    -0.219 NA
ATOM      7  N   UNL     1      12.711   6.889  21.049  0.00  0.00    -0.256 NA
ATOM     15  C   UNL     1      12.245   7.539  18.804  0.00  0.00    +0.234 A 
ATOM     21  C   UNL     1      13.004   6.863  19.734  0.00  0.00    +0.177 A 
ATOM     22  C   UNL     1      10.872   8.291  20.472  0.00  0.00    +0.134 A 
ATOM     23  C   UNL     1      11.631   7.615  21.402  0.00  0.00    +0.130 A 
ENDBRANCH   2  15
ENDBRANCH   8   2
TORSDOF 4
ENDMDL
MODEL 7
REMARK VINA RESULT:      -5.9     26.474     27.966
REMARK  Name = 75536896
REMARK  5 active torsions:
REMARK  status: ('A' for Active; 'I' for Inactive)
REMARK    1  A    between atoms: O_2  and  C_8
REMARK    2  A    between atoms: O_2  and  C_15
REMARK    3  A    between atoms: O_4  and  C_20
REMARK    4  A    between atoms: O_4  and  C_24
REMARK    5  A    between atoms: C_13  and  C_14
REMARK                            x       y       z     vdW  Elec       q    Type
REMARK                         _______ _______ _______ _____ _____    ______ ____
ROOT
ATOM      1  O   UNL     1      -4.205 -12.272  15.753  0.00  0.00    -0.375 OA
ATOM      3  O   UNL     1      -1.523 -10.770  12.031  0.00  0.00    -0.270 OA
ATOM      5  N   UNL     1      -3.500 -10.506  13.263  0.00  0.00    -0.292 N 
ATOM      8  C   UNL     1      -5.705 -10.799  14.515  0.00  0.00    +0.218 C 
ATOM      9  C   UNL     1      -4.955 -10.316  13.270  0.00  0.00    +0.155 C 
ATOM     10  C   UNL     1      -2.812 -10.661  14.545  0.00  0.00    +0.136 C 
ATOM     11  C   UNL     1      -5.352 -12.231  14.911  0.00  0.00    +0.206 C 
ATOM     12  C   UNL     1      -2.965 -12.079  15.081  0.00  0.00    +0.179 C 
ATOM     13  C   UNL     1      -2.737 -10.582  12.085  0.00  0.00    +0.247 C 
ENDROOT
BRANCH  13  14
ATOM     14  C   UNL     1      -3.428 -10.424  10.795  0.00  0.00    +0.037 A 
ATOM     16  C   UNL     1      -3.896 -11.547  10.112  0.00  0.00    +0.016 A 
ATOM     17  C   UNL     1      -3.612  -9.152  10.254  0.00  0.00    +0.016 A 
ATOM     18  C   UNL     1      -4.549 -11.397   8.889  0.00  0.00    +0.046 A 
ATOM     19  C   UNL     1      -4.265  -9.002   9.030  0.00  0.00    +0.046 A 
ATOM     20  C   UNL     1      -4.733 -10.125   8.348  0.00  0.00    +0.120 A 
BRANCH  20   4
ATOM      4  O   UNL     1      -5.371  -9.980   7.154  0.00  0.00    -0.495 OA
ATOM     24  C   UNL     1      -5.193 -11.019   6.193  0.00  0.00    +0.277 C 
ENDBRANCH  20   4
ENDBRANCH  13  14
BRANCH   8   2
ATOM      2  O   UNL     1      -7.098 -10.729  14.208  0.00  0.00    -0.468 OA
BRANCH   2  15
ATOM      6  N   UNL     1      -9.021  -9.461  14.526  0.00  0.00    -0.219 NA
ATOM      7  N   UNL     1      -8.179  -8.896  17.141  0.00  0.00    -0.256 NA
ATOM     15  C   UNL     1      -7.864  -9.944  15.024  0.00  0.00    +0.234 A 
ATOM     21  C   UNL     1      -7.451  -9.666  16.308  0.00  0.00    +0.177 A 
ATOM     22  C   UNL     1      -9.748  -8.691  15.359  0.00  0.00    +0.134 A 
ATOM     23  C   UNL     1      -9.335  -8.413  16.644  0.00  0.00    +0.130 A 
ENDBRANCH   2  15
ENDBRANCH   8   2
TORSDOF 4
ENDMDL
MODEL 8
REMARK VINA RESULT:      -5.8     24.387     26.306
REMARK  Name = 75536896
REMARK  5 active torsions:
REMARK  status: ('A' for Active; 'I' for Inactive)
REMARK    1  A    between atoms: O_2  and  C_8
REMARK    2  A    between atoms: O_2  and  C_15
REMARK    3  A    between atoms: O_4  and  C_20
REMARK    4  A    between atoms: O_4  and  C_24
REMARK    5  A    between atoms: C_13  and  C_14
REMARK                            x       y       z     vdW  Elec       q    Type
REMARK                         _______ _______ _______ _____ _____    ______ ____
ROOT
ATOM      1  O   UNL     1     -11.545  10.976  15.363  0.00  0.00    -0.375 OA
ATOM      3  O   UNL     1      -9.741   9.231  19.486  0.00  0.00    -0.270 OA
ATOM      5  N   UNL     1     -11.183   8.887  17.671  0.00  0.00    -0.292 N 
ATOM      8  C   UNL     1     -12.958   9.046  15.843  0.00  0.00    +0.218 C 
ATOM      9  C   UNL     1     -12.496   8.456  17.179  0.00  0.00    +0.155 C 
ATOM     10  C   UNL     1     -10.219   9.417  16.706  0.00  0.00    +0.136 C 
ATOM     11  C   UNL     1     -12.842  10.567  15.786  0.00  0.00    +0.206 C 
ATOM     12  C   UNL     1     -10.532  10.866  16.357  0.00  0.00    +0.179 C 
ATOM     13  C   UNL     1     -10.817   8.852  19.027  0.00  0.00    +0.247 C 
ENDROOT
BRANCH  13  14
ATOM     14  C   UNL     1     -11.785   8.318  19.997  0.00  0.00    +0.037 A 
ATOM     16  C   UNL     1     -11.795   6.955  20.296  0.00  0.00    +0.016 A 
ATOM     17  C   UNL     1     -12.696   9.174  20.617  0.00  0.00    +0.016 A 
ATOM     18  C   UNL     1     -12.714   6.450  21.215  0.00  0.00    +0.046 A 
ATOM     19  C   UNL     1     -13.615   8.668  21.536  0.00  0.00    +0.046 A 
ATOM     20  C   UNL     1     -13.625   7.305  21.835  0.00  0.00    +0.120 A 
BRANCH  20   4
ATOM      4  O   UNL     1     -14.522   6.811  22.732  0.00  0.00    -0.495 OA
ATOM     24  C   UNL     1     -14.357   5.451  23.131  0.00  0.00    +0.277 C 
ENDBRANCH  20   4
ENDBRANCH  13  14
BRANCH   8   2
ATOM      2  O   UNL     1     -14.328   8.676  15.682  0.00  0.00    -0.468 OA
BRANCH   2  15
ATOM      6  N   UNL     1     -15.811   7.126  14.785  0.00  0.00    -0.219 NA
ATOM      7  N   UNL     1     -13.865   6.403  12.899  0.00  0.00    -0.256 NA
ATOM     15  C   UNL     1     -14.595   7.708  14.755  0.00  0.00    +0.234 A 
ATOM     21  C   UNL     1     -13.639   7.353  13.828  0.00  0.00    +0.177 A 
ATOM     22  C   UNL     1     -16.036   6.176  13.856  0.00  0.00    +0.134 A 
ATOM     23  C   UNL     1     -15.081   5.821  12.929  0.00  0.00    +0.130 A 
ENDBRANCH   2  15
ENDBRANCH   8   2
TORSDOF 4
ENDMDL
MODEL 9
REMARK VINA RESULT:      -5.8     26.813     29.219
REMARK  Name = 75536896
REMARK  5 active torsions:
REMARK  status: ('A' for Active; 'I' for Inactive)
REMARK    1  A    between atoms: O_2  and  C_8
REMARK    2  A    between atoms: O_2  and  C_15
REMARK    3  A    between atoms: O_4  and  C_20
REMARK    4  A    between atoms: O_4  and  C_24
REMARK    5  A    between atoms: C_13  and  C_14
REMARK                            x       y       z     vdW  Elec       q    Type
REMARK                         _______ _______ _______ _____ _____    ______ ____
ROOT
ATOM      1  O   UNL     1     -11.673 -11.162  18.270  0.00  0.00    -0.375 OA
ATOM      3  O   UNL     1      -7.405 -12.283  20.227  0.00  0.00    -0.270 OA
ATOM      5  N   UNL     1      -8.612 -10.821  18.849  0.00  0.00    -0.292 N 
ATOM      8  C   UNL     1     -10.096  -9.728  17.083  0.00  0.00    +0.218 C 
ATOM      9  C   UNL     1      -8.692 -10.059  17.598  0.00  0.00    +0.155 C 
ATOM     10  C   UNL     1      -9.762 -10.794  19.755  0.00  0.00    +0.136 C 
ATOM     11  C   UNL     1     -11.017 -10.944  17.025  0.00  0.00    +0.206 C 
ATOM     12  C   UNL     1     -10.855 -11.742  19.280  0.00  0.00    +0.179 C 
ATOM     13  C   UNL     1      -7.502 -11.605  19.205  0.00  0.00    +0.247 C 
ENDROOT
BRANCH  13  14
ATOM     14  C   UNL     1      -6.346 -11.631  18.296  0.00  0.00    +0.037 A 
ATOM     16  C   UNL     1      -6.239 -12.633  17.331  0.00  0.00    +0.016 A 
ATOM     17  C   UNL     1      -5.354 -10.656  18.401  0.00  0.00    +0.016 A 
ATOM     18  C   UNL     1      -5.142 -12.658  16.471  0.00  0.00    +0.046 A 
ATOM     19  C   UNL     1      -4.256 -10.682  17.540  0.00  0.00    +0.046 A 
ATOM     20  C   UNL     1      -4.151 -11.683  16.575  0.00  0.00    +0.120 A 
BRANCH  20   4
ATOM      4  O   UNL     1      -3.080 -11.708  15.734  0.00  0.00    -0.495 OA
ATOM     24  C   UNL     1      -2.031 -10.775  15.991  0.00  0.00    +0.277 C 
ENDBRANCH  20   4
ENDBRANCH  13  14
BRANCH   8   2
ATOM      2  O   UNL     1      -9.937  -9.200  15.765  0.00  0.00    -0.468 OA
BRANCH   2  15
ATOM      6  N   UNL     1     -10.486  -7.000  16.276  0.00  0.00    -0.219 NA
ATOM      7  N   UNL     1     -12.206  -6.947  14.061  0.00  0.00    -0.256 NA
ATOM     15  C   UNL     1     -10.646  -8.069  15.471  0.00  0.00    +0.234 A 
ATOM     21  C   UNL     1     -11.490  -8.043  14.382  0.00  0.00    +0.177 A 
ATOM     22  C   UNL     1     -11.202  -5.904  15.954  0.00  0.00    +0.134 A 
ATOM     23  C   UNL     1     -12.047  -5.877  14.866  0.00  0.00    +0.130 A 
ENDBRANCH   2  15
ENDBRANCH   8   2
TORSDOF 4
ENDMDL
MODEL 10
REMARK VINA RESULT:      -5.7     13.435     17.392
REMARK  Name = 75536896
REMARK  5 active torsions:
REMARK  status: ('A' for Active; 'I' for Inactive)
REMARK    1  A    between atoms: O_2  and  C_8
REMARK    2  A    between atoms: O_2  and  C_15
REMARK    3  A    between atoms: O_4  and  C_20
REMARK    4  A    between atoms: O_4  and  C_24
REMARK    5  A    between atoms: C_13  and  C_14
REMARK                            x       y       z     vdW  Elec       q    Type
REMARK                         _______ _______ _______ _____ _____    ______ ____
ROOT
ATOM      1  O   UNL     1       9.751   9.165   1.272  0.00  0.00    -0.375 OA
ATOM      3  O   UNL     1      11.564   5.127   3.198  0.00  0.00    -0.270 OA
ATOM      5  N   UNL     1       9.770   6.634   3.119  0.00  0.00    -0.292 N 
ATOM      8  C   UNL     1       8.238   8.675   3.123  0.00  0.00    +0.218 C 
ATOM      9  C   UNL     1       8.772   7.432   3.840  0.00  0.00    +0.155 C 
ATOM     10  C   UNL     1       9.833   6.749   1.661  0.00  0.00    +0.136 C 
ATOM     11  C   UNL     1       9.344   9.574   2.574  0.00  0.00    +0.206 C 
ATOM     12  C   UNL     1      10.581   8.009   1.243  0.00  0.00    +0.179 C 
ATOM     13  C   UNL     1      10.693   5.790   3.760  0.00  0.00    +0.247 C 
ENDROOT
BRANCH  13  14
ATOM     14  C   UNL     1      10.630   5.672   5.225  0.00  0.00    +0.037 A 
ATOM     16  C   UNL     1      11.414   6.501   6.027  0.00  0.00    +0.016 A 
ATOM     17  C   UNL     1       9.787   4.728   5.812  0.00  0.00    +0.016 A 
ATOM     18  C   UNL     1      11.354   6.388   7.415  0.00  0.00    +0.046 A 
ATOM     19  C   UNL     1       9.728   4.614   7.202  0.00  0.00    +0.046 A 
ATOM     20  C   UNL     1      10.512   5.445   8.003  0.00  0.00    +0.120 A 
BRANCH  20   4
ATOM      4  O   UNL     1      10.454   5.335   9.359  0.00  0.00    -0.495 OA
ATOM     24  C   UNL     1       9.330   4.648   9.906  0.00  0.00    +0.277 C 
ENDBRANCH  20   4
ENDBRANCH  13  14
BRANCH   8   2
ATOM      2  O   UNL     1       7.475   9.408   4.083  0.00  0.00    -0.468 OA
BRANCH   2  15
ATOM      6  N   UNL     1       5.862   9.606   2.420  0.00  0.00    -0.219 NA
ATOM      7  N   UNL     1       4.495  11.468   4.010  0.00  0.00    -0.256 NA
ATOM     15  C   UNL     1       6.314   9.974   3.636  0.00  0.00    +0.234 A 
ATOM     21  C   UNL     1       5.642  10.889   4.417  0.00  0.00    +0.177 A 
ATOM     22  C   UNL     1       4.715  10.186   2.014  0.00  0.00    +0.134 A 
ATOM     23  C   UNL     1       4.043  11.100   2.795  0.00  0.00    +0.130 A 
ENDBRANCH   2  15
ENDBRANCH   8   2
TORSDOF 4
ENDMDL
