REMARK  Name = 11911722
REMARK  7 active torsions:
REMARK  status: ('A' for Active; 'I' for Inactive)
REMARK    1  A    between atoms: N_5  and  C_12
REMARK    2  A    between atoms: N_6  and  C_13
REMARK    3  A    between atoms: N_9  and  C_28
REMARK    4  A    between atoms: N_9  and  C_31
REMARK    5  A    between atoms: N_9  and  C_32
REMARK    6  A    between atoms: C_17  and  C_18
REMARK    7  A    between atoms: C_19  and  C_23
REMARK                            x       y       z     vdW  Elec       q    Type
REMARK                         _______ _______ _______ _____ _____    ______ ____
ROOT
ATOM      5  N   UNL     1      -0.113  -3.141  -0.083  0.00  0.00    -0.306 N 
ATOM      7  N   UNL     1      -1.922  -1.669  -0.335  0.00  0.00    -0.214 NA
ATOM      8  N   UNL     1      -1.558  -3.461  -1.904  0.00  0.00    -0.223 NA
ATOM     16  C   UNL     1      -1.231  -2.745  -0.795  0.00  0.00    +0.216 A 
ATOM     19  C   UNL     1      -3.006  -1.310  -1.053  0.00  0.00    +0.076 A 
ATOM     21  C   UNL     1      -2.653  -3.047  -2.574  0.00  0.00    +0.116 A 
ATOM     22  C   UNL     1      -3.424  -1.968  -2.192  0.00  0.00    +0.048 A 
ATOM     33  H   UNL     1       0.425  -3.912  -0.464  0.00  0.00    +0.149 HD
ENDROOT
BRANCH   5  12
ATOM      2  O   UNL     1       2.620  -3.133   1.369  0.00  0.00    -0.370 OA
ATOM      3  O   UNL     1       1.279  -0.351   1.817  0.00  0.00    -0.370 OA
ATOM     10  C   UNL     1       1.234  -1.304   0.741  0.00  0.00    +0.171 C 
ATOM     11  C   UNL     1       2.619  -1.908   0.618  0.00  0.00    +0.171 C 
ATOM     12  C   UNL     1       0.353  -2.473   1.112  0.00  0.00    +0.130 C 
ATOM     13  C   UNL     1       3.525  -0.889   1.271  0.00  0.00    +0.130 C 
ATOM     14  C   UNL     1       1.301  -3.374   1.882  0.00  0.00    +0.185 C 
ATOM     15  C   UNL     1       2.619  -0.279   2.326  0.00  0.00    +0.185 C 
BRANCH  13   6
ATOM      4  O   UNL     1       5.920   0.686   1.425  0.00  0.00    -0.270 OA
ATOM      6  N   UNL     1       3.965   0.104   0.322  0.00  0.00    -0.303 N 
ATOM     17  C   UNL     1       5.144   0.818   0.482  0.00  0.00    +0.251 C 
ATOM     34  H   UNL     1       3.362   0.318  -0.467  0.00  0.00    +0.149 HD
BRANCH  17  18
ATOM      1  S   UNL     1       4.332   1.984  -1.826  0.00  0.00    -0.092 S 
ATOM     18  C   UNL     1       5.443   1.823  -0.570  0.00  0.00    +0.074 A 
ATOM     20  C   UNL     1       6.514   2.629  -0.633  0.00  0.00    +0.021 A 
ATOM     24  C   UNL     1       6.440   3.452  -1.794  0.00  0.00    +0.008 A 
ATOM     25  C   UNL     1       5.304   3.205  -2.532  0.00  0.00    +0.046 A 
ENDBRANCH  17  18
ENDBRANCH  13   6
ENDBRANCH   5  12
BRANCH  19  23
ATOM     23  C   UNL     1      -3.725  -0.165  -0.548  0.00  0.00    +0.001 A 
ATOM     26  C   UNL     1      -5.102  -0.054  -0.753  0.00  0.00    +0.012 A 
ATOM     27  C   UNL     1      -3.045   0.838   0.147  0.00  0.00    +0.012 A 
ATOM     28  C   UNL     1      -5.114   2.054   0.428  0.00  0.00    +0.029 A 
ATOM     29  C   UNL     1      -5.796   1.053  -0.266  0.00  0.00    +0.024 A 
ATOM     30  C   UNL     1      -3.739   1.946   0.634  0.00  0.00    +0.024 A 
BRANCH  28   9
ATOM      9  N   UNL     1      -5.816   3.173   0.921  0.00  0.00    -0.336 N 
ATOM     31  C   UNL     1      -5.371   3.846   2.125  0.00  0.00    +0.129 C 
ATOM     32  C   UNL     1      -6.999   3.657   0.238  0.00  0.00    +0.129 C 
ENDBRANCH  28   9
ENDBRANCH  19  23
TORSDOF 5
