MODEL 1
REMARK VINA RESULT:      -7.4      0.000      0.000
REMARK  Name = 45361473
REMARK  9 active torsions:
REMARK  status: ('A' for Active; 'I' for Inactive)
REMARK    1  A    between atoms: O_1  and  C_9
REMARK    2  A    between atoms: N_4  and  C_13
REMARK    3  A    between atoms: N_5  and  C_25
REMARK    4  A    between atoms: C_6  and  C_16
REMARK    5  A    between atoms: C_8  and  C_18
REMARK    6  A    between atoms: C_12  and  C_17
REMARK    7  A    between atoms: C_17  and  C_19
REMARK    8  A    between atoms: C_17  and  C_21
REMARK    9  A    between atoms: C_20  and  C_22
REMARK                            x       y       z     vdW  Elec       q    Type
REMARK                         _______ _______ _______ _____ _____    ______ ____
ROOT
ATOM      6  C   UNL     1      15.660  10.329  21.290  0.00  0.00    -0.027 C 
ATOM      7  C   UNL     1      15.313   8.849  21.660  0.00  0.00    +0.028 C 
ATOM      8  C   UNL     1      16.380   7.860  21.066  0.00  0.00    +0.012 C 
ATOM      9  C   UNL     1      13.832   8.515  21.324  0.00  0.00    +0.122 C 
ATOM     10  C   UNL     1      14.658  11.283  21.983  0.00  0.00    +0.007 C 
ATOM     11  C   UNL     1      17.073  10.665  21.823  0.00  0.00    +0.009 C 
ATOM     12  C   UNL     1      12.840   9.533  21.934  0.00  0.00    +0.029 C 
ATOM     13  C   UNL     1      17.805   8.252  21.547  0.00  0.00    +0.076 C 
ATOM     14  C   UNL     1      13.209  10.984  21.624  0.00  0.00    +0.007 C 
ATOM     15  C   UNL     1      18.147   9.722  21.300  0.00  0.00    +0.023 C 
ATOM     16  C   UNL     1      15.616  10.586  19.763  0.00  0.00    +0.011 C 
ATOM     18  C   UNL     1      16.116   6.386  21.417  0.00  0.00    +0.010 C 
ENDROOT
BRANCH  13   4
ATOM      3  O   UNL     1      19.584   6.352  22.844  0.00  0.00    -0.276 OA
ATOM      4  N   UNL     1      18.825   7.433  20.927  0.00  0.00    -0.312 N 
ATOM     22  C   UNL     1      19.622   6.557  21.636  0.00  0.00    +0.216 C 
ATOM     31  H   UNL     1      18.994   7.556  19.933  0.00  0.00    +0.149 HD
BRANCH  22  20
ATOM     20  C   UNL     1      20.604   5.813  20.794  0.00  0.00    +0.075 C 
ATOM     23  C   UNL     1      21.905   5.378  21.403  0.00  0.00    +0.013 C 
ATOM     24  C   UNL     1      21.882   6.488  20.394  0.00  0.00    +0.013 C 
ENDBRANCH  22  20
ENDBRANCH  13   4
BRANCH   9   1
ATOM      1  O   UNL     1      13.495   7.238  21.868  0.00  0.00    -0.391 OA
ATOM     32  H   UNL     1      14.247   6.639  21.721  0.00  0.00    +0.210 HD
ENDBRANCH   9   1
BRANCH  12  17
ATOM     17  C   UNL     1      11.399   9.262  21.482  0.00  0.00    +0.077 C 
ATOM     19  C   UNL     1      10.569   8.748  22.654  0.00  0.00    +0.017 C 
BRANCH  17  21
ATOM      2  O   UNL     1      11.106   7.085  20.461  0.00  0.00    -0.276 OA
ATOM      5  N   UNL     1      11.753   8.863  19.118  0.00  0.00    -0.312 N 
ATOM     21  C   UNL     1      11.396   8.272  20.321  0.00  0.00    +0.216 C 
ATOM     33  H   UNL     1      11.957   9.856  19.091  0.00  0.00    +0.149 HD
BRANCH   5  25
ATOM     25  C   UNL     1      11.823   8.127  17.876  0.00  0.00    +0.073 C 
ATOM     26  C   UNL     1      13.095   7.275  17.810  0.00  0.00    +0.022 C 
ATOM     27  C   UNL     1      11.723   9.068  16.671  0.00  0.00    +0.022 C 
ATOM     28  C   UNL     1      14.354   8.118  17.618  0.00  0.00    +0.002 C 
ATOM     29  C   UNL     1      12.985   9.909  16.480  0.00  0.00    +0.002 C 
ATOM     30  C   UNL     1      14.236   9.039  16.407  0.00  0.00    +0.000 C 
ENDBRANCH   5  25
ENDBRANCH  17  21
ENDBRANCH  12  17
TORSDOF 6
ENDMDL
MODEL 2
REMARK VINA RESULT:      -7.3     27.655     30.068
REMARK  Name = 45361473
REMARK  9 active torsions:
REMARK  status: ('A' for Active; 'I' for Inactive)
REMARK    1  A    between atoms: O_1  and  C_9
REMARK    2  A    between atoms: N_4  and  C_13
REMARK    3  A    between atoms: N_5  and  C_25
REMARK    4  A    between atoms: C_6  and  C_16
REMARK    5  A    between atoms: C_8  and  C_18
REMARK    6  A    between atoms: C_12  and  C_17
REMARK    7  A    between atoms: C_17  and  C_19
REMARK    8  A    between atoms: C_17  and  C_21
REMARK    9  A    between atoms: C_20  and  C_22
REMARK                            x       y       z     vdW  Elec       q    Type
REMARK                         _______ _______ _______ _____ _____    ______ ____
ROOT
ATOM      6  C   UNL     1      -3.768 -10.586  10.369  0.00  0.00    -0.027 C 
ATOM      7  C   UNL     1      -5.032 -10.304  11.249  0.00  0.00    +0.028 C 
ATOM      8  C   UNL     1      -5.807  -9.043  10.723  0.00  0.00    +0.012 C 
ATOM      9  C   UNL     1      -4.673 -10.286  12.761  0.00  0.00    +0.122 C 
ATOM     10  C   UNL     1      -3.093 -11.895  10.842  0.00  0.00    +0.007 C 
ATOM     11  C   UNL     1      -4.209 -10.788   8.901  0.00  0.00    +0.009 C 
ATOM     12  C   UNL     1      -3.906 -11.553  13.206  0.00  0.00    +0.029 C 
ATOM     13  C   UNL     1      -6.180  -9.225   9.225  0.00  0.00    +0.076 C 
ATOM     14  C   UNL     1      -2.705 -11.866  12.314  0.00  0.00    +0.007 C 
ATOM     15  C   UNL     1      -4.990  -9.606   8.345  0.00  0.00    +0.023 C 
ATOM     16  C   UNL     1      -2.729  -9.438  10.437  0.00  0.00    +0.011 C 
ATOM     18  C   UNL     1      -7.080  -8.723  11.526  0.00  0.00    +0.010 C 
ENDROOT
BRANCH  13   4
ATOM      3  O   UNL     1      -8.661  -9.042   7.719  0.00  0.00    -0.276 OA
ATOM      4  N   UNL     1      -6.794  -8.034   8.677  0.00  0.00    -0.312 N 
ATOM     22  C   UNL     1      -7.981  -8.055   7.972  0.00  0.00    +0.216 C 
ATOM     31  H   UNL     1      -6.293  -7.155   8.770  0.00  0.00    +0.149 HD
BRANCH  22  20
ATOM     20  C   UNL     1      -8.430  -6.712   7.501  0.00  0.00    +0.075 C 
ATOM     23  C   UNL     1      -9.250  -5.853   8.419  0.00  0.00    +0.013 C 
ATOM     24  C   UNL     1      -9.885  -6.486   7.216  0.00  0.00    +0.013 C 
ENDBRANCH  22  20
ENDBRANCH  13   4
BRANCH   9   1
ATOM      1  O   UNL     1      -5.873 -10.242  13.536  0.00  0.00    -0.391 OA
ATOM     32  H   UNL     1      -5.914 -11.050  14.076  0.00  0.00    +0.210 HD
ENDBRANCH   9   1
BRANCH  12  17
ATOM     17  C   UNL     1      -3.448 -11.457  14.667  0.00  0.00    +0.077 C 
ATOM     19  C   UNL     1      -1.973 -11.825  14.781  0.00  0.00    +0.017 C 
BRANCH  17  21
ATOM      2  O   UNL     1      -4.220 -13.583  15.534  0.00  0.00    -0.276 OA
ATOM      5  N   UNL     1      -5.202 -11.639  16.330  0.00  0.00    -0.312 N 
ATOM     21  C   UNL     1      -4.315 -12.357  15.543  0.00  0.00    +0.216 C 
ATOM     33  H   UNL     1      -5.198 -10.625  16.288  0.00  0.00    +0.149 HD
BRANCH   5  25
ATOM     25  C   UNL     1      -6.128 -12.271  17.242  0.00  0.00    +0.073 C 
ATOM     26  C   UNL     1      -7.364 -11.394  17.470  0.00  0.00    +0.022 C 
ATOM     27  C   UNL     1      -5.445 -12.621  18.568  0.00  0.00    +0.022 C 
ATOM     28  C   UNL     1      -7.057 -10.159  18.316  0.00  0.00    +0.002 C 
ATOM     29  C   UNL     1      -5.141 -11.383  19.413  0.00  0.00    +0.002 C 
ATOM     30  C   UNL     1      -6.387 -10.532  19.634  0.00  0.00    +0.000 C 
ENDBRANCH   5  25
ENDBRANCH  17  21
ENDBRANCH  12  17
TORSDOF 6
ENDMDL
MODEL 3
REMARK VINA RESULT:      -7.3     26.173     30.803
REMARK  Name = 45361473
REMARK  9 active torsions:
REMARK  status: ('A' for Active; 'I' for Inactive)
REMARK    1  A    between atoms: O_1  and  C_9
REMARK    2  A    between atoms: N_4  and  C_13
REMARK    3  A    between atoms: N_5  and  C_25
REMARK    4  A    between atoms: C_6  and  C_16
REMARK    5  A    between atoms: C_8  and  C_18
REMARK    6  A    between atoms: C_12  and  C_17
REMARK    7  A    between atoms: C_17  and  C_19
REMARK    8  A    between atoms: C_17  and  C_21
REMARK    9  A    between atoms: C_20  and  C_22
REMARK                            x       y       z     vdW  Elec       q    Type
REMARK                         _______ _______ _______ _____ _____    ______ ____
ROOT
ATOM      6  C   UNL     1     -15.909   6.533  21.604  0.00  0.00    -0.027 C 
ATOM      7  C   UNL     1     -14.506   6.179  22.200  0.00  0.00    +0.028 C 
ATOM      8  C   UNL     1     -13.409   6.168  21.077  0.00  0.00    +0.012 C 
ATOM      9  C   UNL     1     -14.574   4.900  23.082  0.00  0.00    +0.122 C 
ATOM     10  C   UNL     1     -16.943   6.647  22.749  0.00  0.00    +0.007 C 
ATOM     11  C   UNL     1     -15.828   7.910  20.905  0.00  0.00    +0.009 C 
ATOM     12  C   UNL     1     -15.680   4.978  24.160  0.00  0.00    +0.029 C 
ATOM     13  C   UNL     1     -13.387   7.531  20.330  0.00  0.00    +0.076 C 
ATOM     14  C   UNL     1     -17.040   5.382  23.590  0.00  0.00    +0.007 C 
ATOM     15  C   UNL     1     -14.761   7.967  19.821  0.00  0.00    +0.023 C 
ATOM     16  C   UNL     1     -16.407   5.474  20.589  0.00  0.00    +0.011 C 
ATOM     18  C   UNL     1     -11.996   5.855  21.598  0.00  0.00    +0.010 C 
ENDROOT
BRANCH  13   4
ATOM      3  O   UNL     1     -11.108   9.283  19.886  0.00  0.00    -0.276 OA
ATOM      4  N   UNL     1     -12.467   7.516  19.213  0.00  0.00    -0.312 N 
ATOM     22  C   UNL     1     -11.410   8.397  19.095  0.00  0.00    +0.216 C 
ATOM     31  H   UNL     1     -12.648   6.862  18.457  0.00  0.00    +0.149 HD
BRANCH  22  20
ATOM     20  C   UNL     1     -10.591   8.199  17.864  0.00  0.00    +0.075 C 
ATOM     23  C   UNL     1     -10.178   9.399  17.061  0.00  0.00    +0.013 C 
ATOM     24  C   UNL     1     -11.212   8.454  16.523  0.00  0.00    +0.013 C 
ENDBRANCH  22  20
ENDBRANCH  13   4
BRANCH   9   1
ATOM      1  O   UNL     1     -13.337   4.733  23.776  0.00  0.00    -0.391 OA
ATOM     32  H   UNL     1     -13.357   5.297  24.569  0.00  0.00    +0.210 HD
ENDBRANCH   9   1
BRANCH  12  17
ATOM     17  C   UNL     1     -15.818   3.659  24.930  0.00  0.00    +0.077 C 
ATOM     19  C   UNL     1     -16.623   2.655  24.113  0.00  0.00    +0.017 C 
BRANCH  17  21
ATOM      2  O   UNL     1     -17.504   4.561  26.418  0.00  0.00    -0.276 OA
ATOM      5  N   UNL     1     -15.751   3.347  27.333  0.00  0.00    -0.312 N 
ATOM     21  C   UNL     1     -16.465   3.916  26.288  0.00  0.00    +0.216 C 
ATOM     33  H   UNL     1     -14.913   2.814  27.132  0.00  0.00    +0.149 HD
BRANCH   5  25
ATOM     25  C   UNL     1     -16.165   3.456  28.714  0.00  0.00    +0.073 C 
ATOM     26  C   UNL     1     -14.953   3.512  29.650  0.00  0.00    +0.022 C 
ATOM     27  C   UNL     1     -17.111   2.313  29.098  0.00  0.00    +0.022 C 
ATOM     28  C   UNL     1     -14.236   2.167  29.758  0.00  0.00    +0.002 C 
ATOM     29  C   UNL     1     -16.389   0.969  29.207  0.00  0.00    +0.002 C 
ATOM     30  C   UNL     1     -15.194   1.047  30.152  0.00  0.00    +0.000 C 
ENDBRANCH   5  25
ENDBRANCH  17  21
ENDBRANCH  12  17
TORSDOF 6
ENDMDL
MODEL 4
REMARK VINA RESULT:      -7.1     27.339     29.671
REMARK  Name = 45361473
REMARK  9 active torsions:
REMARK  status: ('A' for Active; 'I' for Inactive)
REMARK    1  A    between atoms: O_1  and  C_9
REMARK    2  A    between atoms: N_4  and  C_13
REMARK    3  A    between atoms: N_5  and  C_25
REMARK    4  A    between atoms: C_6  and  C_16
REMARK    5  A    between atoms: C_8  and  C_18
REMARK    6  A    between atoms: C_12  and  C_17
REMARK    7  A    between atoms: C_17  and  C_19
REMARK    8  A    between atoms: C_17  and  C_21
REMARK    9  A    between atoms: C_20  and  C_22
REMARK                            x       y       z     vdW  Elec       q    Type
REMARK                         _______ _______ _______ _____ _____    ______ ____
ROOT
ATOM      6  C   UNL     1      -4.777 -11.038  16.765  0.00  0.00    -0.027 C 
ATOM      7  C   UNL     1      -5.607 -10.446  15.578  0.00  0.00    +0.028 C 
ATOM      8  C   UNL     1      -7.148 -10.584  15.851  0.00  0.00    +0.012 C 
ATOM      9  C   UNL     1      -5.117 -11.008  14.213  0.00  0.00    +0.122 C 
ATOM     10  C   UNL     1      -3.271 -10.785  16.518  0.00  0.00    +0.007 C 
ATOM     11  C   UNL     1      -5.169 -10.304  18.069  0.00  0.00    +0.009 C 
ATOM     12  C   UNL     1      -3.592 -10.845  14.016  0.00  0.00    +0.029 C 
ATOM     13  C   UNL     1      -7.519  -9.909  17.201  0.00  0.00    +0.076 C 
ATOM     14  C   UNL     1      -2.780 -11.368  15.201  0.00  0.00    +0.007 C 
ATOM     15  C   UNL     1      -6.659 -10.381  18.372  0.00  0.00    +0.023 C 
ATOM     16  C   UNL     1      -5.003 -12.560  16.948  0.00  0.00    +0.011 C 
ATOM     18  C   UNL     1      -8.027  -9.995  14.733  0.00  0.00    +0.010 C 
ENDROOT
BRANCH  13   4
ATOM      3  O   UNL     1      -9.591  -7.890  17.503  0.00  0.00    -0.276 OA
ATOM      4  N   UNL     1      -8.911 -10.117  17.540  0.00  0.00    -0.312 N 
ATOM     22  C   UNL     1      -9.819  -9.084  17.660  0.00  0.00    +0.216 C 
ATOM     31  H   UNL     1      -9.212 -11.063  17.753  0.00  0.00    +0.149 HD
BRANCH  22  20
ATOM     20  C   UNL     1     -11.199  -9.528  18.015  0.00  0.00    +0.075 C 
ATOM     23  C   UNL     1     -11.500  -9.910  19.434  0.00  0.00    +0.013 C 
ATOM     24  C   UNL     1     -11.435 -10.966  18.371  0.00  0.00    +0.013 C 
ENDBRANCH  22  20
ENDBRANCH  13   4
BRANCH   9   1
ATOM      1  O   UNL     1      -5.745 -10.290  13.149  0.00  0.00    -0.391 OA
ATOM     32  H   UNL     1      -5.219 -10.425  12.341  0.00  0.00    +0.210 HD
ENDBRANCH   9   1
BRANCH  12  17
ATOM     17  C   UNL     1      -3.110 -11.521  12.726  0.00  0.00    +0.077 C 
ATOM     19  C   UNL     1      -1.829 -12.304  12.990  0.00  0.00    +0.017 C 
BRANCH  17  21
ATOM      2  O   UNL     1      -1.857  -9.845  11.506  0.00  0.00    -0.276 OA
ATOM      5  N   UNL     1      -4.024 -10.318  10.830  0.00  0.00    -0.312 N 
ATOM     21  C   UNL     1      -2.906 -10.472  11.636  0.00  0.00    +0.216 C 
ATOM     33  H   UNL     1      -4.842 -10.894  10.997  0.00  0.00    +0.149 HD
BRANCH   5  25
ATOM     25  C   UNL     1      -4.073  -9.382   9.729  0.00  0.00    +0.073 C 
ATOM     26  C   UNL     1      -5.016  -8.215  10.040  0.00  0.00    +0.022 C 
ATOM     27  C   UNL     1      -4.468 -10.084   8.426  0.00  0.00    +0.022 C 
ATOM     28  C   UNL     1      -6.486  -8.629  10.018  0.00  0.00    +0.002 C 
ATOM     29  C   UNL     1      -5.940 -10.496   8.407  0.00  0.00    +0.002 C 
ATOM     30  C   UNL     1      -6.859  -9.316   8.708  0.00  0.00    +0.000 C 
ENDBRANCH   5  25
ENDBRANCH  17  21
ENDBRANCH  12  17
TORSDOF 6
ENDMDL
MODEL 5
REMARK VINA RESULT:      -7.1     25.426     29.483
REMARK  Name = 45361473
REMARK  9 active torsions:
REMARK  status: ('A' for Active; 'I' for Inactive)
REMARK    1  A    between atoms: O_1  and  C_9
REMARK    2  A    between atoms: N_4  and  C_13
REMARK    3  A    between atoms: N_5  and  C_25
REMARK    4  A    between atoms: C_6  and  C_16
REMARK    5  A    between atoms: C_8  and  C_18
REMARK    6  A    between atoms: C_12  and  C_17
REMARK    7  A    between atoms: C_17  and  C_19
REMARK    8  A    between atoms: C_17  and  C_21
REMARK    9  A    between atoms: C_20  and  C_22
REMARK                            x       y       z     vdW  Elec       q    Type
REMARK                         _______ _______ _______ _____ _____    ______ ____
ROOT
ATOM      6  C   UNL     1     -15.222   7.444  20.168  0.00  0.00    -0.027 C 
ATOM      7  C   UNL     1     -14.090   6.566  20.798  0.00  0.00    +0.028 C 
ATOM      8  C   UNL     1     -14.552   5.959  22.171  0.00  0.00    +0.012 C 
ATOM      9  C   UNL     1     -12.735   7.328  20.825  0.00  0.00    +0.122 C 
ATOM     10  C   UNL     1     -14.779   7.931  18.768  0.00  0.00    +0.007 C 
ATOM     11  C   UNL     1     -16.490   6.577  19.984  0.00  0.00    +0.009 C 
ATOM     12  C   UNL     1     -12.347   7.903  19.443  0.00  0.00    +0.029 C 
ATOM     13  C   UNL     1     -15.868   5.153  21.989  0.00  0.00    +0.076 C 
ATOM     14  C   UNL     1     -13.472   8.712  18.797  0.00  0.00    +0.007 C 
ATOM     15  C   UNL     1     -16.970   5.941  21.281  0.00  0.00    +0.023 C 
ATOM     16  C   UNL     1     -15.569   8.678  21.038  0.00  0.00    +0.011 C 
ATOM     18  C   UNL     1     -13.496   5.059  22.834  0.00  0.00    +0.010 C 
ENDROOT
BRANCH  13   4
ATOM      3  O   UNL     1     -16.464   2.407  22.741  0.00  0.00    -0.276 OA
ATOM      4  N   UNL     1     -16.385   4.677  23.255  0.00  0.00    -0.312 N 
ATOM     22  C   UNL     1     -16.636   3.344  23.513  0.00  0.00    +0.216 C 
ATOM     31  H   UNL     1     -16.626   5.367  23.959  0.00  0.00    +0.149 HD
BRANCH  22  20
ATOM     20  C   UNL     1     -17.164   3.080  24.883  0.00  0.00    +0.075 C 
ATOM     23  C   UNL     1     -16.208   3.047  26.039  0.00  0.00    +0.013 C 
ATOM     24  C   UNL     1     -16.842   1.777  25.552  0.00  0.00    +0.013 C 
ENDBRANCH  22  20
ENDBRANCH  13   4
BRANCH   9   1
ATOM      1  O   UNL     1     -11.690   6.430  21.202  0.00  0.00    -0.391 OA
ATOM     32  H   UNL     1     -11.500   6.566  22.147  0.00  0.00    +0.210 HD
ENDBRANCH   9   1
BRANCH  12  17
ATOM     17  C   UNL     1     -11.078   8.760  19.519  0.00  0.00    +0.077 C 
ATOM     19  C   UNL     1     -11.357  10.046  20.289  0.00  0.00    +0.017 C 
BRANCH  17  21
ATOM      2  O   UNL     1     -10.316   8.169  17.297  0.00  0.00    -0.276 OA
ATOM      5  N   UNL     1     -10.414  10.413  17.875  0.00  0.00    -0.312 N 
ATOM     21  C   UNL     1     -10.564   9.055  18.113  0.00  0.00    +0.216 C 
ATOM     33  H   UNL     1     -10.662  11.076  18.601  0.00  0.00    +0.149 HD
BRANCH   5  25
ATOM     25  C   UNL     1      -9.940  10.939  16.615  0.00  0.00    +0.073 C 
ATOM     26  C   UNL     1      -9.193  12.262  16.816  0.00  0.00    +0.022 C 
ATOM     27  C   UNL     1     -11.091  11.098  15.616  0.00  0.00    +0.022 C 
ATOM     28  C   UNL     1     -10.130  13.414  17.178  0.00  0.00    +0.002 C 
ATOM     29  C   UNL     1     -12.025  12.252  15.979  0.00  0.00    +0.002 C 
ATOM     30  C   UNL     1     -11.261  13.559  16.164  0.00  0.00    +0.000 C 
ENDBRANCH   5  25
ENDBRANCH  17  21
ENDBRANCH  12  17
TORSDOF 6
ENDMDL
MODEL 6
REMARK VINA RESULT:      -6.8     14.237     18.229
REMARK  Name = 45361473
REMARK  9 active torsions:
REMARK  status: ('A' for Active; 'I' for Inactive)
REMARK    1  A    between atoms: O_1  and  C_9
REMARK    2  A    between atoms: N_4  and  C_13
REMARK    3  A    between atoms: N_5  and  C_25
REMARK    4  A    between atoms: C_6  and  C_16
REMARK    5  A    between atoms: C_8  and  C_18
REMARK    6  A    between atoms: C_12  and  C_17
REMARK    7  A    between atoms: C_17  and  C_19
REMARK    8  A    between atoms: C_17  and  C_21
REMARK    9  A    between atoms: C_20  and  C_22
REMARK                            x       y       z     vdW  Elec       q    Type
REMARK                         _______ _______ _______ _____ _____    ______ ____
ROOT
ATOM      6  C   UNL     1       9.606   6.038   5.852  0.00  0.00    -0.027 C 
ATOM      7  C   UNL     1      10.563   7.201   5.425  0.00  0.00    +0.028 C 
ATOM      8  C   UNL     1      10.084   8.569   6.033  0.00  0.00    +0.012 C 
ATOM      9  C   UNL     1      10.802   7.199   3.889  0.00  0.00    +0.122 C 
ATOM     10  C   UNL     1      10.168   4.693   5.334  0.00  0.00    +0.007 C 
ATOM     11  C   UNL     1       9.560   5.964   7.396  0.00  0.00    +0.009 C 
ATOM     12  C   UNL     1      11.264   5.821   3.361  0.00  0.00    +0.029 C 
ATOM     13  C   UNL     1       9.967   8.461   7.579  0.00  0.00    +0.076 C 
ATOM     14  C   UNL     1      10.366   4.674   3.825  0.00  0.00    +0.007 C 
ATOM     15  C   UNL     1       9.126   7.272   8.043  0.00  0.00    +0.023 C 
ATOM     16  C   UNL     1       8.168   6.220   5.306  0.00  0.00    +0.011 C 
ATOM     18  C   UNL     1      10.996   9.754   5.676  0.00  0.00    +0.010 C 
ENDROOT
BRANCH  13   4
ATOM      3  O   UNL     1      11.398  10.547   9.014  0.00  0.00    -0.276 OA
ATOM      4  N   UNL     1       9.418   9.667   8.161  0.00  0.00    -0.312 N 
ATOM     22  C   UNL     1      10.187  10.600   8.826  0.00  0.00    +0.216 C 
ATOM     31  H   UNL     1       8.411   9.797   8.123  0.00  0.00    +0.149 HD
BRANCH  22  20
ATOM     20  C   UNL     1       9.413  11.767   9.343  0.00  0.00    +0.075 C 
ATOM     23  C   UNL     1       9.903  12.483  10.567  0.00  0.00    +0.013 C 
ATOM     24  C   UNL     1       8.668  11.634  10.638  0.00  0.00    +0.013 C 
ENDBRANCH  22  20
ENDBRANCH  13   4
BRANCH   9   1
ATOM      1  O   UNL     1      11.838   8.129   3.566  0.00  0.00    -0.391 OA
ATOM     32  H   UNL     1      12.038   8.647   4.365  0.00  0.00    +0.210 HD
ENDBRANCH   9   1
BRANCH  12  17
ATOM     17  C   UNL     1      11.368   5.804   1.830  0.00  0.00    +0.077 C 
ATOM     19  C   UNL     1      10.025   5.424   1.217  0.00  0.00    +0.017 C 
BRANCH  17  21
ATOM      2  O   UNL     1      13.458   4.606   2.089  0.00  0.00    -0.276 OA
ATOM      5  N   UNL     1      12.227   4.284   0.149  0.00  0.00    -0.312 N 
ATOM     21  C   UNL     1      12.470   4.843   1.395  0.00  0.00    +0.216 C 
ATOM     33  H   UNL     1      11.374   4.521  -0.345  0.00  0.00    +0.149 HD
BRANCH   5  25
ATOM     25  C   UNL     1      13.129   3.344  -0.477  0.00  0.00    +0.073 C 
ATOM     26  C   UNL     1      14.306   4.067  -1.139  0.00  0.00    +0.022 C 
ATOM     27  C   UNL     1      12.389   2.453  -1.480  0.00  0.00    +0.022 C 
ATOM     28  C   UNL     1      13.893   4.822  -2.401  0.00  0.00    +0.002 C 
ATOM     29  C   UNL     1      11.978   3.211  -2.742  0.00  0.00    +0.002 C 
ATOM     30  C   UNL     1      13.168   3.913  -3.390  0.00  0.00    +0.000 C 
ENDBRANCH   5  25
ENDBRANCH  17  21
ENDBRANCH  12  17
TORSDOF 6
ENDMDL
MODEL 7
REMARK VINA RESULT:      -6.7     14.324     17.431
REMARK  Name = 45361473
REMARK  9 active torsions:
REMARK  status: ('A' for Active; 'I' for Inactive)
REMARK    1  A    between atoms: O_1  and  C_9
REMARK    2  A    between atoms: N_4  and  C_13
REMARK    3  A    between atoms: N_5  and  C_25
REMARK    4  A    between atoms: C_6  and  C_16
REMARK    5  A    between atoms: C_8  and  C_18
REMARK    6  A    between atoms: C_12  and  C_17
REMARK    7  A    between atoms: C_17  and  C_19
REMARK    8  A    between atoms: C_17  and  C_21
REMARK    9  A    between atoms: C_20  and  C_22
REMARK                            x       y       z     vdW  Elec       q    Type
REMARK                         _______ _______ _______ _____ _____    ______ ____
ROOT
ATOM      6  C   UNL     1       9.788   6.406   6.523  0.00  0.00    -0.027 C 
ATOM      7  C   UNL     1      10.142   7.289   5.280  0.00  0.00    +0.028 C 
ATOM      8  C   UNL     1      11.196   6.569   4.365  0.00  0.00    +0.012 C 
ATOM      9  C   UNL     1      10.506   8.740   5.705  0.00  0.00    +0.122 C 
ATOM     10  C   UNL     1       8.668   7.091   7.340  0.00  0.00    +0.007 C 
ATOM     11  C   UNL     1       9.246   5.042   6.034  0.00  0.00    +0.009 C 
ATOM     12  C   UNL     1       9.429   9.383   6.609  0.00  0.00    +0.029 C 
ATOM     13  C   UNL     1      10.673   5.168   3.941  0.00  0.00    +0.076 C 
ATOM     14  C   UNL     1       9.037   8.497   7.792  0.00  0.00    +0.007 C 
ATOM     15  C   UNL     1      10.216   4.308   5.120  0.00  0.00    +0.023 C 
ATOM     16  C   UNL     1      11.007   6.169   7.450  0.00  0.00    +0.011 C 
ATOM     18  C   UNL     1      11.569   7.370   3.106  0.00  0.00    +0.010 C 
ENDROOT
BRANCH  13   4
ATOM      3  O   UNL     1      10.408   4.044   1.272  0.00  0.00    -0.276 OA
ATOM      4  N   UNL     1      11.667   4.428   3.192  0.00  0.00    -0.312 N 
ATOM     22  C   UNL     1      11.441   3.934   1.923  0.00  0.00    +0.216 C 
ATOM     31  H   UNL     1      12.549   4.219   3.651  0.00  0.00    +0.149 HD
BRANCH  22  20
ATOM     20  C   UNL     1      12.605   3.206   1.339  0.00  0.00    +0.075 C 
ATOM     23  C   UNL     1      13.724   3.993   0.724  0.00  0.00    +0.013 C 
ATOM     24  C   UNL     1      12.793   3.203  -0.149  0.00  0.00    +0.013 C 
ENDBRANCH  22  20
ENDBRANCH  13   4
BRANCH   9   1
ATOM      1  O   UNL     1      10.612   9.566   4.544  0.00  0.00    -0.391 OA
ATOM     32  H   UNL     1       9.834   9.399   3.983  0.00  0.00    +0.210 HD
ENDBRANCH   9   1
BRANCH  12  17
ATOM     17  C   UNL     1       9.867  10.761   7.124  0.00  0.00    +0.077 C 
ATOM     19  C   UNL     1       9.686  10.839   8.636  0.00  0.00    +0.017 C 
BRANCH  17  21
ATOM      2  O   UNL     1       9.199  13.048   6.687  0.00  0.00    -0.276 OA
ATOM      5  N   UNL     1       8.225  11.351   5.441  0.00  0.00    -0.312 N 
ATOM     21  C   UNL     1       9.078  11.856   6.412  0.00  0.00    +0.216 C 
ATOM     33  H   UNL     1       8.204  10.353   5.267  0.00  0.00    +0.149 HD
BRANCH   5  25
ATOM     25  C   UNL     1       7.373  12.195   4.634  0.00  0.00    +0.073 C 
ATOM     26  C   UNL     1       5.912  11.735   4.709  0.00  0.00    +0.022 C 
ATOM     27  C   UNL     1       7.864  12.248   3.183  0.00  0.00    +0.022 C 
ATOM     28  C   UNL     1       5.672  10.426   3.959  0.00  0.00    +0.002 C 
ATOM     29  C   UNL     1       7.620  10.937   2.435  0.00  0.00    +0.002 C 
ATOM     30  C   UNL     1       6.159  10.506   2.515  0.00  0.00    +0.000 C 
ENDBRANCH   5  25
ENDBRANCH  17  21
ENDBRANCH  12  17
TORSDOF 6
ENDMDL
MODEL 8
REMARK VINA RESULT:      -6.7     26.290     29.801
REMARK  Name = 45361473
REMARK  9 active torsions:
REMARK  status: ('A' for Active; 'I' for Inactive)
REMARK    1  A    between atoms: O_1  and  C_9
REMARK    2  A    between atoms: N_4  and  C_13
REMARK    3  A    between atoms: N_5  and  C_25
REMARK    4  A    between atoms: C_6  and  C_16
REMARK    5  A    between atoms: C_8  and  C_18
REMARK    6  A    between atoms: C_12  and  C_17
REMARK    7  A    between atoms: C_17  and  C_19
REMARK    8  A    between atoms: C_17  and  C_21
REMARK    9  A    between atoms: C_20  and  C_22
REMARK                            x       y       z     vdW  Elec       q    Type
REMARK                         _______ _______ _______ _____ _____    ______ ____
ROOT
ATOM      6  C   UNL     1      -5.884 -11.553  18.558  0.00  0.00    -0.027 C 
ATOM      7  C   UNL     1      -6.013 -10.520  17.389  0.00  0.00    +0.028 C 
ATOM      8  C   UNL     1      -7.492 -10.453  16.864  0.00  0.00    +0.012 C 
ATOM      9  C   UNL     1      -4.928 -10.762  16.302  0.00  0.00    +0.122 C 
ATOM     10  C   UNL     1      -4.445 -11.512  19.126  0.00  0.00    +0.007 C 
ATOM     11  C   UNL     1      -6.850 -11.149  19.697  0.00  0.00    +0.009 C 
ATOM     12  C   UNL     1      -3.499 -10.824  16.890  0.00  0.00    +0.029 C 
ATOM     13  C   UNL     1      -8.463 -10.121  18.031  0.00  0.00    +0.076 C 
ATOM     14  C   UNL     1      -3.382 -11.787  18.072  0.00  0.00    +0.007 C 
ATOM     15  C   UNL     1      -8.298 -11.042  19.240  0.00  0.00    +0.023 C 
ATOM     16  C   UNL     1      -6.200 -13.001  18.110  0.00  0.00    +0.011 C 
ATOM     18  C   UNL     1      -7.697  -9.435  15.730  0.00  0.00    +0.010 C 
ENDROOT
BRANCH  13   4
ATOM      3  O   UNL     1     -10.285  -7.880  17.689  0.00  0.00    -0.276 OA
ATOM      4  N   UNL     1      -9.846 -10.165  17.606  0.00  0.00    -0.312 N 
ATOM     22  C   UNL     1     -10.630  -9.036  17.475  0.00  0.00    +0.216 C 
ATOM     31  H   UNL     1     -10.268 -11.076  17.455  0.00  0.00    +0.149 HD
BRANCH  22  20
ATOM     20  C   UNL     1     -12.024  -9.315  17.022  0.00  0.00    +0.075 C 
ATOM     23  C   UNL     1     -13.093  -9.544  18.050  0.00  0.00    +0.013 C 
ATOM     24  C   UNL     1     -12.595 -10.689  17.218  0.00  0.00    +0.013 C 
ENDBRANCH  22  20
ENDBRANCH  13   4
BRANCH   9   1
ATOM      1  O   UNL     1      -4.938  -9.681  15.368  0.00  0.00    -0.391 OA
ATOM     32  H   UNL     1      -4.200  -9.810  14.747  0.00  0.00    +0.210 HD
ENDBRANCH   9   1
BRANCH  12  17
ATOM     17  C   UNL     1      -2.460 -11.193  15.824  0.00  0.00    +0.077 C 
ATOM     19  C   UNL     1      -1.725  -9.943  15.351  0.00  0.00    +0.017 C 
BRANCH  17  21
ATOM      2  O   UNL     1      -3.552 -13.066  14.743  0.00  0.00    -0.276 OA
ATOM      5  N   UNL     1      -3.233 -11.116  13.528  0.00  0.00    -0.312 N 
ATOM     21  C   UNL     1      -3.141 -11.910  14.662  0.00  0.00    +0.216 C 
ATOM     33  H   UNL     1      -2.884 -10.164  13.556  0.00  0.00    +0.149 HD
BRANCH   5  25
ATOM     25  C   UNL     1      -3.838 -11.576  12.298  0.00  0.00    +0.073 C 
ATOM     26  C   UNL     1      -2.958 -11.234  11.090  0.00  0.00    +0.022 C 
ATOM     27  C   UNL     1      -5.252 -11.009  12.132  0.00  0.00    +0.022 C 
ATOM     28  C   UNL     1      -2.958  -9.740  10.770  0.00  0.00    +0.002 C 
ATOM     29  C   UNL     1      -5.248  -9.514  11.811  0.00  0.00    +0.002 C 
ATOM     30  C   UNL     1      -4.375  -9.201  10.600  0.00  0.00    +0.000 C 
ENDBRANCH   5  25
ENDBRANCH  17  21
ENDBRANCH  12  17
TORSDOF 6
ENDMDL
MODEL 9
REMARK VINA RESULT:      -6.7     27.168     29.929
REMARK  Name = 45361473
REMARK  9 active torsions:
REMARK  status: ('A' for Active; 'I' for Inactive)
REMARK    1  A    between atoms: O_1  and  C_9
REMARK    2  A    between atoms: N_4  and  C_13
REMARK    3  A    between atoms: N_5  and  C_25
REMARK    4  A    between atoms: C_6  and  C_16
REMARK    5  A    between atoms: C_8  and  C_18
REMARK    6  A    between atoms: C_12  and  C_17
REMARK    7  A    between atoms: C_17  and  C_19
REMARK    8  A    between atoms: C_17  and  C_21
REMARK    9  A    between atoms: C_20  and  C_22
REMARK                            x       y       z     vdW  Elec       q    Type
REMARK                         _______ _______ _______ _____ _____    ______ ____
ROOT
ATOM      6  C   UNL     1      -4.230 -11.026  16.266  0.00  0.00    -0.027 C 
ATOM      7  C   UNL     1      -4.942 -10.363  15.039  0.00  0.00    +0.028 C 
ATOM      8  C   UNL     1      -6.495 -10.588  15.106  0.00  0.00    +0.012 C 
ATOM      9  C   UNL     1      -4.263 -10.777  13.702  0.00  0.00    +0.122 C 
ATOM     10  C   UNL     1      -2.721 -10.690  16.230  0.00  0.00    +0.007 C 
ATOM     11  C   UNL     1      -4.813 -10.431  17.569  0.00  0.00    +0.009 C 
ATOM     12  C   UNL     1      -2.735 -10.535  13.711  0.00  0.00    +0.029 C 
ATOM     13  C   UNL     1      -7.059 -10.055  16.452  0.00  0.00    +0.076 C 
ATOM     14  C   UNL     1      -2.045 -11.129  14.939  0.00  0.00    +0.007 C 
ATOM     15  C   UNL     1      -6.322 -10.596  17.677  0.00  0.00    +0.023 C 
ATOM     16  C   UNL     1      -4.396 -12.566  16.288  0.00  0.00    +0.011 C 
ATOM     18  C   UNL     1      -7.262  -9.937  13.942  0.00  0.00    +0.010 C 
ENDROOT
BRANCH  13   4
ATOM      3  O   UNL     1      -9.161  -8.263  17.362  0.00  0.00    -0.276 OA
ATOM      4  N   UNL     1      -8.469 -10.350  16.597  0.00  0.00    -0.312 N 
ATOM     22  C   UNL     1      -9.391  -9.423  17.040  0.00  0.00    +0.216 C 
ATOM     31  H   UNL     1      -8.777 -11.301  16.416  0.00  0.00    +0.149 HD
BRANCH  22  20
ATOM     20  C   UNL     1     -10.788  -9.943  17.111  0.00  0.00    +0.075 C 
ATOM     23  C   UNL     1     -11.744  -9.619  16.000  0.00  0.00    +0.013 C 
ATOM     24  C   UNL     1     -11.915  -8.982  17.348  0.00  0.00    +0.013 C 
ENDBRANCH  22  20
ENDBRANCH  13   4
BRANCH   9   1
ATOM      1  O   UNL     1      -4.795  -9.992  12.634  0.00  0.00    -0.391 OA
ATOM     32  H   UNL     1      -4.417  -9.098  12.698  0.00  0.00    +0.210 HD
ENDBRANCH   9   1
BRANCH  12  17
ATOM     17  C   UNL     1      -2.068 -11.070  12.438  0.00  0.00    +0.077 C 
ATOM     19  C   UNL     1      -2.163 -10.036  11.320  0.00  0.00    +0.017 C 
BRANCH  17  21
ATOM      2  O   UNL     1      -3.694 -12.451  11.291  0.00  0.00    -0.276 OA
ATOM      5  N   UNL     1      -2.071 -13.489  12.582  0.00  0.00    -0.312 N 
ATOM     21  C   UNL     1      -2.712 -12.391  12.029  0.00  0.00    +0.216 C 
ATOM     33  H   UNL     1      -1.253 -13.347  13.165  0.00  0.00    +0.149 HD
BRANCH   5  25
ATOM     25  C   UNL     1      -2.499 -14.849  12.341  0.00  0.00    +0.073 C 
ATOM     26  C   UNL     1      -3.492 -15.312  13.412  0.00  0.00    +0.022 C 
ATOM     27  C   UNL     1      -1.299 -15.797  12.250  0.00  0.00    +0.022 C 
ATOM     28  C   UNL     1      -2.825 -15.546  14.766  0.00  0.00    +0.002 C 
ATOM     29  C   UNL     1      -0.635 -16.031  13.607  0.00  0.00    +0.002 C 
ATOM     30  C   UNL     1      -1.640 -16.501  14.653  0.00  0.00    +0.000 C 
ENDBRANCH   5  25
ENDBRANCH  17  21
ENDBRANCH  12  17
TORSDOF 6
ENDMDL
MODEL 10
REMARK VINA RESULT:      -6.6     13.365     16.246
REMARK  Name = 45361473
REMARK  9 active torsions:
REMARK  status: ('A' for Active; 'I' for Inactive)
REMARK    1  A    between atoms: O_1  and  C_9
REMARK    2  A    between atoms: N_4  and  C_13
REMARK    3  A    between atoms: N_5  and  C_25
REMARK    4  A    between atoms: C_6  and  C_16
REMARK    5  A    between atoms: C_8  and  C_18
REMARK    6  A    between atoms: C_12  and  C_17
REMARK    7  A    between atoms: C_17  and  C_19
REMARK    8  A    between atoms: C_17  and  C_21
REMARK    9  A    between atoms: C_20  and  C_22
REMARK                            x       y       z     vdW  Elec       q    Type
REMARK                         _______ _______ _______ _____ _____    ______ ____
ROOT
ATOM      6  C   UNL     1      16.769  -3.429  30.740  0.00  0.00    -0.027 C 
ATOM      7  C   UNL     1      16.547  -4.276  29.442  0.00  0.00    +0.028 C 
ATOM      8  C   UNL     1      15.936  -5.681  29.790  0.00  0.00    +0.012 C 
ATOM      9  C   UNL     1      17.828  -4.303  28.561  0.00  0.00    +0.122 C 
ATOM     10  C   UNL     1      17.262  -2.015  30.355  0.00  0.00    +0.007 C 
ATOM     11  C   UNL     1      15.418  -3.271  31.477  0.00  0.00    +0.009 C 
ATOM     12  C   UNL     1      18.376  -2.887  28.266  0.00  0.00    +0.029 C 
ATOM     13  C   UNL     1      14.618  -5.511  30.596  0.00  0.00    +0.076 C 
ATOM     14  C   UNL     1      18.538  -2.036  29.525  0.00  0.00    +0.007 C 
ATOM     15  C   UNL     1      14.765  -4.603  31.817  0.00  0.00    +0.023 C 
ATOM     16  C   UNL     1      17.801  -4.072  31.700  0.00  0.00    +0.011 C 
ATOM     18  C   UNL     1      15.665  -6.557  28.555  0.00  0.00    +0.010 C 
ENDROOT
BRANCH  13   4
ATOM      3  O   UNL     1      11.923  -6.537  30.214  0.00  0.00    -0.276 OA
ATOM      4  N   UNL     1      14.089  -6.786  31.033  0.00  0.00    -0.312 N 
ATOM     22  C   UNL     1      12.787  -7.181  30.800  0.00  0.00    +0.216 C 
ATOM     31  H   UNL     1      14.693  -7.388  31.584  0.00  0.00    +0.149 HD
BRANCH  22  20
ATOM     20  C   UNL     1      12.458  -8.534  31.337  0.00  0.00    +0.075 C 
ATOM     23  C   UNL     1      11.861  -8.650  32.709  0.00  0.00    +0.013 C 
ATOM     24  C   UNL     1      13.274  -9.091  32.465  0.00  0.00    +0.013 C 
ENDBRANCH  22  20
ENDBRANCH  13   4
BRANCH   9   1
ATOM      1  O   UNL     1      17.525  -4.896  27.297  0.00  0.00    -0.391 OA
ATOM     32  H   UNL     1      17.500  -5.861  27.415  0.00  0.00    +0.210 HD
ENDBRANCH   9   1
BRANCH  12  17
ATOM     17  C   UNL     1      19.709  -2.941  27.508  0.00  0.00    +0.077 C 
ATOM     19  C   UNL     1      20.829  -2.376  28.375  0.00  0.00    +0.017 C 
BRANCH  17  21
ATOM      2  O   UNL     1      20.041  -1.047  26.034  0.00  0.00    -0.276 OA
ATOM      5  N   UNL     1      18.919  -2.906  25.216  0.00  0.00    -0.312 N 
ATOM     21  C   UNL     1      19.589  -2.180  26.191  0.00  0.00    +0.216 C 
ATOM     33  H   UNL     1      18.596  -3.844  25.428  0.00  0.00    +0.149 HD
BRANCH   5  25
ATOM     25  C   UNL     1      18.680  -2.395  23.886  0.00  0.00    +0.073 C 
ATOM     26  C   UNL     1      17.528  -1.384  23.882  0.00  0.00    +0.022 C 
ATOM     27  C   UNL     1      18.421  -3.534  22.895  0.00  0.00    +0.022 C 
ATOM     28  C   UNL     1      16.168  -2.047  24.092  0.00  0.00    +0.002 C 
ATOM     29  C   UNL     1      17.059  -4.195  23.107  0.00  0.00    +0.002 C 
ATOM     30  C   UNL     1      15.928  -3.171  23.089  0.00  0.00    +0.000 C 
ENDBRANCH   5  25
ENDBRANCH  17  21
ENDBRANCH  12  17
TORSDOF 6
ENDMDL
