MODEL 1
REMARK VINA RESULT:      -6.9      0.000      0.000
REMARK  Name = 56775476
REMARK  8 active torsions:
REMARK  status: ('A' for Active; 'I' for Inactive)
REMARK    1  A    between atoms: O_7  and  C_24
REMARK    2  A    between atoms: O_7  and  C_30
REMARK    3  A    between atoms: N_8  and  C_10
REMARK    4  A    between atoms: N_8  and  C_14
REMARK    5  A    between atoms: C_10  and  C_13
REMARK    6  A    between atoms: C_13  and  C_15
REMARK    7  A    between atoms: C_14  and  C_16
REMARK    8  A    between atoms: C_18  and  C_21
REMARK                            x       y       z     vdW  Elec       q    Type
REMARK                         _______ _______ _______ _____ _____    ______ ____
ROOT
ATOM      5  O   UNL     1     -18.037   2.295  21.577  0.00  0.00    -0.376 OA
ATOM     10  C   UNL     1     -17.194   3.107  23.362  0.00  0.00    +0.072 C 
ATOM     11  C   UNL     1     -17.761   3.634  22.049  0.00  0.00    +0.184 C 
ATOM     12  C   UNL     1     -17.601   1.736  22.837  0.00  0.00    +0.184 C 
ENDROOT
BRANCH  10   8
ATOM      8  N   UNL     1     -15.742   3.212  23.322  0.00  0.00    -0.302 NA
ATOM     31  H   UNL     1     -15.321   3.050  22.409  0.00  0.00    +0.123 HD
BRANCH   8  14
ATOM     14  C   UNL     1     -15.326   4.517  23.833  0.00  0.00    +0.117 C 
BRANCH  14  16
ATOM     16  C   UNL     1     -14.622   5.331  22.781  0.00  0.00    -0.033 A 
ATOM     19  C   UNL     1     -13.273   5.103  22.508  0.00  0.00    +0.008 A 
ATOM     20  C   UNL     1     -15.319   6.314  22.077  0.00  0.00    +0.008 A 
ATOM     22  C   UNL     1     -12.621   5.858  21.533  0.00  0.00    +0.046 A 
ATOM     23  C   UNL     1     -14.667   7.069  21.103  0.00  0.00    +0.046 A 
ATOM     24  C   UNL     1     -13.318   6.841  20.830  0.00  0.00    +0.130 A 
BRANCH  24   7
ATOM      7  O   UNL     1     -12.683   7.577  19.879  0.00  0.00    -0.406 OA
BRANCH   7  30
ATOM      2  F   UNL     1     -12.210   9.025  21.585  0.00  0.00    -0.133 F 
ATOM      3  F   UNL     1     -12.372   9.788  19.543  0.00  0.00    -0.133 F 
ATOM      4  F   UNL     1     -10.637   8.579  20.098  0.00  0.00    -0.133 F 
ATOM     30  C   UNL     1     -11.964   8.736  20.290  0.00  0.00    +0.575 C 
ENDBRANCH   7  30
ENDBRANCH  24   7
ENDBRANCH  14  16
ENDBRANCH   8  14
ENDBRANCH  10   8
BRANCH  10  13
ATOM     13  C   UNL     1     -17.793   3.604  24.685  0.00  0.00    +0.085 C 
BRANCH  13  15
ATOM      6  O   UNL     1     -16.461   1.318  27.084  0.00  0.00    -0.354 OA
ATOM      9  N   UNL     1     -17.109   1.605  25.889  0.00  0.00    -0.083 NA
ATOM     15  C   UNL     1     -17.162   2.938  25.837  0.00  0.00    +0.086 A 
ATOM     17  C   UNL     1     -16.570   3.541  26.959  0.00  0.00    +0.076 A 
ATOM     18  C   UNL     1     -16.145   2.479  27.713  0.00  0.00    +0.167 A 
BRANCH  18  21
ATOM      1  F   UNL     1     -13.502   1.947  32.588  0.00  0.00    -0.205 F 
ATOM     21  C   UNL     1     -15.461   2.342  28.975  0.00  0.00    +0.020 A 
ATOM     25  C   UNL     1     -14.901   3.461  29.590  0.00  0.00    +0.014 A 
ATOM     26  C   UNL     1     -15.361   1.089  29.581  0.00  0.00    +0.014 A 
ATOM     27  C   UNL     1     -14.239   3.328  30.812  0.00  0.00    +0.039 A 
ATOM     28  C   UNL     1     -14.699   0.955  30.802  0.00  0.00    +0.039 A 
ATOM     29  C   UNL     1     -14.138   2.075  31.417  0.00  0.00    +0.123 A 
ENDBRANCH  18  21
ENDBRANCH  13  15
ENDBRANCH  10  13
TORSDOF 8
ENDMDL
MODEL 2
REMARK VINA RESULT:      -6.8     18.644     20.232
REMARK  Name = 56775476
REMARK  8 active torsions:
REMARK  status: ('A' for Active; 'I' for Inactive)
REMARK    1  A    between atoms: O_7  and  C_24
REMARK    2  A    between atoms: O_7  and  C_30
REMARK    3  A    between atoms: N_8  and  C_10
REMARK    4  A    between atoms: N_8  and  C_14
REMARK    5  A    between atoms: C_10  and  C_13
REMARK    6  A    between atoms: C_13  and  C_15
REMARK    7  A    between atoms: C_14  and  C_16
REMARK    8  A    between atoms: C_18  and  C_21
REMARK                            x       y       z     vdW  Elec       q    Type
REMARK                         _______ _______ _______ _____ _____    ______ ____
ROOT
ATOM      5  O   UNL     1      -5.825 -13.901  17.341  0.00  0.00    -0.376 OA
ATOM     10  C   UNL     1      -4.743 -12.063  17.285  0.00  0.00    +0.072 C 
ATOM     11  C   UNL     1      -5.891 -12.712  16.522  0.00  0.00    +0.184 C 
ATOM     12  C   UNL     1      -4.798 -13.306  18.165  0.00  0.00    +0.184 C 
ENDROOT
BRANCH  10   8
ATOM      8  N   UNL     1      -3.541 -12.121  16.465  0.00  0.00    -0.302 NA
ATOM     31  H   UNL     1      -3.581 -12.775  15.684  0.00  0.00    +0.123 HD
BRANCH   8  14
ATOM     14  C   UNL     1      -3.211 -10.785  15.974  0.00  0.00    +0.117 C 
BRANCH  14  16
ATOM     16  C   UNL     1      -3.407 -10.671  14.486  0.00  0.00    -0.033 A 
ATOM     19  C   UNL     1      -4.685 -10.474  13.963  0.00  0.00    +0.008 A 
ATOM     20  C   UNL     1      -2.310 -10.761  13.629  0.00  0.00    +0.008 A 
ATOM     22  C   UNL     1      -4.866 -10.368  12.585  0.00  0.00    +0.046 A 
ATOM     23  C   UNL     1      -2.491 -10.655  12.250  0.00  0.00    +0.046 A 
ATOM     24  C   UNL     1      -3.769 -10.459  11.728  0.00  0.00    +0.130 A 
BRANCH  24   7
ATOM      7  O   UNL     1      -3.945 -10.354  10.383  0.00  0.00    -0.406 OA
BRANCH   7  30
ATOM      2  F   UNL     1      -4.163  -9.095   8.486  0.00  0.00    -0.133 F 
ATOM      3  F   UNL     1      -2.456  -8.758   9.808  0.00  0.00    -0.133 F 
ATOM      4  F   UNL     1      -4.446  -8.123  10.451  0.00  0.00    -0.133 F 
ATOM     30  C   UNL     1      -3.770  -9.078   9.777  0.00  0.00    +0.575 C 
ENDBRANCH   7  30
ENDBRANCH  24   7
ENDBRANCH  14  16
ENDBRANCH   8  14
ENDBRANCH  10   8
BRANCH  10  13
ATOM     13  C   UNL     1      -4.960 -10.687  17.929  0.00  0.00    +0.085 C 
BRANCH  13  15
ATOM      6  O   UNL     1      -8.451  -9.989  18.209  0.00  0.00    -0.354 OA
ATOM      9  N   UNL     1      -7.274 -10.568  18.666  0.00  0.00    -0.083 NA
ATOM     15  C   UNL     1      -6.351 -10.235  17.761  0.00  0.00    +0.086 A 
ATOM     17  C   UNL     1      -6.881  -9.454  16.720  0.00  0.00    +0.076 A 
ATOM     18  C   UNL     1      -8.205  -9.328  17.048  0.00  0.00    +0.167 A 
BRANCH  18  21
ATOM      1  F   UNL     1     -12.588  -6.784  14.735  0.00  0.00    -0.205 F 
ATOM     21  C   UNL     1      -9.339  -8.669  16.450  0.00  0.00    +0.020 A 
ATOM     25  C   UNL     1     -10.026  -7.682  17.157  0.00  0.00    +0.014 A 
ATOM     26  C   UNL     1      -9.749  -9.018  15.163  0.00  0.00    +0.014 A 
ATOM     27  C   UNL     1     -11.124  -7.045  16.577  0.00  0.00    +0.039 A 
ATOM     28  C   UNL     1     -10.847  -8.382  14.584  0.00  0.00    +0.039 A 
ATOM     29  C   UNL     1     -11.534  -7.395  15.291  0.00  0.00    +0.123 A 
ENDBRANCH  18  21
ENDBRANCH  13  15
ENDBRANCH  10  13
TORSDOF 8
ENDMDL
MODEL 3
REMARK VINA RESULT:      -6.6     17.382     19.220
REMARK  Name = 56775476
REMARK  8 active torsions:
REMARK  status: ('A' for Active; 'I' for Inactive)
REMARK    1  A    between atoms: O_7  and  C_24
REMARK    2  A    between atoms: O_7  and  C_30
REMARK    3  A    between atoms: N_8  and  C_10
REMARK    4  A    between atoms: N_8  and  C_14
REMARK    5  A    between atoms: C_10  and  C_13
REMARK    6  A    between atoms: C_13  and  C_15
REMARK    7  A    between atoms: C_14  and  C_16
REMARK    8  A    between atoms: C_18  and  C_21
REMARK                            x       y       z     vdW  Elec       q    Type
REMARK                         _______ _______ _______ _____ _____    ______ ____
ROOT
ATOM      5  O   UNL     1     -10.473 -14.305  19.268  0.00  0.00    -0.376 OA
ATOM     10  C   UNL     1      -8.986 -12.776  19.177  0.00  0.00    +0.072 C 
ATOM     11  C   UNL     1     -10.141 -13.270  18.314  0.00  0.00    +0.184 C 
ATOM     12  C   UNL     1      -9.454 -13.828  20.176  0.00  0.00    +0.184 C 
ENDROOT
BRANCH  10   8
ATOM      8  N   UNL     1      -7.733 -13.220  18.581  0.00  0.00    -0.302 NA
ATOM     31  H   UNL     1      -7.695 -13.169  17.565  0.00  0.00    +0.123 HD
BRANCH   8  14
ATOM     14  C   UNL     1      -6.619 -12.468  19.155  0.00  0.00    +0.117 C 
BRANCH  14  16
ATOM     16  C   UNL     1      -5.669 -11.978  18.096  0.00  0.00    -0.033 A 
ATOM     19  C   UNL     1      -5.296 -10.635  18.059  0.00  0.00    +0.008 A 
ATOM     20  C   UNL     1      -5.161 -12.869  17.149  0.00  0.00    +0.008 A 
ATOM     22  C   UNL     1      -4.415 -10.182  17.077  0.00  0.00    +0.046 A 
ATOM     23  C   UNL     1      -4.280 -12.417  16.167  0.00  0.00    +0.046 A 
ATOM     24  C   UNL     1      -3.907 -11.074  16.131  0.00  0.00    +0.130 A 
BRANCH  24   7
ATOM      7  O   UNL     1      -3.047 -10.632  15.173  0.00  0.00    -0.406 OA
BRANCH   7  30
ATOM      2  F   UNL     1      -1.087 -11.776  14.887  0.00  0.00    -0.133 F 
ATOM      3  F   UNL     1      -1.471 -10.761  16.785  0.00  0.00    -0.133 F 
ATOM      4  F   UNL     1      -1.027  -9.570  15.007  0.00  0.00    -0.133 F 
ATOM     30  C   UNL     1      -1.650 -10.684  15.446  0.00  0.00    +0.575 C 
ENDBRANCH   7  30
ENDBRANCH  24   7
ENDBRANCH  14  16
ENDBRANCH   8  14
ENDBRANCH  10   8
BRANCH  10  13
ATOM     13  C   UNL     1      -8.955 -11.304  19.608  0.00  0.00    +0.085 C 
BRANCH  13  15
ATOM      6  O   UNL     1      -9.404  -9.469  16.577  0.00  0.00    -0.354 OA
ATOM      9  N   UNL     1      -8.723 -10.386  17.368  0.00  0.00    -0.083 NA
ATOM     15  C   UNL     1      -9.402 -10.421  18.518  0.00  0.00    +0.086 A 
ATOM     17  C   UNL     1     -10.509  -9.557  18.511  0.00  0.00    +0.076 A 
ATOM     18  C   UNL     1     -10.466  -8.981  17.268  0.00  0.00    +0.167 A 
BRANCH  18  21
ATOM      1  F   UNL     1     -13.596  -5.239  14.578  0.00  0.00    -0.205 F 
ATOM     21  C   UNL     1     -11.275  -8.013  16.572  0.00  0.00    +0.020 A 
ATOM     25  C   UNL     1     -10.682  -6.883  16.009  0.00  0.00    +0.014 A 
ATOM     26  C   UNL     1     -12.652  -8.207  16.460  0.00  0.00    +0.014 A 
ATOM     27  C   UNL     1     -11.467  -5.945  15.335  0.00  0.00    +0.039 A 
ATOM     28  C   UNL     1     -13.436  -7.270  15.786  0.00  0.00    +0.039 A 
ATOM     29  C   UNL     1     -12.843  -6.139  15.225  0.00  0.00    +0.123 A 
ENDBRANCH  18  21
ENDBRANCH  13  15
ENDBRANCH  10  13
TORSDOF 8
ENDMDL
MODEL 4
REMARK VINA RESULT:      -6.6     20.755     23.349
REMARK  Name = 56775476
REMARK  8 active torsions:
REMARK  status: ('A' for Active; 'I' for Inactive)
REMARK    1  A    between atoms: O_7  and  C_24
REMARK    2  A    between atoms: O_7  and  C_30
REMARK    3  A    between atoms: N_8  and  C_10
REMARK    4  A    between atoms: N_8  and  C_14
REMARK    5  A    between atoms: C_10  and  C_13
REMARK    6  A    between atoms: C_13  and  C_15
REMARK    7  A    between atoms: C_14  and  C_16
REMARK    8  A    between atoms: C_18  and  C_21
REMARK                            x       y       z     vdW  Elec       q    Type
REMARK                         _______ _______ _______ _____ _____    ______ ____
ROOT
ATOM      5  O   UNL     1      -2.344 -13.994  13.194  0.00  0.00    -0.376 OA
ATOM     10  C   UNL     1      -2.533 -12.091  14.140  0.00  0.00    +0.072 C 
ATOM     11  C   UNL     1      -1.407 -13.030  13.726  0.00  0.00    +0.184 C 
ATOM     12  C   UNL     1      -3.451 -13.109  13.474  0.00  0.00    +0.184 C 
ENDROOT
BRANCH  10   8
ATOM      8  N   UNL     1      -2.709 -12.174  15.583  0.00  0.00    -0.302 NA
ATOM     31  H   UNL     1      -1.940 -12.614  16.088  0.00  0.00    +0.123 HD
BRANCH   8  14
ATOM     14  C   UNL     1      -2.960 -10.842  16.129  0.00  0.00    +0.117 C 
BRANCH  14  16
ATOM     16  C   UNL     1      -4.125 -10.839  17.082  0.00  0.00    -0.033 A 
ATOM     19  C   UNL     1      -5.279 -10.120  16.772  0.00  0.00    +0.008 A 
ATOM     20  C   UNL     1      -4.049 -11.555  18.278  0.00  0.00    +0.008 A 
ATOM     22  C   UNL     1      -6.358 -10.117  17.656  0.00  0.00    +0.046 A 
ATOM     23  C   UNL     1      -5.128 -11.552  19.162  0.00  0.00    +0.046 A 
ATOM     24  C   UNL     1      -6.282 -10.833  18.851  0.00  0.00    +0.130 A 
BRANCH  24   7
ATOM      7  O   UNL     1      -7.335 -10.831  19.713  0.00  0.00    -0.406 OA
BRANCH   7  30
ATOM      2  F   UNL     1      -9.482 -11.520  20.098  0.00  0.00    -0.133 F 
ATOM      3  F   UNL     1      -7.834 -12.922  20.404  0.00  0.00    -0.133 F 
ATOM      4  F   UNL     1      -8.388 -12.353  18.368  0.00  0.00    -0.133 F 
ATOM     30  C   UNL     1      -8.273 -11.900  19.634  0.00  0.00    +0.575 C 
ENDBRANCH   7  30
ENDBRANCH  24   7
ENDBRANCH  14  16
ENDBRANCH   8  14
ENDBRANCH  10   8
BRANCH  10  13
ATOM     13  C   UNL     1      -2.526 -10.646  13.621  0.00  0.00    +0.085 C 
BRANCH  13  15
ATOM      6  O   UNL     1      -5.382 -10.100  11.547  0.00  0.00    -0.354 OA
ATOM      9  N   UNL     1      -4.766 -10.198  12.789  0.00  0.00    -0.083 NA
ATOM     15  C   UNL     1      -3.487 -10.472  12.520  0.00  0.00    +0.086 A 
ATOM     17  C   UNL     1      -3.238 -10.558  11.140  0.00  0.00    +0.076 A 
ATOM     18  C   UNL     1      -4.462 -10.317  10.572  0.00  0.00    +0.167 A 
BRANCH  18  21
ATOM      1  F   UNL     1      -6.364 -10.040   5.344  0.00  0.00    -0.205 F 
ATOM     21  C   UNL     1      -4.954 -10.244   9.219  0.00  0.00    +0.020 A 
ATOM     25  C   UNL     1      -5.925  -9.303   8.879  0.00  0.00    +0.014 A 
ATOM     26  C   UNL     1      -4.458 -11.116   8.249  0.00  0.00    +0.014 A 
ATOM     27  C   UNL     1      -6.402  -9.234   7.570  0.00  0.00    +0.039 A 
ATOM     28  C   UNL     1      -4.934 -11.047   6.940  0.00  0.00    +0.039 A 
ATOM     29  C   UNL     1      -5.907 -10.106   6.600  0.00  0.00    +0.123 A 
ENDBRANCH  18  21
ENDBRANCH  13  15
ENDBRANCH  10  13
TORSDOF 8
ENDMDL
MODEL 5
REMARK VINA RESULT:      -6.5      1.960      2.726
REMARK  Name = 56775476
REMARK  8 active torsions:
REMARK  status: ('A' for Active; 'I' for Inactive)
REMARK    1  A    between atoms: O_7  and  C_24
REMARK    2  A    between atoms: O_7  and  C_30
REMARK    3  A    between atoms: N_8  and  C_10
REMARK    4  A    between atoms: N_8  and  C_14
REMARK    5  A    between atoms: C_10  and  C_13
REMARK    6  A    between atoms: C_13  and  C_15
REMARK    7  A    between atoms: C_14  and  C_16
REMARK    8  A    between atoms: C_18  and  C_21
REMARK                            x       y       z     vdW  Elec       q    Type
REMARK                         _______ _______ _______ _____ _____    ______ ____
ROOT
ATOM      5  O   UNL     1     -18.035   7.599  23.492  0.00  0.00    -0.376 OA
ATOM     10  C   UNL     1     -16.557   6.060  23.437  0.00  0.00    +0.072 C 
ATOM     11  C   UNL     1     -17.378   6.790  24.494  0.00  0.00    +0.184 C 
ATOM     12  C   UNL     1     -17.358   6.882  22.435  0.00  0.00    +0.184 C 
ENDROOT
BRANCH  10   8
ATOM      8  N   UNL     1     -15.191   6.565  23.472  0.00  0.00    -0.302 NA
ATOM     31  H   UNL     1     -14.777   6.626  24.401  0.00  0.00    +0.123 HD
BRANCH   8  14
ATOM     14  C   UNL     1     -14.342   5.752  22.604  0.00  0.00    +0.117 C 
BRANCH  14  16
ATOM     16  C   UNL     1     -13.582   6.596  21.616  0.00  0.00    -0.033 A 
ATOM     19  C   UNL     1     -14.178   7.728  21.060  0.00  0.00    +0.008 A 
ATOM     20  C   UNL     1     -12.280   6.245  21.256  0.00  0.00    +0.008 A 
ATOM     22  C   UNL     1     -13.473   8.509  20.145  0.00  0.00    +0.046 A 
ATOM     23  C   UNL     1     -11.575   7.026  20.340  0.00  0.00    +0.046 A 
ATOM     24  C   UNL     1     -12.171   8.158  19.785  0.00  0.00    +0.130 A 
BRANCH  24   7
ATOM      7  O   UNL     1     -11.483   8.921  18.892  0.00  0.00    -0.406 OA
BRANCH   7  30
ATOM      2  F   UNL     1     -10.296  10.828  18.462  0.00  0.00    -0.133 F 
ATOM      3  F   UNL     1      -9.419   9.280  19.732  0.00  0.00    -0.133 F 
ATOM      4  F   UNL     1     -11.067  10.489  20.506  0.00  0.00    -0.133 F 
ATOM     30  C   UNL     1     -10.576   9.896  19.397  0.00  0.00    +0.575 C 
ENDBRANCH   7  30
ENDBRANCH  24   7
ENDBRANCH  14  16
ENDBRANCH   8  14
ENDBRANCH  10   8
BRANCH  10  13
ATOM     13  C   UNL     1     -16.627   4.528  23.366  0.00  0.00    +0.085 C 
BRANCH  13  15
ATOM      6  O   UNL     1     -17.807   3.135  26.435  0.00  0.00    -0.354 OA
ATOM      9  N   UNL     1     -18.013   3.668  25.169  0.00  0.00    -0.083 NA
ATOM     15  C   UNL     1     -16.790   3.941  24.706  0.00  0.00    +0.086 A 
ATOM     17  C   UNL     1     -15.784   3.604  25.625  0.00  0.00    +0.076 A 
ATOM     18  C   UNL     1     -16.475   3.102  26.696  0.00  0.00    +0.167 A 
BRANCH  18  21
ATOM      1  F   UNL     1     -15.033   1.033  31.664  0.00  0.00    -0.205 F 
ATOM     21  C   UNL     1     -16.102   2.567  27.982  0.00  0.00    +0.020 A 
ATOM     25  C   UNL     1     -15.417   3.365  28.898  0.00  0.00    +0.014 A 
ATOM     26  C   UNL     1     -16.427   1.250  28.310  0.00  0.00    +0.014 A 
ATOM     27  C   UNL     1     -15.056   2.847  30.142  0.00  0.00    +0.039 A 
ATOM     28  C   UNL     1     -16.066   0.732  29.554  0.00  0.00    +0.039 A 
ATOM     29  C   UNL     1     -15.380   1.530  30.470  0.00  0.00    +0.123 A 
ENDBRANCH  18  21
ENDBRANCH  13  15
ENDBRANCH  10  13
TORSDOF 8
ENDMDL
MODEL 6
REMARK VINA RESULT:      -6.5     18.022     20.139
REMARK  Name = 56775476
REMARK  8 active torsions:
REMARK  status: ('A' for Active; 'I' for Inactive)
REMARK    1  A    between atoms: O_7  and  C_24
REMARK    2  A    between atoms: O_7  and  C_30
REMARK    3  A    between atoms: N_8  and  C_10
REMARK    4  A    between atoms: N_8  and  C_14
REMARK    5  A    between atoms: C_10  and  C_13
REMARK    6  A    between atoms: C_13  and  C_15
REMARK    7  A    between atoms: C_14  and  C_16
REMARK    8  A    between atoms: C_18  and  C_21
REMARK                            x       y       z     vdW  Elec       q    Type
REMARK                         _______ _______ _______ _____ _____    ______ ____
ROOT
ATOM      5  O   UNL     1      -6.781 -10.801  37.070  0.00  0.00    -0.376 OA
ATOM     10  C   UNL     1      -8.799 -10.475  37.683  0.00  0.00    +0.072 C 
ATOM     11  C   UNL     1      -8.054 -10.764  36.386  0.00  0.00    +0.184 C 
ATOM     12  C   UNL     1      -7.435 -10.623  38.346  0.00  0.00    +0.184 C 
ENDROOT
BRANCH  10   8
ATOM      8  N   UNL     1      -9.180  -9.070  37.703  0.00  0.00    -0.302 NA
ATOM     31  H   UNL     1      -9.809  -8.781  36.955  0.00  0.00    +0.123 HD
BRANCH   8  14
ATOM     14  C   UNL     1      -9.766  -8.735  38.999  0.00  0.00    +0.117 C 
BRANCH  14  16
ATOM     16  C   UNL     1      -9.458  -7.318  39.403  0.00  0.00    -0.033 A 
ATOM     19  C   UNL     1     -10.446  -6.530  39.994  0.00  0.00    +0.008 A 
ATOM     20  C   UNL     1      -8.184  -6.792  39.186  0.00  0.00    +0.008 A 
ATOM     22  C   UNL     1     -10.160  -5.218  40.369  0.00  0.00    +0.046 A 
ATOM     23  C   UNL     1      -7.899  -5.479  39.561  0.00  0.00    +0.046 A 
ATOM     24  C   UNL     1      -8.886  -4.692  40.152  0.00  0.00    +0.130 A 
BRANCH  24   7
ATOM      7  O   UNL     1      -8.607  -3.412  40.518  0.00  0.00    -0.406 OA
BRANCH   7  30
ATOM      2  F   UNL     1      -9.605  -1.356  40.425  0.00  0.00    -0.133 F 
ATOM      3  F   UNL     1     -10.051  -2.837  38.880  0.00  0.00    -0.133 F 
ATOM      4  F   UNL     1      -8.088  -1.875  38.904  0.00  0.00    -0.133 F 
ATOM     30  C   UNL     1      -9.078  -2.355  39.688  0.00  0.00    +0.575 C 
ENDBRANCH   7  30
ENDBRANCH  24   7
ENDBRANCH  14  16
ENDBRANCH   8  14
ENDBRANCH  10   8
BRANCH  10  13
ATOM     13  C   UNL     1      -9.938 -11.410  38.112  0.00  0.00    +0.085 C 
BRANCH  13  15
ATOM      6  O   UNL     1     -12.704 -10.913  35.907  0.00  0.00    -0.354 OA
ATOM      9  N   UNL     1     -11.896 -10.528  36.970  0.00  0.00    -0.083 NA
ATOM     15  C   UNL     1     -10.977 -11.492  37.072  0.00  0.00    +0.086 A 
ATOM     17  C   UNL     1     -11.153 -12.501  36.111  0.00  0.00    +0.076 A 
ATOM     18  C   UNL     1     -12.252 -12.090  35.403  0.00  0.00    +0.167 A 
BRANCH  18  21
ATOM      1  F   UNL     1     -15.118 -14.136  31.087  0.00  0.00    -0.205 F 
ATOM     21  C   UNL     1     -12.994 -12.619  34.286  0.00  0.00    +0.020 A 
ATOM     25  C   UNL     1     -14.142 -11.966  33.839  0.00  0.00    +0.014 A 
ATOM     26  C   UNL     1     -12.562 -13.784  33.651  0.00  0.00    +0.014 A 
ATOM     27  C   UNL     1     -14.860 -12.479  32.758  0.00  0.00    +0.039 A 
ATOM     28  C   UNL     1     -13.279 -14.297  32.570  0.00  0.00    +0.039 A 
ATOM     29  C   UNL     1     -14.429 -13.644  32.124  0.00  0.00    +0.123 A 
ENDBRANCH  18  21
ENDBRANCH  13  15
ENDBRANCH  10  13
TORSDOF 8
ENDMDL
MODEL 7
REMARK VINA RESULT:      -6.5     30.974     36.117
REMARK  Name = 56775476
REMARK  8 active torsions:
REMARK  status: ('A' for Active; 'I' for Inactive)
REMARK    1  A    between atoms: O_7  and  C_24
REMARK    2  A    between atoms: O_7  and  C_30
REMARK    3  A    between atoms: N_8  and  C_10
REMARK    4  A    between atoms: N_8  and  C_14
REMARK    5  A    between atoms: C_10  and  C_13
REMARK    6  A    between atoms: C_13  and  C_15
REMARK    7  A    between atoms: C_14  and  C_16
REMARK    8  A    between atoms: C_18  and  C_21
REMARK                            x       y       z     vdW  Elec       q    Type
REMARK                         _______ _______ _______ _____ _____    ______ ____
ROOT
ATOM      5  O   UNL     1      14.452   4.410   0.081  0.00  0.00    -0.376 OA
ATOM     10  C   UNL     1      13.771   5.823   1.528  0.00  0.00    +0.072 C 
ATOM     11  C   UNL     1      14.938   4.857   1.367  0.00  0.00    +0.184 C 
ATOM     12  C   UNL     1      13.374   5.372   0.128  0.00  0.00    +0.184 C 
ENDROOT
BRANCH  10   8
ATOM      8  N   UNL     1      12.828   5.264   2.487  0.00  0.00    -0.302 NA
ATOM     31  H   UNL     1      13.198   5.121   3.425  0.00  0.00    +0.123 HD
BRANCH   8  14
ATOM     14  C   UNL     1      11.632   6.101   2.549  0.00  0.00    +0.117 C 
BRANCH  14  16
ATOM     16  C   UNL     1      10.935   5.983   3.878  0.00  0.00    -0.033 A 
ATOM     19  C   UNL     1      10.390   4.762   4.275  0.00  0.00    +0.008 A 
ATOM     20  C   UNL     1      10.834   7.096   4.714  0.00  0.00    +0.008 A 
ATOM     22  C   UNL     1       9.744   4.654   5.506  0.00  0.00    +0.046 A 
ATOM     23  C   UNL     1      10.188   6.988   5.945  0.00  0.00    +0.046 A 
ATOM     24  C   UNL     1       9.643   5.767   6.342  0.00  0.00    +0.130 A 
BRANCH  24   7
ATOM      7  O   UNL     1       9.014   5.661   7.543  0.00  0.00    -0.406 OA
BRANCH   7  30
ATOM      2  F   UNL     1      10.979   5.593   8.711  0.00  0.00    -0.133 F 
ATOM      3  F   UNL     1       9.834   3.753   8.429  0.00  0.00    -0.133 F 
ATOM      4  F   UNL     1       9.081   5.280   9.799  0.00  0.00    -0.133 F 
ATOM     30  C   UNL     1       9.731   5.087   8.631  0.00  0.00    +0.575 C 
ENDBRANCH   7  30
ENDBRANCH  24   7
ENDBRANCH  14  16
ENDBRANCH   8  14
ENDBRANCH  10   8
BRANCH  10  13
ATOM     13  C   UNL     1      14.063   7.309   1.775  0.00  0.00    +0.085 C 
BRANCH  13  15
ATOM      6  O   UNL     1      15.737   7.534   4.922  0.00  0.00    -0.354 OA
ATOM      9  N   UNL     1      14.614   7.285   4.143  0.00  0.00    -0.083 NA
ATOM     15  C   UNL     1      15.014   7.487   2.885  0.00  0.00    +0.086 A 
ATOM     17  C   UNL     1      16.365   7.861   2.808  0.00  0.00    +0.076 A 
ATOM     18  C   UNL     1      16.775   7.877   4.116  0.00  0.00    +0.167 A 
BRANCH  18  21
ATOM      1  F   UNL     1      21.584   8.989   6.698  0.00  0.00    -0.205 F 
ATOM     21  C   UNL     1      18.019   8.164   4.784  0.00  0.00    +0.020 A 
ATOM     25  C   UNL     1      18.012   8.759   6.046  0.00  0.00    +0.014 A 
ATOM     26  C   UNL     1      19.231   7.847   4.170  0.00  0.00    +0.014 A 
ATOM     27  C   UNL     1      19.217   9.038   6.693  0.00  0.00    +0.039 A 
ATOM     28  C   UNL     1      20.435   8.126   4.816  0.00  0.00    +0.039 A 
ATOM     29  C   UNL     1      20.428   8.721   6.077  0.00  0.00    +0.123 A 
ENDBRANCH  18  21
ENDBRANCH  13  15
ENDBRANCH  10  13
TORSDOF 8
ENDMDL
MODEL 8
REMARK VINA RESULT:      -6.5     29.348     33.043
REMARK  Name = 56775476
REMARK  8 active torsions:
REMARK  status: ('A' for Active; 'I' for Inactive)
REMARK    1  A    between atoms: O_7  and  C_24
REMARK    2  A    between atoms: O_7  and  C_30
REMARK    3  A    between atoms: N_8  and  C_10
REMARK    4  A    between atoms: N_8  and  C_14
REMARK    5  A    between atoms: C_10  and  C_13
REMARK    6  A    between atoms: C_13  and  C_15
REMARK    7  A    between atoms: C_14  and  C_16
REMARK    8  A    between atoms: C_18  and  C_21
REMARK                            x       y       z     vdW  Elec       q    Type
REMARK                         _______ _______ _______ _____ _____    ______ ____
ROOT
ATOM      5  O   UNL     1       9.862   4.610   7.581  0.00  0.00    -0.376 OA
ATOM     10  C   UNL     1      10.388   6.258   6.332  0.00  0.00    +0.072 C 
ATOM     11  C   UNL     1       9.563   4.983   6.216  0.00  0.00    +0.184 C 
ATOM     12  C   UNL     1      10.580   5.847   7.787  0.00  0.00    +0.184 C 
ENDROOT
BRANCH  10   8
ATOM      8  N   UNL     1      11.646   6.071   5.621  0.00  0.00    -0.302 NA
ATOM     31  H   UNL     1      11.967   5.106   5.559  0.00  0.00    +0.123 HD
BRANCH   8  14
ATOM     14  C   UNL     1      11.549   6.648   4.283  0.00  0.00    +0.117 C 
BRANCH  14  16
ATOM     16  C   UNL     1      11.950   5.662   3.218  0.00  0.00    -0.033 A 
ATOM     19  C   UNL     1      13.040   5.933   2.391  0.00  0.00    +0.008 A 
ATOM     20  C   UNL     1      11.231   4.477   3.058  0.00  0.00    +0.008 A 
ATOM     22  C   UNL     1      13.411   5.020   1.404  0.00  0.00    +0.046 A 
ATOM     23  C   UNL     1      11.603   3.564   2.072  0.00  0.00    +0.046 A 
ATOM     24  C   UNL     1      12.692   3.835   1.245  0.00  0.00    +0.130 A 
BRANCH  24   7
ATOM      7  O   UNL     1      13.055   2.944   0.283  0.00  0.00    -0.406 OA
BRANCH   7  30
ATOM      2  F   UNL     1      12.346   2.020  -1.685  0.00  0.00    -0.133 F 
ATOM      3  F   UNL     1      13.618   3.797  -1.730  0.00  0.00    -0.133 F 
ATOM      4  F   UNL     1      11.541   3.987  -1.078  0.00  0.00    -0.133 F 
ATOM     30  C   UNL     1      12.623   3.180  -1.053  0.00  0.00    +0.575 C 
ENDBRANCH   7  30
ENDBRANCH  24   7
ENDBRANCH  14  16
ENDBRANCH   8  14
ENDBRANCH  10   8
BRANCH  10  13
ATOM     13  C   UNL     1       9.723   7.607   6.023  0.00  0.00    +0.085 C 
BRANCH  13  15
ATOM      6  O   UNL     1      11.460  10.053   7.960  0.00  0.00    -0.354 OA
ATOM      9  N   UNL     1      11.399   9.111   6.941  0.00  0.00    -0.083 NA
ATOM     15  C   UNL     1      10.149   8.641   6.980  0.00  0.00    +0.086 A 
ATOM     17  C   UNL     1       9.383   9.244   7.991  0.00  0.00    +0.076 A 
ATOM     18  C   UNL     1      10.253  10.124   8.579  0.00  0.00    +0.167 A 
BRANCH  18  21
ATOM      1  F   UNL     1       9.893  13.771  12.774  0.00  0.00    -0.205 F 
ATOM     21  C   UNL     1      10.160  11.068   9.664  0.00  0.00    +0.020 A 
ATOM     25  C   UNL     1      11.311  11.688  10.151  0.00  0.00    +0.014 A 
ATOM     26  C   UNL     1       8.918  11.363  10.228  0.00  0.00    +0.014 A 
ATOM     27  C   UNL     1      11.221  12.601  11.202  0.00  0.00    +0.039 A 
ATOM     28  C   UNL     1       8.828  12.276  11.278  0.00  0.00    +0.039 A 
ATOM     29  C   UNL     1       9.979  12.895  11.765  0.00  0.00    +0.123 A 
ENDBRANCH  18  21
ENDBRANCH  13  15
ENDBRANCH  10  13
TORSDOF 8
ENDMDL
MODEL 9
REMARK VINA RESULT:      -6.4     21.688     27.097
REMARK  Name = 56775476
REMARK  8 active torsions:
REMARK  status: ('A' for Active; 'I' for Inactive)
REMARK    1  A    between atoms: O_7  and  C_24
REMARK    2  A    between atoms: O_7  and  C_30
REMARK    3  A    between atoms: N_8  and  C_10
REMARK    4  A    between atoms: N_8  and  C_14
REMARK    5  A    between atoms: C_10  and  C_13
REMARK    6  A    between atoms: C_13  and  C_15
REMARK    7  A    between atoms: C_14  and  C_16
REMARK    8  A    between atoms: C_18  and  C_21
REMARK                            x       y       z     vdW  Elec       q    Type
REMARK                         _______ _______ _______ _____ _____    ______ ____
ROOT
ATOM      5  O   UNL     1      -0.536  12.788   5.049  0.00  0.00    -0.376 OA
ATOM     10  C   UNL     1      -1.042  10.786   4.510  0.00  0.00    +0.072 C 
ATOM     11  C   UNL     1      -1.292  12.190   3.972  0.00  0.00    +0.184 C 
ATOM     12  C   UNL     1      -0.182  11.482   5.558  0.00  0.00    +0.184 C 
ENDROOT
BRANCH  10   8
ATOM      8  N   UNL     1      -2.259  10.303   5.146  0.00  0.00    -0.302 NA
ATOM     31  H   UNL     1      -3.124  10.544   4.665  0.00  0.00    +0.123 HD
BRANCH   8  14
ATOM     14  C   UNL     1      -2.182   8.855   5.327  0.00  0.00    +0.117 C 
BRANCH  14  16
ATOM     16  C   UNL     1      -3.490   8.181   5.013  0.00  0.00    -0.033 A 
ATOM     19  C   UNL     1      -3.700   6.854   5.389  0.00  0.00    +0.008 A 
ATOM     20  C   UNL     1      -4.494   8.883   4.344  0.00  0.00    +0.008 A 
ATOM     22  C   UNL     1      -4.913   6.230   5.098  0.00  0.00    +0.046 A 
ATOM     23  C   UNL     1      -5.706   8.258   4.052  0.00  0.00    +0.046 A 
ATOM     24  C   UNL     1      -5.916   6.932   4.429  0.00  0.00    +0.130 A 
BRANCH  24   7
ATOM      7  O   UNL     1      -7.099   6.323   4.145  0.00  0.00    -0.406 OA
BRANCH   7  30
ATOM      2  F   UNL     1      -7.945   7.184   6.088  0.00  0.00    -0.133 F 
ATOM      3  F   UNL     1      -7.810   5.016   5.844  0.00  0.00    -0.133 F 
ATOM      4  F   UNL     1      -9.309   6.128   4.705  0.00  0.00    -0.133 F 
ATOM     30  C   UNL     1      -8.051   6.178   5.194  0.00  0.00    +0.575 C 
ENDBRANCH   7  30
ENDBRANCH  24   7
ENDBRANCH  14  16
ENDBRANCH   8  14
ENDBRANCH  10   8
BRANCH  10  13
ATOM     13  C   UNL     1      -0.392   9.741   3.592  0.00  0.00    +0.085 C 
BRANCH  13  15
ATOM      6  O   UNL     1      -0.422  10.487   0.099  0.00  0.00    -0.354 OA
ATOM      9  N   UNL     1       0.230  10.330   1.316  0.00  0.00    -0.083 NA
ATOM     15  C   UNL     1      -0.730   9.991   2.181  0.00  0.00    +0.086 A 
ATOM     17  C   UNL     1      -1.994   9.919   1.573  0.00  0.00    +0.076 A 
ATOM     18  C   UNL     1      -1.746  10.240   0.264  0.00  0.00    +0.167 A 
BRANCH  18  21
ATOM      1  F   UNL     1      -4.885  10.710  -4.314  0.00  0.00    -0.205 F 
ATOM     21  C   UNL     1      -2.559  10.362  -0.920  0.00  0.00    +0.020 A 
ATOM     25  C   UNL     1      -3.907  10.007  -0.881  0.00  0.00    +0.014 A 
ATOM     26  C   UNL     1      -1.997  10.836  -2.106  0.00  0.00    +0.014 A 
ATOM     27  C   UNL     1      -4.693  10.125  -2.028  0.00  0.00    +0.039 A 
ATOM     28  C   UNL     1      -2.782  10.954  -3.252  0.00  0.00    +0.039 A 
ATOM     29  C   UNL     1      -4.131  10.598  -3.213  0.00  0.00    +0.123 A 
ENDBRANCH  18  21
ENDBRANCH  13  15
ENDBRANCH  10  13
TORSDOF 8
ENDMDL
MODEL 10
REMARK VINA RESULT:      -6.4     35.325     37.424
REMARK  Name = 56775476
REMARK  8 active torsions:
REMARK  status: ('A' for Active; 'I' for Inactive)
REMARK    1  A    between atoms: O_7  and  C_24
REMARK    2  A    between atoms: O_7  and  C_30
REMARK    3  A    between atoms: N_8  and  C_10
REMARK    4  A    between atoms: N_8  and  C_14
REMARK    5  A    between atoms: C_10  and  C_13
REMARK    6  A    between atoms: C_13  and  C_15
REMARK    7  A    between atoms: C_14  and  C_16
REMARK    8  A    between atoms: C_18  and  C_21
REMARK                            x       y       z     vdW  Elec       q    Type
REMARK                         _______ _______ _______ _____ _____    ______ ____
ROOT
ATOM      5  O   UNL     1      24.437  -2.933  27.424  0.00  0.00    -0.376 OA
ATOM     10  C   UNL     1      23.386  -1.256  26.626  0.00  0.00    +0.072 C 
ATOM     11  C   UNL     1      23.241  -2.773  26.628  0.00  0.00    +0.184 C 
ATOM     12  C   UNL     1      24.580  -1.499  27.541  0.00  0.00    +0.184 C 
ENDROOT
BRANCH  10   8
ATOM      8  N   UNL     1      23.874  -0.832  25.320  0.00  0.00    -0.302 NA
ATOM     31  H   UNL     1      23.399  -1.254  24.524  0.00  0.00    +0.123 HD
BRANCH   8  14
ATOM     14  C   UNL     1      23.813   0.624  25.218  0.00  0.00    +0.117 C 
BRANCH  14  16
ATOM     16  C   UNL     1      23.997   1.094  23.800  0.00  0.00    -0.033 A 
ATOM     19  C   UNL     1      23.246   2.165  23.317  0.00  0.00    +0.008 A 
ATOM     20  C   UNL     1      24.919   0.457  22.969  0.00  0.00    +0.008 A 
ATOM     22  C   UNL     1      23.417   2.601  22.003  0.00  0.00    +0.046 A 
ATOM     23  C   UNL     1      25.090   0.892  21.655  0.00  0.00    +0.046 A 
ATOM     24  C   UNL     1      24.339   1.964  21.172  0.00  0.00    +0.130 A 
BRANCH  24   7
ATOM      7  O   UNL     1      24.507   2.389  19.890  0.00  0.00    -0.406 OA
BRANCH   7  30
ATOM      2  F   UNL     1      26.131   3.274  18.545  0.00  0.00    -0.133 F 
ATOM      3  F   UNL     1      26.232   3.597  20.704  0.00  0.00    -0.133 F 
ATOM      4  F   UNL     1      24.706   4.641  19.538  0.00  0.00    -0.133 F 
ATOM     30  C   UNL     1      25.388   3.482  19.652  0.00  0.00    +0.575 C 
ENDBRANCH   7  30
ENDBRANCH  24   7
ENDBRANCH  14  16
ENDBRANCH   8  14
ENDBRANCH  10   8
BRANCH  10  13
ATOM     13  C   UNL     1      22.222  -0.396  27.136  0.00  0.00    +0.085 C 
BRANCH  13  15
ATOM      6  O   UNL     1      19.054  -2.027  26.898  0.00  0.00    -0.354 OA
ATOM      9  N   UNL     1      20.191  -1.649  27.602  0.00  0.00    -0.083 NA
ATOM     15  C   UNL     1      20.925  -0.959  26.725  0.00  0.00    +0.086 A 
ATOM     17  C   UNL     1      20.309  -0.869  25.466  0.00  0.00    +0.076 A 
ATOM     18  C   UNL     1      19.135  -1.557  25.627  0.00  0.00    +0.167 A 
BRANCH  18  21
ATOM      1  F   UNL     1      14.820  -2.766  22.318  0.00  0.00    -0.205 F 
ATOM     21  C   UNL     1      18.019  -1.870  24.770  0.00  0.00    +0.020 A 
ATOM     25  C   UNL     1      17.748  -1.073  23.658  0.00  0.00    +0.014 A 
ATOM     26  C   UNL     1      17.209  -2.971  25.054  0.00  0.00    +0.014 A 
ATOM     27  C   UNL     1      16.667  -1.376  22.829  0.00  0.00    +0.039 A 
ATOM     28  C   UNL     1      16.129  -3.273  24.226  0.00  0.00    +0.039 A 
ATOM     29  C   UNL     1      15.857  -2.476  23.114  0.00  0.00    +0.123 A 
ENDBRANCH  18  21
ENDBRANCH  13  15
ENDBRANCH  10  13
TORSDOF 8
ENDMDL
