MODEL 1
REMARK VINA RESULT:      -8.5      0.000      0.000
REMARK  Name = 11885142
REMARK  2 active torsions:
REMARK  status: ('A' for Active; 'I' for Inactive)
REMARK    1  A    between atoms: C_15  and  C_18
REMARK    2  A    between atoms: C_16  and  C_19
REMARK                            x       y       z     vdW  Elec       q    Type
REMARK                         _______ _______ _______ _____ _____    ______ ____
ROOT
ATOM      1  O   UNL     1      15.156   6.328  21.959  0.00  0.00    -0.267 OA
ATOM      2  O   UNL     1      12.162   6.971  18.588  0.00  0.00    -0.267 OA
ATOM      4  N   UNL     1      11.833   9.077  19.499  0.00  0.00    -0.294 N 
ATOM      5  N   UNL     1      14.142   8.385  21.533  0.00  0.00    -0.311 N 
ATOM      6  C   UNL     1      11.652   8.810  21.965  0.00  0.00    +0.027 C 
ATOM      7  C   UNL     1      13.057  10.601  21.028  0.00  0.00    +0.054 C 
ATOM      8  C   UNL     1      12.076  10.263  22.150  0.00  0.00    +0.018 C 
ATOM      9  C   UNL     1      12.885   7.913  22.132  0.00  0.00    +0.130 C 
ATOM     10  C   UNL     1      10.976   8.619  20.595  0.00  0.00    +0.113 C 
ATOM     11  C   UNL     1      12.357  10.444  19.662  0.00  0.00    +0.117 C 
ATOM     12  C   UNL     1      14.276   9.701  21.080  0.00  0.00    +0.027 A 
ATOM     13  C   UNL     1      15.467  10.147  20.649  0.00  0.00    +0.022 A 
ATOM     14  C   UNL     1      15.224   7.484  21.537  0.00  0.00    +0.259 A 
ATOM     15  C   UNL     1      12.153   8.195  18.450  0.00  0.00    +0.282 C 
ATOM     16  C   UNL     1      16.534   8.001  21.004  0.00  0.00    +0.047 A 
ATOM     17  C   UNL     1      16.609   9.280  20.608  0.00  0.00    +0.015 A 
ENDROOT
BRANCH  16  19
ATOM     19  C   UNL     1      17.713   7.125  20.899  0.00  0.00    -0.012 A 
ATOM     20  C   UNL     1      18.731   7.207  21.851  0.00  0.00    +0.017 A 
ATOM     22  C   UNL     1      17.813   6.214  19.851  0.00  0.00    +0.009 A 
ATOM     23  C   UNL     1      19.863   6.379  21.765  0.00  0.00    -0.017 A 
ATOM     24  C   UNL     1      18.930   5.383  19.750  0.00  0.00    +0.009 A 
ATOM     25  C   UNL     1      19.962   5.453  20.699  0.00  0.00    -0.018 A 
ATOM     28  C   UNL     1      20.896   6.449  22.714  0.00  0.00    +0.008 A 
ATOM     29  C   UNL     1      21.094   4.625  20.613  0.00  0.00    +0.008 A 
ATOM     30  C   UNL     1      22.012   5.618  22.612  0.00  0.00    +0.001 A 
ATOM     31  C   UNL     1      22.111   4.708  21.564  0.00  0.00    +0.001 A 
ENDBRANCH  16  19
BRANCH  15  18
ATOM      3  O   UNL     1      13.830   8.920  16.888  0.00  0.00    -0.458 OA
ATOM     18  C   UNL     1      12.512   8.789  17.169  0.00  0.00    +0.189 A 
ATOM     21  C   UNL     1      11.736   9.263  16.146  0.00  0.00    +0.054 A 
ATOM     26  C   UNL     1      12.640   9.721  15.158  0.00  0.00    +0.042 A 
ATOM     27  C   UNL     1      13.901   9.490  15.658  0.00  0.00    +0.196 A 
ENDBRANCH  15  18
TORSDOF 2
ENDMDL
MODEL 2
REMARK VINA RESULT:      -7.8      1.301      2.124
REMARK  Name = 11885142
REMARK  2 active torsions:
REMARK  status: ('A' for Active; 'I' for Inactive)
REMARK    1  A    between atoms: C_15  and  C_18
REMARK    2  A    between atoms: C_16  and  C_19
REMARK                            x       y       z     vdW  Elec       q    Type
REMARK                         _______ _______ _______ _____ _____    ______ ____
ROOT
ATOM      1  O   UNL     1      15.574   6.243  20.641  0.00  0.00    -0.267 OA
ATOM      2  O   UNL     1      14.006   7.771  16.647  0.00  0.00    -0.267 OA
ATOM      4  N   UNL     1      12.676   9.198  17.899  0.00  0.00    -0.294 N 
ATOM      5  N   UNL     1      14.160   8.088  20.451  0.00  0.00    -0.311 N 
ATOM      6  C   UNL     1      11.700   7.875  19.765  0.00  0.00    +0.027 C 
ATOM      7  C   UNL     1      12.659  10.097  20.213  0.00  0.00    +0.054 C 
ATOM      8  C   UNL     1      11.510   9.156  20.570  0.00  0.00    +0.018 C 
ATOM      9  C   UNL     1      13.009   7.207  20.205  0.00  0.00    +0.130 C 
ATOM     10  C   UNL     1      11.684   8.182  18.256  0.00  0.00    +0.113 C 
ATOM     11  C   UNL     1      12.609  10.428  18.706  0.00  0.00    +0.117 C 
ATOM     12  C   UNL     1      14.000   9.474  20.550  0.00  0.00    +0.027 A 
ATOM     13  C   UNL     1      15.040  10.249  20.896  0.00  0.00    +0.022 A 
ATOM     14  C   UNL     1      15.400   7.463  20.684  0.00  0.00    +0.259 A 
ATOM     15  C   UNL     1      13.637   8.916  16.910  0.00  0.00    +0.282 C 
ATOM     16  C   UNL     1      16.556   8.363  21.024  0.00  0.00    +0.047 A 
ATOM     17  C   UNL     1      16.337   9.683  21.131  0.00  0.00    +0.015 A 
ENDROOT
BRANCH  16  19
ATOM     19  C   UNL     1      17.912   7.822  21.221  0.00  0.00    -0.012 A 
ATOM     20  C   UNL     1      18.264   6.595  20.656  0.00  0.00    +0.017 A 
ATOM     22  C   UNL     1      18.843   8.534  21.972  0.00  0.00    +0.009 A 
ATOM     23  C   UNL     1      19.552   6.066  20.836  0.00  0.00    -0.017 A 
ATOM     24  C   UNL     1      20.128   8.024  22.161  0.00  0.00    +0.009 A 
ATOM     25  C   UNL     1      20.498   6.791  21.599  0.00  0.00    -0.018 A 
ATOM     28  C   UNL     1      19.923   4.833  20.274  0.00  0.00    +0.008 A 
ATOM     29  C   UNL     1      21.787   6.261  21.778  0.00  0.00    +0.008 A 
ATOM     30  C   UNL     1      21.207   4.323  20.463  0.00  0.00    +0.001 A 
ATOM     31  C   UNL     1      22.137   5.035  21.213  0.00  0.00    +0.001 A 
ENDBRANCH  16  19
BRANCH  15  18
ATOM      3  O   UNL     1      13.716  10.358  14.989  0.00  0.00    -0.458 OA
ATOM     18  C   UNL     1      14.219  10.051  16.208  0.00  0.00    +0.189 A 
ATOM     21  C   UNL     1      15.226  10.909  16.559  0.00  0.00    +0.054 A 
ATOM     26  C   UNL     1      15.356  11.814  15.479  0.00  0.00    +0.042 A 
ATOM     27  C   UNL     1      14.415  11.436  14.549  0.00  0.00    +0.196 A 
ENDBRANCH  15  18
TORSDOF 2
ENDMDL
MODEL 3
REMARK VINA RESULT:      -7.7     13.204     18.197
REMARK  Name = 11885142
REMARK  2 active torsions:
REMARK  status: ('A' for Active; 'I' for Inactive)
REMARK    1  A    between atoms: C_15  and  C_18
REMARK    2  A    between atoms: C_16  and  C_19
REMARK                            x       y       z     vdW  Elec       q    Type
REMARK                         _______ _______ _______ _____ _____    ______ ____
ROOT
ATOM      1  O   UNL     1      12.796   7.435   2.780  0.00  0.00    -0.267 OA
ATOM      2  O   UNL     1      12.658   6.530   7.241  0.00  0.00    -0.267 OA
ATOM      4  N   UNL     1      10.859   7.989   7.318  0.00  0.00    -0.294 N 
ATOM      5  N   UNL     1      11.085   8.184   4.177  0.00  0.00    -0.311 N 
ATOM      6  C   UNL     1      11.452   9.988   5.960  0.00  0.00    +0.027 C 
ATOM      7  C   UNL     1       9.235   8.949   5.705  0.00  0.00    +0.054 C 
ATOM      8  C   UNL     1       9.970  10.287   5.761  0.00  0.00    +0.018 C 
ATOM      9  C   UNL     1      11.967   9.218   4.737  0.00  0.00    +0.130 C 
ATOM     10  C   UNL     1      11.669   9.208   7.270  0.00  0.00    +0.113 C 
ATOM     11  C   UNL     1       9.427   8.195   7.037  0.00  0.00    +0.117 C 
ATOM     12  C   UNL     1       9.743   8.095   4.560  0.00  0.00    +0.027 A 
ATOM     13  C   UNL     1       8.925   7.224   3.948  0.00  0.00    +0.022 A 
ATOM     14  C   UNL     1      11.629   7.365   3.169  0.00  0.00    +0.259 A 
ATOM     15  C   UNL     1      11.482   6.746   7.535  0.00  0.00    +0.282 C 
ATOM     16  C   UNL     1      10.697   6.367   2.536  0.00  0.00    +0.047 A 
ATOM     17  C   UNL     1       9.413   6.346   2.925  0.00  0.00    +0.015 A 
ENDROOT
BRANCH  16  19
ATOM     19  C   UNL     1      11.176   5.415   1.519  0.00  0.00    -0.012 A 
ATOM     20  C   UNL     1      10.621   5.424   0.238  0.00  0.00    +0.017 A 
ATOM     22  C   UNL     1      12.181   4.506   1.835  0.00  0.00    +0.009 A 
ATOM     23  C   UNL     1      11.066   4.522  -0.743  0.00  0.00    -0.017 A 
ATOM     24  C   UNL     1      12.636   3.603   0.873  0.00  0.00    +0.009 A 
ATOM     25  C   UNL     1      12.090   3.600  -0.420  0.00  0.00    -0.018 A 
ATOM     28  C   UNL     1      10.520   4.518  -2.037  0.00  0.00    +0.008 A 
ATOM     29  C   UNL     1      12.535   2.698  -1.402  0.00  0.00    +0.008 A 
ATOM     30  C   UNL     1      10.975   3.616  -2.999  0.00  0.00    +0.001 A 
ATOM     31  C   UNL     1      11.980   2.707  -2.682  0.00  0.00    +0.001 A 
ENDBRANCH  16  19
BRANCH  15  18
ATOM      3  O   UNL     1      10.506   5.673   9.452  0.00  0.00    -0.458 OA
ATOM     18  C   UNL     1      10.665   5.685   8.107  0.00  0.00    +0.189 A 
ATOM     21  C   UNL     1       9.994   4.647   7.520  0.00  0.00    +0.054 A 
ATOM     26  C   UNL     1       9.374   3.941   8.578  0.00  0.00    +0.042 A 
ATOM     27  C   UNL     1       9.716   4.605   9.732  0.00  0.00    +0.196 A 
ENDBRANCH  15  18
TORSDOF 2
ENDMDL
MODEL 4
REMARK VINA RESULT:      -7.7     27.013     29.740
REMARK  Name = 11885142
REMARK  2 active torsions:
REMARK  status: ('A' for Active; 'I' for Inactive)
REMARK    1  A    between atoms: C_15  and  C_18
REMARK    2  A    between atoms: C_16  and  C_19
REMARK                            x       y       z     vdW  Elec       q    Type
REMARK                         _______ _______ _______ _____ _____    ______ ____
ROOT
ATOM      1  O   UNL     1      -5.795 -13.241  15.641  0.00  0.00    -0.267 OA
ATOM      2  O   UNL     1     -10.085 -11.715  15.758  0.00  0.00    -0.267 OA
ATOM      4  N   UNL     1      -9.855 -11.725  18.064  0.00  0.00    -0.294 N 
ATOM      5  N   UNL     1      -6.842 -12.537  17.603  0.00  0.00    -0.311 N 
ATOM      6  C   UNL     1      -8.744 -13.858  18.701  0.00  0.00    +0.027 C 
ATOM      7  C   UNL     1      -7.987 -11.738  19.699  0.00  0.00    +0.054 C 
ATOM      8  C   UNL     1      -8.256 -13.213  19.994  0.00  0.00    +0.018 C 
ATOM      9  C   UNL     1      -7.620 -13.783  17.660  0.00  0.00    +0.130 C 
ATOM     10  C   UNL     1     -10.033 -13.171  18.213  0.00  0.00    +0.113 C 
ATOM     11  C   UNL     1      -9.294 -11.053  19.249  0.00  0.00    +0.117 C 
ATOM     12  C   UNL     1      -6.935 -11.581  18.619  0.00  0.00    +0.027 A 
ATOM     13  C   UNL     1      -6.127 -10.508  18.611  0.00  0.00    +0.022 A 
ATOM     14  C   UNL     1      -5.931 -12.405  16.537  0.00  0.00    +0.259 A 
ATOM     15  C   UNL     1     -10.139 -11.112  16.830  0.00  0.00    +0.282 C 
ATOM     16  C   UNL     1      -5.074 -11.169  16.531  0.00  0.00    +0.047 A 
ATOM     17  C   UNL     1      -5.187 -10.300  17.547  0.00  0.00    +0.015 A 
ENDROOT
BRANCH  16  19
ATOM     19  C   UNL     1      -4.135 -10.897  15.429  0.00  0.00    -0.012 A 
ATOM     20  C   UNL     1      -4.620 -10.595  14.156  0.00  0.00    +0.017 A 
ATOM     22  C   UNL     1      -2.762 -10.942  15.657  0.00  0.00    +0.009 A 
ATOM     23  C   UNL     1      -3.738 -10.334  13.095  0.00  0.00    -0.017 A 
ATOM     24  C   UNL     1      -1.871 -10.685  14.615  0.00  0.00    +0.009 A 
ATOM     25  C   UNL     1      -2.343 -10.379  13.329  0.00  0.00    -0.018 A 
ATOM     28  C   UNL     1      -4.210 -10.027  11.808  0.00  0.00    +0.008 A 
ATOM     29  C   UNL     1      -1.460 -10.118  12.267  0.00  0.00    +0.008 A 
ATOM     30  C   UNL     1      -3.318  -9.770  10.766  0.00  0.00    +0.001 A 
ATOM     31  C   UNL     1      -1.947  -9.815  10.994  0.00  0.00    +0.001 A 
ENDBRANCH  16  19
BRANCH  15  18
ATOM      3  O   UNL     1      -9.499  -8.811  16.558  0.00  0.00    -0.458 OA
ATOM     18  C   UNL     1     -10.480  -9.696  16.855  0.00  0.00    +0.189 A 
ATOM     21  C   UNL     1     -11.657  -9.056  17.135  0.00  0.00    +0.054 A 
ATOM     26  C   UNL     1     -11.386  -7.674  17.001  0.00  0.00    +0.042 A 
ATOM     27  C   UNL     1     -10.060  -7.578  16.648  0.00  0.00    +0.196 A 
ENDBRANCH  15  18
TORSDOF 2
ENDMDL
MODEL 5
REMARK VINA RESULT:      -7.6      2.788      7.360
REMARK  Name = 11885142
REMARK  2 active torsions:
REMARK  status: ('A' for Active; 'I' for Inactive)
REMARK    1  A    between atoms: C_15  and  C_18
REMARK    2  A    between atoms: C_16  and  C_19
REMARK                            x       y       z     vdW  Elec       q    Type
REMARK                         _______ _______ _______ _____ _____    ______ ____
ROOT
ATOM      1  O   UNL     1      13.544  11.717  18.110  0.00  0.00    -0.267 OA
ATOM      2  O   UNL     1      16.179   9.489  21.083  0.00  0.00    -0.267 OA
ATOM      4  N   UNL     1      14.529   7.861  21.079  0.00  0.00    -0.294 N 
ATOM      5  N   UNL     1      13.093   9.545  18.832  0.00  0.00    -0.311 N 
ATOM      6  C   UNL     1      12.331   9.017  21.221  0.00  0.00    +0.027 C 
ATOM      7  C   UNL     1      12.650   7.189  19.603  0.00  0.00    +0.054 C 
ATOM      8  C   UNL     1      11.657   7.804  20.588  0.00  0.00    +0.018 C 
ATOM      9  C   UNL     1      12.611  10.053  20.125  0.00  0.00    +0.130 C 
ATOM     10  C   UNL     1      13.614   8.592  21.959  0.00  0.00    +0.113 C 
ATOM     11  C   UNL     1      13.914   6.732  20.360  0.00  0.00    +0.117 C 
ATOM     12  C   UNL     1      13.036   8.182  18.525  0.00  0.00    +0.027 A 
ATOM     13  C   UNL     1      13.367   7.755  17.296  0.00  0.00    +0.022 A 
ATOM     14  C   UNL     1      13.512  10.505  17.890  0.00  0.00    +0.259 A 
ATOM     15  C   UNL     1      15.853   8.313  20.921  0.00  0.00    +0.282 C 
ATOM     16  C   UNL     1      13.921   9.988  16.537  0.00  0.00    +0.047 A 
ATOM     17  C   UNL     1      13.820   8.673  16.291  0.00  0.00    +0.015 A 
ENDROOT
BRANCH  16  19
ATOM     19  C   UNL     1      14.439  10.895  15.499  0.00  0.00    -0.012 A 
ATOM     20  C   UNL     1      15.812  11.125  15.394  0.00  0.00    +0.017 A 
ATOM     22  C   UNL     1      13.560  11.524  14.622  0.00  0.00    +0.009 A 
ATOM     23  C   UNL     1      16.322  11.988  14.410  0.00  0.00    -0.017 A 
ATOM     24  C   UNL     1      14.049  12.384  13.638  0.00  0.00    +0.009 A 
ATOM     25  C   UNL     1      15.427  12.625  13.519  0.00  0.00    -0.018 A 
ATOM     28  C   UNL     1      17.700  12.230  14.290  0.00  0.00    +0.008 A 
ATOM     29  C   UNL     1      15.937  13.488  12.534  0.00  0.00    +0.008 A 
ATOM     30  C   UNL     1      18.189  13.090  13.306  0.00  0.00    +0.001 A 
ATOM     31  C   UNL     1      17.309  13.718  12.430  0.00  0.00    +0.001 A 
ENDBRANCH  16  19
BRANCH  15  18
ATOM      3  O   UNL     1      16.708   6.760  19.298  0.00  0.00    -0.458 OA
ATOM     18  C   UNL     1      16.847   7.327  20.520  0.00  0.00    +0.189 A 
ATOM     21  C   UNL     1      17.947   6.839  21.171  0.00  0.00    +0.054 A 
ATOM     26  C   UNL     1      18.533   5.902  20.288  0.00  0.00    +0.042 A 
ATOM     27  C   UNL     1      17.742   5.890  19.163  0.00  0.00    +0.196 A 
ENDBRANCH  15  18
TORSDOF 2
ENDMDL
MODEL 6
REMARK VINA RESULT:      -7.5     17.555     20.984
REMARK  Name = 11885142
REMARK  2 active torsions:
REMARK  status: ('A' for Active; 'I' for Inactive)
REMARK    1  A    between atoms: C_15  and  C_18
REMARK    2  A    between atoms: C_16  and  C_19
REMARK                            x       y       z     vdW  Elec       q    Type
REMARK                         _______ _______ _______ _____ _____    ______ ____
ROOT
ATOM      1  O   UNL     1      12.235   7.790   2.587  0.00  0.00    -0.267 OA
ATOM      2  O   UNL     1      12.848   6.459  -1.725  0.00  0.00    -0.267 OA
ATOM      4  N   UNL     1      13.581   4.450  -0.830  0.00  0.00    -0.294 N 
ATOM      5  N   UNL     1      12.800   5.605   1.999  0.00  0.00    -0.311 N 
ATOM      6  C   UNL     1      15.103   4.980   1.065  0.00  0.00    +0.027 C 
ATOM      7  C   UNL     1      13.376   3.246   1.331  0.00  0.00    +0.054 C 
ATOM      8  C   UNL     1      14.821   3.609   1.670  0.00  0.00    +0.018 C 
ATOM      9  C   UNL     1      14.188   6.012   1.736  0.00  0.00    +0.130 C 
ATOM     10  C   UNL     1      14.911   4.942  -0.463  0.00  0.00    +0.113 C 
ATOM     11  C   UNL     1      13.206   3.172  -0.201  0.00  0.00    +0.117 C 
ATOM     12  C   UNL     1      12.409   4.266   1.899  0.00  0.00    +0.027 A 
ATOM     13  C   UNL     1      11.169   3.898   2.261  0.00  0.00    +0.022 A 
ATOM     14  C   UNL     1      11.920   6.607   2.453  0.00  0.00    +0.259 A 
ATOM     15  C   UNL     1      12.753   5.233  -1.656  0.00  0.00    +0.282 C 
ATOM     16  C   UNL     1      10.524   6.169   2.806  0.00  0.00    +0.047 A 
ATOM     17  C   UNL     1      10.215   4.866   2.716  0.00  0.00    +0.015 A 
ENDROOT
BRANCH  16  19
ATOM     19  C   UNL     1       9.503   7.143   3.228  0.00  0.00    -0.012 A 
ATOM     20  C   UNL     1       8.807   7.884   2.271  0.00  0.00    +0.017 A 
ATOM     22  C   UNL     1       9.232   7.325   4.581  0.00  0.00    +0.009 A 
ATOM     23  C   UNL     1       7.831   8.817   2.657  0.00  0.00    -0.017 A 
ATOM     24  C   UNL     1       8.265   8.247   4.983  0.00  0.00    +0.009 A 
ATOM     25  C   UNL     1       7.556   9.000   4.033  0.00  0.00    -0.018 A 
ATOM     28  C   UNL     1       7.121   9.571   1.708  0.00  0.00    +0.008 A 
ATOM     29  C   UNL     1       6.579   9.934   4.420  0.00  0.00    +0.008 A 
ATOM     30  C   UNL     1       6.154  10.493   2.110  0.00  0.00    +0.001 A 
ATOM     31  C   UNL     1       5.884  10.674   3.463  0.00  0.00    +0.001 A 
ENDBRANCH  16  19
BRANCH  15  18
ATOM      3  O   UNL     1      12.143   3.806  -3.491  0.00  0.00    -0.458 OA
ATOM     18  C   UNL     1      11.733   4.535  -2.426  0.00  0.00    +0.189 A 
ATOM     21  C   UNL     1      10.374   4.470  -2.274  0.00  0.00    +0.054 A 
ATOM     26  C   UNL     1       9.908   3.640  -3.321  0.00  0.00    +0.042 A 
ATOM     27  C   UNL     1      11.023   3.262  -4.033  0.00  0.00    +0.196 A 
ENDBRANCH  15  18
TORSDOF 2
ENDMDL
MODEL 7
REMARK VINA RESULT:      -7.3     26.406     29.173
REMARK  Name = 11885142
REMARK  2 active torsions:
REMARK  status: ('A' for Active; 'I' for Inactive)
REMARK    1  A    between atoms: C_15  and  C_18
REMARK    2  A    between atoms: C_16  and  C_19
REMARK                            x       y       z     vdW  Elec       q    Type
REMARK                         _______ _______ _______ _____ _____    ______ ____
ROOT
ATOM      1  O   UNL     1     -13.138   9.715  20.616  0.00  0.00    -0.267 OA
ATOM      2  O   UNL     1     -14.452  10.890  16.417  0.00  0.00    -0.267 OA
ATOM      4  N   UNL     1     -12.192  11.018  15.920  0.00  0.00    -0.294 N 
ATOM      5  N   UNL     1     -11.650   9.939  18.834  0.00  0.00    -0.311 N 
ATOM      6  C   UNL     1     -11.074  12.210  17.796  0.00  0.00    +0.027 C 
ATOM      7  C   UNL     1     -10.073  10.155  16.882  0.00  0.00    +0.054 C 
ATOM      8  C   UNL     1      -9.752  11.547  17.424  0.00  0.00    +0.018 C 
ATOM      9  C   UNL     1     -11.729  11.404  18.925  0.00  0.00    +0.130 C 
ATOM     10  C   UNL     1     -11.985  12.320  16.559  0.00  0.00    +0.113 C 
ATOM     11  C   UNL     1     -10.953  10.280  15.621  0.00  0.00    +0.117 C 
ATOM     12  C   UNL     1     -10.792   9.317  17.921  0.00  0.00    +0.027 A 
ATOM     13  C   UNL     1     -10.644   7.983  17.937  0.00  0.00    +0.022 A 
ATOM     14  C   UNL     1     -12.397   9.204  19.774  0.00  0.00    +0.259 A 
ATOM     15  C   UNL     1     -13.501  10.542  15.717  0.00  0.00    +0.282 C 
ATOM     16  C   UNL     1     -12.245   7.707  19.735  0.00  0.00    +0.047 A 
ATOM     17  C   UNL     1     -11.386   7.169  18.856  0.00  0.00    +0.015 A 
ENDROOT
BRANCH  16  19
ATOM     19  C   UNL     1     -13.029   6.837  20.628  0.00  0.00    -0.012 A 
ATOM     20  C   UNL     1     -14.424   6.855  20.573  0.00  0.00    +0.017 A 
ATOM     22  C   UNL     1     -12.380   5.997  21.528  0.00  0.00    +0.009 A 
ATOM     23  C   UNL     1     -15.186   6.031  21.418  0.00  0.00    -0.017 A 
ATOM     24  C   UNL     1     -13.120   5.172  22.375  0.00  0.00    +0.009 A 
ATOM     25  C   UNL     1     -14.524   5.177  22.332  0.00  0.00    -0.018 A 
ATOM     28  C   UNL     1     -16.590   6.036  21.375  0.00  0.00    +0.008 A 
ATOM     29  C   UNL     1     -15.286   4.353  23.177  0.00  0.00    +0.008 A 
ATOM     30  C   UNL     1     -17.330   5.211  22.222  0.00  0.00    +0.001 A 
ATOM     31  C   UNL     1     -16.681   4.372  23.122  0.00  0.00    +0.001 A 
ENDBRANCH  16  19
BRANCH  15  18
ATOM      3  O   UNL     1     -13.709  10.045  13.375  0.00  0.00    -0.458 OA
ATOM     18  C   UNL     1     -13.697   9.576  14.645  0.00  0.00    +0.189 A 
ATOM     21  C   UNL     1     -13.881   8.220  14.675  0.00  0.00    +0.054 A 
ATOM     26  C   UNL     1     -14.016   7.820  13.325  0.00  0.00    +0.042 A 
ATOM     27  C   UNL     1     -13.904   8.966  12.573  0.00  0.00    +0.196 A 
ENDBRANCH  15  18
TORSDOF 2
ENDMDL
MODEL 8
REMARK VINA RESULT:      -7.3     28.157     30.298
REMARK  Name = 11885142
REMARK  2 active torsions:
REMARK  status: ('A' for Active; 'I' for Inactive)
REMARK    1  A    between atoms: C_15  and  C_18
REMARK    2  A    between atoms: C_16  and  C_19
REMARK                            x       y       z     vdW  Elec       q    Type
REMARK                         _______ _______ _______ _____ _____    ______ ____
ROOT
ATOM      1  O   UNL     1      -7.474 -12.428  14.608  0.00  0.00    -0.267 OA
ATOM      2  O   UNL     1     -11.519 -10.348  14.836  0.00  0.00    -0.267 OA
ATOM      4  N   UNL     1     -11.195 -10.321  17.131  0.00  0.00    -0.294 N 
ATOM      5  N   UNL     1      -8.335 -11.535  16.583  0.00  0.00    -0.311 N 
ATOM      6  C   UNL     1     -10.345 -12.561  17.798  0.00  0.00    +0.027 C 
ATOM      7  C   UNL     1      -9.276 -10.532  18.692  0.00  0.00    +0.054 C 
ATOM      8  C   UNL     1      -9.723 -11.949  19.048  0.00  0.00    +0.018 C 
ATOM      9  C   UNL     1      -9.266 -12.666  16.712  0.00  0.00    +0.130 C 
ATOM     10  C   UNL     1     -11.553 -11.726  17.336  0.00  0.00    +0.113 C 
ATOM     11  C   UNL     1     -10.501  -9.694  18.270  0.00  0.00    +0.117 C 
ATOM     12  C   UNL     1      -8.259 -10.546  17.568  0.00  0.00    +0.027 A 
ATOM     13  C   UNL     1      -7.320  -9.590  17.492  0.00  0.00    +0.022 A 
ATOM     14  C   UNL     1      -7.462 -11.556  15.479  0.00  0.00    +0.259 A 
ATOM     15  C   UNL     1     -11.448  -9.711  15.888  0.00  0.00    +0.282 C 
ATOM     16  C   UNL     1      -6.451 -10.444  15.397  0.00  0.00    +0.047 A 
ATOM     17  C   UNL     1      -6.407  -9.538  16.387  0.00  0.00    +0.015 A 
ENDROOT
BRANCH  16  19
ATOM     19  C   UNL     1      -5.532 -10.330  14.251  0.00  0.00    -0.012 A 
ATOM     20  C   UNL     1      -5.934  -9.654  13.098  0.00  0.00    +0.017 A 
ATOM     22  C   UNL     1      -4.263 -10.898  14.318  0.00  0.00    +0.009 A 
ATOM     23  C   UNL     1      -5.070  -9.537  11.997  0.00  0.00    -0.017 A 
ATOM     24  C   UNL     1      -3.391 -10.792  13.234  0.00  0.00    +0.009 A 
ATOM     25  C   UNL     1      -3.779 -10.114  12.067  0.00  0.00    -0.018 A 
ATOM     28  C   UNL     1      -5.457  -8.859  10.830  0.00  0.00    +0.008 A 
ATOM     29  C   UNL     1      -2.915  -9.998  10.965  0.00  0.00    +0.008 A 
ATOM     30  C   UNL     1      -4.585  -8.753   9.746  0.00  0.00    +0.001 A 
ATOM     31  C   UNL     1      -3.317  -9.321   9.813  0.00  0.00    +0.001 A 
ENDBRANCH  16  19
BRANCH  15  18
ATOM      3  O   UNL     1     -10.502  -7.521  15.601  0.00  0.00    -0.458 OA
ATOM     18  C   UNL     1     -11.600  -8.263  15.878  0.00  0.00    +0.189 A 
ATOM     21  C   UNL     1     -12.691  -7.469  16.105  0.00  0.00    +0.054 A 
ATOM     26  C   UNL     1     -12.236  -6.137  15.957  0.00  0.00    +0.042 A 
ATOM     27  C   UNL     1     -10.898  -6.223  15.651  0.00  0.00    +0.196 A 
ENDBRANCH  15  18
TORSDOF 2
ENDMDL
MODEL 9
REMARK VINA RESULT:      -7.2     27.623     30.084
REMARK  Name = 11885142
REMARK  2 active torsions:
REMARK  status: ('A' for Active; 'I' for Inactive)
REMARK    1  A    between atoms: C_15  and  C_18
REMARK    2  A    between atoms: C_16  and  C_19
REMARK                            x       y       z     vdW  Elec       q    Type
REMARK                         _______ _______ _______ _____ _____    ______ ____
ROOT
ATOM      1  O   UNL     1      -4.548 -13.200   9.761  0.00  0.00    -0.267 OA
ATOM      2  O   UNL     1      -5.904 -13.337  14.107  0.00  0.00    -0.267 OA
ATOM      4  N   UNL     1      -3.664 -13.078  14.645  0.00  0.00    -0.294 N 
ATOM      5  N   UNL     1      -3.118 -12.771  11.553  0.00  0.00    -0.311 N 
ATOM      6  C   UNL     1      -2.356 -14.601  13.177  0.00  0.00    +0.027 C 
ATOM      7  C   UNL     1      -1.607 -12.279  13.507  0.00  0.00    +0.054 C 
ATOM      8  C   UNL     1      -1.124 -13.722  13.368  0.00  0.00    +0.018 C 
ATOM      9  C   UNL     1      -3.043 -14.206  11.863  0.00  0.00    +0.130 C 
ATOM     10  C   UNL     1      -3.299 -14.473  14.387  0.00  0.00    +0.113 C 
ATOM     11  C   UNL     1      -2.519 -12.155  14.745  0.00  0.00    +0.117 C 
ATOM     12  C   UNL     1      -2.366 -11.836  12.272  0.00  0.00    +0.027 A 
ATOM     13  C   UNL     1      -2.355 -10.548  11.895  0.00  0.00    +0.022 A 
ATOM     14  C   UNL     1      -3.898 -12.403  10.440  0.00  0.00    +0.259 A 
ATOM     15  C   UNL     1      -5.021 -12.711  14.696  0.00  0.00    +0.282 C 
ATOM     16  C   UNL     1      -3.902 -10.944  10.072  0.00  0.00    +0.047 A 
ATOM     17  C   UNL     1      -3.139 -10.098  10.781  0.00  0.00    +0.015 A 
ENDROOT
BRANCH  16  19
ATOM     19  C   UNL     1      -4.735 -10.437   8.968  0.00  0.00    -0.012 A 
ATOM     20  C   UNL     1      -5.694  -9.453   9.210  0.00  0.00    +0.017 A 
ATOM     22  C   UNL     1      -4.566 -10.942   7.681  0.00  0.00    +0.009 A 
ATOM     23  C   UNL     1      -6.495  -8.960   8.168  0.00  0.00    -0.017 A 
ATOM     24  C   UNL     1      -5.353 -10.464   6.633  0.00  0.00    +0.009 A 
ATOM     25  C   UNL     1      -6.322  -9.473   6.860  0.00  0.00    -0.018 A 
ATOM     28  C   UNL     1      -7.464  -7.969   8.394  0.00  0.00    +0.008 A 
ATOM     29  C   UNL     1      -7.124  -8.980   5.817  0.00  0.00    +0.008 A 
ATOM     30  C   UNL     1      -8.252  -7.491   7.345  0.00  0.00    +0.001 A 
ATOM     31  C   UNL     1      -8.082  -7.995   6.060  0.00  0.00    +0.001 A 
ENDBRANCH  16  19
BRANCH  15  18
ATOM      3  O   UNL     1      -5.391 -11.632  16.811  0.00  0.00    -0.458 OA
ATOM     18  C   UNL     1      -5.358 -11.519  15.462  0.00  0.00    +0.189 A 
ATOM     21  C   UNL     1      -5.664 -10.246  15.063  0.00  0.00    +0.054 A 
ATOM     26  C   UNL     1      -5.902  -9.517  16.252  0.00  0.00    +0.042 A 
ATOM     27  C   UNL     1      -5.724 -10.404  17.287  0.00  0.00    +0.196 A 
ENDBRANCH  15  18
TORSDOF 2
ENDMDL
MODEL 10
REMARK VINA RESULT:      -7.2     26.922     30.079
REMARK  Name = 11885142
REMARK  2 active torsions:
REMARK  status: ('A' for Active; 'I' for Inactive)
REMARK    1  A    between atoms: C_15  and  C_18
REMARK    2  A    between atoms: C_16  and  C_19
REMARK                            x       y       z     vdW  Elec       q    Type
REMARK                         _______ _______ _______ _____ _____    ______ ____
ROOT
ATOM      1  O   UNL     1      -6.708 -10.135  14.148  0.00  0.00    -0.267 OA
ATOM      2  O   UNL     1      -4.883 -14.142  12.983  0.00  0.00    -0.267 OA
ATOM      4  N   UNL     1      -2.829 -13.098  13.235  0.00  0.00    -0.294 N 
ATOM      5  N   UNL     1      -4.418 -10.566  14.246  0.00  0.00    -0.311 N 
ATOM      6  C   UNL     1      -2.981 -10.867  12.145  0.00  0.00    +0.027 C 
ATOM      7  C   UNL     1      -1.954 -11.073  14.373  0.00  0.00    +0.054 C 
ATOM      8  C   UNL     1      -1.840 -10.364  13.024  0.00  0.00    +0.018 C 
ATOM      9  C   UNL     1      -4.313 -10.454  12.784  0.00  0.00    +0.130 C 
ATOM     10  C   UNL     1      -2.877 -12.391  11.953  0.00  0.00    +0.113 C 
ATOM     11  C   UNL     1      -1.809 -12.596  14.172  0.00  0.00    +0.117 C 
ATOM     12  C   UNL     1      -3.283 -10.773  15.037  0.00  0.00    +0.027 A 
ATOM     13  C   UNL     1      -3.383 -10.751  16.376  0.00  0.00    +0.022 A 
ATOM     14  C   UNL     1      -5.691 -10.354  14.809  0.00  0.00    +0.259 A 
ATOM     15  C   UNL     1      -3.770 -14.108  13.509  0.00  0.00    +0.282 C 
ATOM     16  C   UNL     1      -5.777 -10.382  16.311  0.00  0.00    +0.047 A 
ATOM     17  C   UNL     1      -4.650 -10.557  17.019  0.00  0.00    +0.015 A 
ENDROOT
BRANCH  16  19
ATOM     19  C   UNL     1      -7.069 -10.238  17.004  0.00  0.00    -0.012 A 
ATOM     20  C   UNL     1      -7.481 -11.206  17.921  0.00  0.00    +0.017 A 
ATOM     22  C   UNL     1      -7.879  -9.137  16.744  0.00  0.00    +0.009 A 
ATOM     23  C   UNL     1      -8.710 -11.083  18.590  0.00  0.00    -0.017 A 
ATOM     24  C   UNL     1      -9.103  -8.998  17.398  0.00  0.00    +0.009 A 
ATOM     25  C   UNL     1      -9.532  -9.962  18.325  0.00  0.00    -0.018 A 
ATOM     28  C   UNL     1      -9.140 -12.047  19.516  0.00  0.00    +0.008 A 
ATOM     29  C   UNL     1     -10.762  -9.839  18.993  0.00  0.00    +0.008 A 
ATOM     30  C   UNL     1     -10.365 -11.908  20.171  0.00  0.00    +0.001 A 
ATOM     31  C   UNL     1     -11.174 -10.807  19.910  0.00  0.00    +0.001 A 
ENDBRANCH  16  19
BRANCH  15  18
ATOM      3  O   UNL     1      -2.271 -15.841  14.232  0.00  0.00    -0.458 OA
ATOM     18  C   UNL     1      -3.390 -15.122  14.483  0.00  0.00    +0.189 A 
ATOM     21  C   UNL     1      -3.975 -15.508  15.658  0.00  0.00    +0.054 A 
ATOM     26  C   UNL     1      -3.157 -16.541  16.174  0.00  0.00    +0.042 A 
ATOM     27  C   UNL     1      -2.134 -16.706  15.269  0.00  0.00    +0.196 A 
ENDBRANCH  15  18
TORSDOF 2
ENDMDL
