MODEL 1
REMARK VINA RESULT:      -6.8      0.000      0.000
REMARK  Name = 51137765
REMARK  7 active torsions:
REMARK  status: ('A' for Active; 'I' for Inactive)
REMARK    1  A    between atoms: O_4  and  C_20
REMARK    2  A    between atoms: O_4  and  C_28
REMARK    3  A    between atoms: O_5  and  C_22
REMARK    4  A    between atoms: O_5  and  C_29
REMARK    5  A    between atoms: C_9  and  C_13
REMARK    6  A    between atoms: C_14  and  C_15
REMARK    7  A    between atoms: C_16  and  C_19
REMARK                            x       y       z     vdW  Elec       q    Type
REMARK                         _______ _______ _______ _____ _____    ______ ____
ROOT
ATOM      3  O   UNL     1      13.258  10.594  20.512  0.00  0.00    -0.270 OA
ATOM      6  N   UNL     1      14.345   8.564  20.210  0.00  0.00    -0.297 N 
ATOM      9  C   UNL     1      15.812   6.702  20.411  0.00  0.00    +0.095 C 
ATOM     10  C   UNL     1      14.882   6.761  21.634  0.00  0.00    +0.033 C 
ATOM     11  C   UNL     1      15.062   7.579  19.399  0.00  0.00    +0.121 C 
ATOM     12  C   UNL     1      14.344   8.186  21.614  0.00  0.00    +0.109 C 
ATOM     14  C   UNL     1      13.789   9.760  19.782  0.00  0.00    +0.247 C 
ENDROOT
BRANCH  14  15
ATOM     15  C   UNL     1      13.852  10.062  18.344  0.00  0.00    +0.041 A 
ATOM     17  C   UNL     1      12.932   9.484  17.469  0.00  0.00    +0.062 A 
ATOM     18  C   UNL     1      14.832  10.926  17.854  0.00  0.00    +0.017 A 
ATOM     20  C   UNL     1      12.991   9.769  16.105  0.00  0.00    +0.162 A 
ATOM     21  C   UNL     1      14.891  11.212  16.490  0.00  0.00    +0.050 A 
ATOM     22  C   UNL     1      13.971  10.634  15.616  0.00  0.00    +0.162 A 
BRANCH  20   4
ATOM      4  O   UNL     1      12.087   9.199  15.261  0.00  0.00    -0.491 OA
ATOM     28  C   UNL     1      10.768   8.998  15.764  0.00  0.00    +0.277 C 
ENDBRANCH  20   4
BRANCH  22   5
ATOM      5  O   UNL     1      14.040  10.921  14.286  0.00  0.00    -0.491 OA
ATOM     29  C   UNL     1      14.883  12.005  13.900  0.00  0.00    +0.277 C 
ENDBRANCH  22   5
ENDBRANCH  14  15
BRANCH   9  13
ATOM      2  O   UNL     1      18.127   6.135  20.997  0.00  0.00    -0.420 OA
ATOM      7  N   UNL     1      17.733   8.334  20.873  0.00  0.00    -0.112 NA
ATOM      8  N   UNL     1      19.063   8.156  21.207  0.00  0.00    -0.107 NA
ATOM     13  C   UNL     1      17.227   7.127  20.761  0.00  0.00    +0.222 A 
ATOM     16  C   UNL     1      19.248   6.858  21.269  0.00  0.00    +0.251 A 
BRANCH  16  19
ATOM      1  F   UNL     1      20.368   6.817  23.839  0.00  0.00    -0.205 F 
ATOM     19  C   UNL     1      20.427   6.099  21.572  0.00  0.00    +0.074 A 
ATOM     23  C   UNL     1      20.953   6.107  22.864  0.00  0.00    +0.136 A 
ATOM     24  C   UNL     1      21.048   5.355  20.570  0.00  0.00    +0.016 A 
ATOM     25  C   UNL     1      22.101   5.368  23.154  0.00  0.00    +0.039 A 
ATOM     26  C   UNL     1      22.196   4.616  20.859  0.00  0.00    +0.001 A 
ATOM     27  C   UNL     1      22.722   4.623  22.151  0.00  0.00    +0.003 A 
ENDBRANCH  16  19
ENDBRANCH   9  13
TORSDOF 5
ENDMDL
MODEL 2
REMARK VINA RESULT:      -6.8      5.318      8.013
REMARK  Name = 51137765
REMARK  7 active torsions:
REMARK  status: ('A' for Active; 'I' for Inactive)
REMARK    1  A    between atoms: O_4  and  C_20
REMARK    2  A    between atoms: O_4  and  C_28
REMARK    3  A    between atoms: O_5  and  C_22
REMARK    4  A    between atoms: O_5  and  C_29
REMARK    5  A    between atoms: C_9  and  C_13
REMARK    6  A    between atoms: C_14  and  C_15
REMARK    7  A    between atoms: C_16  and  C_19
REMARK                            x       y       z     vdW  Elec       q    Type
REMARK                         _______ _______ _______ _____ _____    ______ ____
ROOT
ATOM      3  O   UNL     1      14.199  10.420  22.853  0.00  0.00    -0.270 OA
ATOM      6  N   UNL     1      12.578   9.280  21.643  0.00  0.00    -0.297 N 
ATOM      9  C   UNL     1      11.432   7.972  20.019  0.00  0.00    +0.095 C 
ATOM     10  C   UNL     1      12.387   7.076  20.823  0.00  0.00    +0.033 C 
ATOM     11  C   UNL     1      11.300   9.197  20.934  0.00  0.00    +0.121 C 
ATOM     12  C   UNL     1      13.351   8.060  21.474  0.00  0.00    +0.109 C 
ATOM     14  C   UNL     1      13.087  10.369  22.333  0.00  0.00    +0.247 C 
ENDROOT
BRANCH  14  15
ATOM     15  C   UNL     1      12.235  11.564  22.440  0.00  0.00    +0.041 A 
ATOM     17  C   UNL     1      11.497  11.793  23.601  0.00  0.00    +0.062 A 
ATOM     18  C   UNL     1      12.166  12.468  21.379  0.00  0.00    +0.017 A 
ATOM     20  C   UNL     1      10.689  12.926  23.701  0.00  0.00    +0.162 A 
ATOM     21  C   UNL     1      11.358  13.601  21.480  0.00  0.00    +0.050 A 
ATOM     22  C   UNL     1      10.620  13.830  22.641  0.00  0.00    +0.162 A 
BRANCH  20   4
ATOM      4  O   UNL     1       9.974  13.139  24.841  0.00  0.00    -0.491 OA
ATOM     28  C   UNL     1      10.614  13.877  25.879  0.00  0.00    +0.277 C 
ENDBRANCH  20   4
BRANCH  22   5
ATOM      5  O   UNL     1       9.835  14.940  22.726  0.00  0.00    -0.491 OA
ATOM     29  C   UNL     1       8.603  14.919  22.006  0.00  0.00    +0.277 C 
ENDBRANCH  22   5
ENDBRANCH  14  15
BRANCH   9  13
ATOM      2  O   UNL     1      12.770   9.300  18.447  0.00  0.00    -0.420 OA
ATOM      7  N   UNL     1      11.729   7.557  17.507  0.00  0.00    -0.112 NA
ATOM      8  N   UNL     1      12.440   8.214  16.520  0.00  0.00    -0.107 NA
ATOM     13  C   UNL     1      11.951   8.227  18.615  0.00  0.00    +0.222 A 
ATOM     16  C   UNL     1      13.032   9.224  17.113  0.00  0.00    +0.251 A 
BRANCH  16  19
ATOM      1  F   UNL     1      13.200  11.777  18.259  0.00  0.00    -0.205 F 
ATOM     19  C   UNL     1      13.895  10.240  16.583  0.00  0.00    +0.074 A 
ATOM     23  C   UNL     1      13.949  11.498  17.182  0.00  0.00    +0.136 A 
ATOM     24  C   UNL     1      14.680   9.965  15.463  0.00  0.00    +0.016 A 
ATOM     25  C   UNL     1      14.789  12.482  16.662  0.00  0.00    +0.039 A 
ATOM     26  C   UNL     1      15.520  10.950  14.942  0.00  0.00    +0.001 A 
ATOM     27  C   UNL     1      15.574  12.208  15.542  0.00  0.00    +0.003 A 
ENDBRANCH  16  19
ENDBRANCH   9  13
TORSDOF 5
ENDMDL
MODEL 3
REMARK VINA RESULT:      -6.7     29.447     32.795
REMARK  Name = 51137765
REMARK  7 active torsions:
REMARK  status: ('A' for Active; 'I' for Inactive)
REMARK    1  A    between atoms: O_4  and  C_20
REMARK    2  A    between atoms: O_4  and  C_28
REMARK    3  A    between atoms: O_5  and  C_22
REMARK    4  A    between atoms: O_5  and  C_29
REMARK    5  A    between atoms: C_9  and  C_13
REMARK    6  A    between atoms: C_14  and  C_15
REMARK    7  A    between atoms: C_16  and  C_19
REMARK                            x       y       z     vdW  Elec       q    Type
REMARK                         _______ _______ _______ _____ _____    ______ ____
ROOT
ATOM      3  O   UNL     1     -16.160   6.073  33.642  0.00  0.00    -0.270 OA
ATOM      6  N   UNL     1     -14.131   7.131  33.244  0.00  0.00    -0.297 N 
ATOM      9  C   UNL     1     -12.448   8.723  32.705  0.00  0.00    +0.095 C 
ATOM     10  C   UNL     1     -13.142   9.129  34.015  0.00  0.00    +0.033 C 
ATOM     11  C   UNL     1     -12.826   7.240  32.591  0.00  0.00    +0.121 C 
ATOM     12  C   UNL     1     -14.440   8.332  34.003  0.00  0.00    +0.109 C 
ATOM     14  C   UNL     1     -15.042   6.091  33.134  0.00  0.00    +0.247 C 
ENDROOT
BRANCH  14  15
ATOM     15  C   UNL     1     -14.645   4.923  32.333  0.00  0.00    +0.041 A 
ATOM     17  C   UNL     1     -15.121   4.776  31.030  0.00  0.00    +0.062 A 
ATOM     18  C   UNL     1     -13.792   3.961  32.877  0.00  0.00    +0.017 A 
ATOM     20  C   UNL     1     -14.745   3.668  30.271  0.00  0.00    +0.162 A 
ATOM     21  C   UNL     1     -13.416   2.853  32.117  0.00  0.00    +0.050 A 
ATOM     22  C   UNL     1     -13.892   2.706  30.814  0.00  0.00    +0.162 A 
BRANCH  20   4
ATOM      4  O   UNL     1     -15.216   3.536  29.000  0.00  0.00    -0.491 OA
ATOM     28  C   UNL     1     -16.459   4.167  28.700  0.00  0.00    +0.277 C 
ENDBRANCH  20   4
BRANCH  22   5
ATOM      5  O   UNL     1     -13.518   1.619  30.084  0.00  0.00    -0.491 OA
ATOM     29  C   UNL     1     -14.071   0.361  30.464  0.00  0.00    +0.277 C 
ENDBRANCH  22   5
ENDBRANCH  14  15
BRANCH   9  13
ATOM      2  O   UNL     1     -12.202   9.447  30.373  0.00  0.00    -0.420 OA
ATOM      7  N   UNL     1     -13.780  10.556  31.507  0.00  0.00    -0.112 NA
ATOM      8  N   UNL     1     -13.747  11.059  30.220  0.00  0.00    -0.107 NA
ATOM     13  C   UNL     1     -12.861   9.619  31.551  0.00  0.00    +0.222 A 
ATOM     16  C   UNL     1     -12.812  10.383  29.593  0.00  0.00    +0.251 A 
BRANCH  16  19
ATOM      1  F   UNL     1     -14.570  10.413  27.410  0.00  0.00    -0.205 F 
ATOM     19  C   UNL     1     -12.343  10.476  28.241  0.00  0.00    +0.074 A 
ATOM     23  C   UNL     1     -13.251  10.487  27.183  0.00  0.00    +0.136 A 
ATOM     24  C   UNL     1     -10.974  10.555  27.987  0.00  0.00    +0.016 A 
ATOM     25  C   UNL     1     -12.790  10.577  25.869  0.00  0.00    +0.039 A 
ATOM     26  C   UNL     1     -10.512  10.644  26.673  0.00  0.00    +0.001 A 
ATOM     27  C   UNL     1     -11.421  10.655  25.615  0.00  0.00    +0.003 A 
ENDBRANCH  16  19
ENDBRANCH   9  13
TORSDOF 5
ENDMDL
MODEL 4
REMARK VINA RESULT:      -6.6     28.554     30.841
REMARK  Name = 51137765
REMARK  7 active torsions:
REMARK  status: ('A' for Active; 'I' for Inactive)
REMARK    1  A    between atoms: O_4  and  C_20
REMARK    2  A    between atoms: O_4  and  C_28
REMARK    3  A    between atoms: O_5  and  C_22
REMARK    4  A    between atoms: O_5  and  C_29
REMARK    5  A    between atoms: C_9  and  C_13
REMARK    6  A    between atoms: C_14  and  C_15
REMARK    7  A    between atoms: C_16  and  C_19
REMARK                            x       y       z     vdW  Elec       q    Type
REMARK                         _______ _______ _______ _____ _____    ______ ____
ROOT
ATOM      3  O   UNL     1      -4.444 -13.962  15.531  0.00  0.00    -0.270 OA
ATOM      6  N   UNL     1      -4.654 -12.131  16.945  0.00  0.00    -0.297 N 
ATOM      9  C   UNL     1      -5.361 -10.618  18.639  0.00  0.00    +0.095 C 
ATOM     10  C   UNL     1      -4.745 -11.867  19.288  0.00  0.00    +0.033 C 
ATOM     11  C   UNL     1      -4.814 -10.700  17.207  0.00  0.00    +0.121 C 
ATOM     12  C   UNL     1      -4.762 -12.904  18.172  0.00  0.00    +0.109 C 
ATOM     14  C   UNL     1      -4.502 -12.747  15.712  0.00  0.00    +0.247 C 
ENDROOT
BRANCH  14  15
ATOM     15  C   UNL     1      -4.416 -11.881  14.526  0.00  0.00    +0.041 A 
ATOM     17  C   UNL     1      -5.568 -11.577  13.800  0.00  0.00    +0.062 A 
ATOM     18  C   UNL     1      -3.183 -11.365  14.126  0.00  0.00    +0.017 A 
ATOM     20  C   UNL     1      -5.487 -10.757  12.675  0.00  0.00    +0.162 A 
ATOM     21  C   UNL     1      -3.102 -10.544  13.001  0.00  0.00    +0.050 A 
ATOM     22  C   UNL     1      -4.254 -10.240  12.275  0.00  0.00    +0.162 A 
BRANCH  20   4
ATOM      4  O   UNL     1      -6.618 -10.467  11.974  0.00  0.00    -0.491 OA
ATOM     28  C   UNL     1      -7.541  -9.563  12.579  0.00  0.00    +0.277 C 
ENDBRANCH  20   4
BRANCH  22   5
ATOM      5  O   UNL     1      -4.160  -9.439  11.178  0.00  0.00    -0.491 OA
ATOM     29  C   UNL     1      -2.927  -9.459  10.463  0.00  0.00    +0.277 C 
ENDBRANCH  22   5
ENDBRANCH  14  15
BRANCH   9  13
ATOM      2  O   UNL     1      -7.566  -9.832  17.900  0.00  0.00    -0.420 OA
ATOM      7  N   UNL     1      -7.636 -11.214  19.658  0.00  0.00    -0.112 NA
ATOM      8  N   UNL     1      -8.933 -10.851  19.349  0.00  0.00    -0.107 NA
ATOM     13  C   UNL     1      -6.872 -10.595  18.787  0.00  0.00    +0.222 A 
ATOM     16  C   UNL     1      -8.845 -10.043  18.317  0.00  0.00    +0.251 A 
BRANCH  16  19
ATOM      1  F   UNL     1     -11.006 -11.412  17.170  0.00  0.00    -0.205 F 
ATOM     19  C   UNL     1      -9.868  -9.364  17.577  0.00  0.00    +0.074 A 
ATOM     23  C   UNL     1     -10.926 -10.082  17.021  0.00  0.00    +0.136 A 
ATOM     24  C   UNL     1      -9.800  -7.980  17.412  0.00  0.00    +0.016 A 
ATOM     25  C   UNL     1     -11.918  -9.416  16.300  0.00  0.00    +0.039 A 
ATOM     26  C   UNL     1     -10.792  -7.314  16.691  0.00  0.00    +0.001 A 
ATOM     27  C   UNL     1     -11.850  -8.033  16.136  0.00  0.00    +0.003 A 
ENDBRANCH  16  19
ENDBRANCH   9  13
TORSDOF 5
ENDMDL
MODEL 5
REMARK VINA RESULT:      -6.6     27.820     29.482
REMARK  Name = 51137765
REMARK  7 active torsions:
REMARK  status: ('A' for Active; 'I' for Inactive)
REMARK    1  A    between atoms: O_4  and  C_20
REMARK    2  A    between atoms: O_4  and  C_28
REMARK    3  A    between atoms: O_5  and  C_22
REMARK    4  A    between atoms: O_5  and  C_29
REMARK    5  A    between atoms: C_9  and  C_13
REMARK    6  A    between atoms: C_14  and  C_15
REMARK    7  A    between atoms: C_16  and  C_19
REMARK                            x       y       z     vdW  Elec       q    Type
REMARK                         _______ _______ _______ _____ _____    ______ ____
ROOT
ATOM      3  O   UNL     1      -5.861 -13.380  11.459  0.00  0.00    -0.270 OA
ATOM      6  N   UNL     1      -3.793 -12.463  11.985  0.00  0.00    -0.297 N 
ATOM      9  C   UNL     1      -1.815 -11.779  13.116  0.00  0.00    +0.095 C 
ATOM     10  C   UNL     1      -1.826 -13.309  12.977  0.00  0.00    +0.033 C 
ATOM     11  C   UNL     1      -2.839 -11.355  12.054  0.00  0.00    +0.121 C 
ATOM     12  C   UNL     1      -3.283 -13.637  12.675  0.00  0.00    +0.109 C 
ATOM     14  C   UNL     1      -5.063 -12.445  11.429  0.00  0.00    +0.247 C 
ENDROOT
BRANCH  14  15
ATOM     15  C   UNL     1      -5.496 -11.207  10.764  0.00  0.00    +0.041 A 
ATOM     17  C   UNL     1      -5.166 -10.980   9.428  0.00  0.00    +0.062 A 
ATOM     18  C   UNL     1      -6.236 -10.258  11.470  0.00  0.00    +0.017 A 
ATOM     20  C   UNL     1      -5.576  -9.806   8.798  0.00  0.00    +0.162 A 
ATOM     21  C   UNL     1      -6.647  -9.083  10.840  0.00  0.00    +0.050 A 
ATOM     22  C   UNL     1      -6.317  -8.857   9.503  0.00  0.00    +0.162 A 
BRANCH  20   4
ATOM      4  O   UNL     1      -5.248  -9.596   7.492  0.00  0.00    -0.491 OA
ATOM     28  C   UNL     1      -5.947 -10.366   6.517  0.00  0.00    +0.277 C 
ENDBRANCH  20   4
BRANCH  22   5
ATOM      5  O   UNL     1      -6.723  -7.705   8.900  0.00  0.00    -0.491 OA
ATOM     29  C   UNL     1      -8.089  -7.631   8.497  0.00  0.00    +0.277 C 
ENDBRANCH  22   5
ENDBRANCH  14  15
BRANCH   9  13
ATOM      2  O   UNL     1      -3.403 -11.194  14.893  0.00  0.00    -0.420 OA
ATOM      7  N   UNL     1      -1.258 -11.080  15.518  0.00  0.00    -0.112 NA
ATOM      8  N   UNL     1      -2.038 -10.729  16.604  0.00  0.00    -0.107 NA
ATOM     13  C   UNL     1      -2.097 -11.342  14.543  0.00  0.00    +0.222 A 
ATOM     16  C   UNL     1      -3.283 -10.809  16.194  0.00  0.00    +0.251 A 
BRANCH  16  19
ATOM      1  F   UNL     1      -3.733 -11.755  18.794  0.00  0.00    -0.205 F 
ATOM     19  C   UNL     1      -4.510 -10.559  16.891  0.00  0.00    +0.074 A 
ATOM     23  C   UNL     1      -4.696 -11.048  18.184  0.00  0.00    +0.136 A 
ATOM     24  C   UNL     1      -5.522  -9.826  16.271  0.00  0.00    +0.016 A 
ATOM     25  C   UNL     1      -5.892 -10.803  18.858  0.00  0.00    +0.039 A 
ATOM     26  C   UNL     1      -6.719  -9.581  16.945  0.00  0.00    +0.001 A 
ATOM     27  C   UNL     1      -6.904 -10.070  18.238  0.00  0.00    +0.003 A 
ENDBRANCH  16  19
ENDBRANCH   9  13
TORSDOF 5
ENDMDL
MODEL 6
REMARK VINA RESULT:      -6.5     27.132     30.553
REMARK  Name = 51137765
REMARK  7 active torsions:
REMARK  status: ('A' for Active; 'I' for Inactive)
REMARK    1  A    between atoms: O_4  and  C_20
REMARK    2  A    between atoms: O_4  and  C_28
REMARK    3  A    between atoms: O_5  and  C_22
REMARK    4  A    between atoms: O_5  and  C_29
REMARK    5  A    between atoms: C_9  and  C_13
REMARK    6  A    between atoms: C_14  and  C_15
REMARK    7  A    between atoms: C_16  and  C_19
REMARK                            x       y       z     vdW  Elec       q    Type
REMARK                         _______ _______ _______ _____ _____    ______ ____
ROOT
ATOM      3  O   UNL     1      -4.264 -13.919  14.839  0.00  0.00    -0.270 OA
ATOM      6  N   UNL     1      -4.401 -12.095  16.270  0.00  0.00    -0.297 N 
ATOM      9  C   UNL     1      -5.138 -10.478  17.851  0.00  0.00    +0.095 C 
ATOM     10  C   UNL     1      -4.951 -11.834  18.549  0.00  0.00    +0.033 C 
ATOM     11  C   UNL     1      -4.317 -10.665  16.568  0.00  0.00    +0.121 C 
ATOM     12  C   UNL     1      -4.933 -12.836  17.402  0.00  0.00    +0.109 C 
ATOM     14  C   UNL     1      -4.109 -12.722  15.068  0.00  0.00    +0.247 C 
ENDROOT
BRANCH  14  15
ATOM     15  C   UNL     1      -3.587 -11.886  13.976  0.00  0.00    +0.041 A 
ATOM     17  C   UNL     1      -4.465 -11.144  13.185  0.00  0.00    +0.062 A 
ATOM     18  C   UNL     1      -2.215 -11.836  13.730  0.00  0.00    +0.017 A 
ATOM     20  C   UNL     1      -3.971 -10.352  12.149  0.00  0.00    +0.162 A 
ATOM     21  C   UNL     1      -1.720 -11.043  12.694  0.00  0.00    +0.050 A 
ATOM     22  C   UNL     1      -2.598 -10.302  11.903  0.00  0.00    +0.162 A 
BRANCH  20   4
ATOM      4  O   UNL     1      -4.837  -9.632  11.384  0.00  0.00    -0.491 OA
ATOM     28  C   UNL     1      -5.989  -9.100  12.035  0.00  0.00    +0.277 C 
ENDBRANCH  20   4
BRANCH  22   5
ATOM      5  O   UNL     1      -2.102  -9.533  10.894  0.00  0.00    -0.491 OA
ATOM     29  C   UNL     1      -0.795  -8.990  11.074  0.00  0.00    +0.277 C 
ENDBRANCH  22   5
ENDBRANCH  14  15
BRANCH   9  13
ATOM      2  O   UNL     1      -7.476 -10.669  18.574  0.00  0.00    -0.420 OA
ATOM      7  N   UNL     1      -7.186  -9.388  16.763  0.00  0.00    -0.112 NA
ATOM      8  N   UNL     1      -8.537  -9.410  17.059  0.00  0.00    -0.107 NA
ATOM     13  C   UNL     1      -6.607 -10.136  17.673  0.00  0.00    +0.222 A 
ATOM     16  C   UNL     1      -8.660 -10.169  18.123  0.00  0.00    +0.251 A 
BRANCH  16  19
ATOM      1  F   UNL     1     -10.994  -8.617  18.113  0.00  0.00    -0.205 F 
ATOM     19  C   UNL     1      -9.825 -10.546  18.868  0.00  0.00    +0.074 A 
ATOM     23  C   UNL     1     -10.967  -9.745  18.838  0.00  0.00    +0.136 A 
ATOM     24  C   UNL     1      -9.814 -11.716  19.627  0.00  0.00    +0.016 A 
ATOM     25  C   UNL     1     -12.098 -10.115  19.565  0.00  0.00    +0.039 A 
ATOM     26  C   UNL     1     -10.945 -12.086  20.355  0.00  0.00    +0.001 A 
ATOM     27  C   UNL     1     -12.087 -11.286  20.324  0.00  0.00    +0.003 A 
ENDBRANCH  16  19
ENDBRANCH   9  13
TORSDOF 5
ENDMDL
MODEL 7
REMARK VINA RESULT:      -6.5     13.871     17.134
REMARK  Name = 51137765
REMARK  7 active torsions:
REMARK  status: ('A' for Active; 'I' for Inactive)
REMARK    1  A    between atoms: O_4  and  C_20
REMARK    2  A    between atoms: O_4  and  C_28
REMARK    3  A    between atoms: O_5  and  C_22
REMARK    4  A    between atoms: O_5  and  C_29
REMARK    5  A    between atoms: C_9  and  C_13
REMARK    6  A    between atoms: C_14  and  C_15
REMARK    7  A    between atoms: C_16  and  C_19
REMARK                            x       y       z     vdW  Elec       q    Type
REMARK                         _______ _______ _______ _____ _____    ______ ____
ROOT
ATOM      3  O   UNL     1       9.694   7.899   1.721  0.00  0.00    -0.270 OA
ATOM      6  N   UNL     1       9.490   6.355   3.444  0.00  0.00    -0.297 N 
ATOM      9  C   UNL     1       9.450   5.295   5.574  0.00  0.00    +0.095 C 
ATOM     10  C   UNL     1       8.309   6.320   5.486  0.00  0.00    +0.033 C 
ATOM     11  C   UNL     1       9.800   5.081   4.095  0.00  0.00    +0.121 C 
ATOM     12  C   UNL     1       8.709   7.214   4.320  0.00  0.00    +0.109 C 
ATOM     14  C   UNL     1       9.918   6.788   2.199  0.00  0.00    +0.247 C 
ENDROOT
BRANCH  14  15
ATOM     15  C   UNL     1      10.715   5.853   1.391  0.00  0.00    +0.041 A 
ATOM     17  C   UNL     1      12.095   5.769   1.580  0.00  0.00    +0.062 A 
ATOM     18  C   UNL     1      10.092   5.050   0.435  0.00  0.00    +0.017 A 
ATOM     20  C   UNL     1      12.851   4.882   0.813  0.00  0.00    +0.162 A 
ATOM     21  C   UNL     1      10.848   4.163  -0.331  0.00  0.00    +0.050 A 
ATOM     22  C   UNL     1      12.227   4.078  -0.142  0.00  0.00    +0.162 A 
BRANCH  20   4
ATOM      4  O   UNL     1      14.197   4.808   1.007  0.00  0.00    -0.491 OA
ATOM     28  C   UNL     1      14.687   3.678   1.724  0.00  0.00    +0.277 C 
ENDBRANCH  20   4
BRANCH  22   5
ATOM      5  O   UNL     1      12.954   3.209  -0.898  0.00  0.00    -0.491 OA
ATOM     29  C   UNL     1      12.278   2.565  -1.976  0.00  0.00    +0.277 C 
ENDBRANCH  22   5
ENDBRANCH  14  15
BRANCH   9  13
ATOM      2  O   UNL     1      11.479   6.633   5.918  0.00  0.00    -0.420 OA
ATOM      7  N   UNL     1      10.815   5.506   7.733  0.00  0.00    -0.112 NA
ATOM      8  N   UNL     1      11.958   6.211   8.063  0.00  0.00    -0.107 NA
ATOM     13  C   UNL     1      10.574   5.782   6.473  0.00  0.00    +0.222 A 
ATOM     16  C   UNL     1      12.311   6.854   6.974  0.00  0.00    +0.251 A 
BRANCH  16  19
ATOM      1  F   UNL     1      12.054   9.640   7.153  0.00  0.00    -0.205 F 
ATOM     19  C   UNL     1      13.415   7.736   6.731  0.00  0.00    +0.074 A 
ATOM     23  C   UNL     1      13.245   9.117   6.829  0.00  0.00    +0.136 A 
ATOM     24  C   UNL     1      14.661   7.209   6.392  0.00  0.00    +0.016 A 
ATOM     25  C   UNL     1      14.322   9.971   6.591  0.00  0.00    +0.039 A 
ATOM     26  C   UNL     1      15.738   8.062   6.153  0.00  0.00    +0.001 A 
ATOM     27  C   UNL     1      15.568   9.443   6.252  0.00  0.00    +0.003 A 
ENDBRANCH  16  19
ENDBRANCH   9  13
TORSDOF 5
ENDMDL
MODEL 8
REMARK VINA RESULT:      -6.5     28.069     30.948
REMARK  Name = 51137765
REMARK  7 active torsions:
REMARK  status: ('A' for Active; 'I' for Inactive)
REMARK    1  A    between atoms: O_4  and  C_20
REMARK    2  A    between atoms: O_4  and  C_28
REMARK    3  A    between atoms: O_5  and  C_22
REMARK    4  A    between atoms: O_5  and  C_29
REMARK    5  A    between atoms: C_9  and  C_13
REMARK    6  A    between atoms: C_14  and  C_15
REMARK    7  A    between atoms: C_16  and  C_19
REMARK                            x       y       z     vdW  Elec       q    Type
REMARK                         _______ _______ _______ _____ _____    ______ ____
ROOT
ATOM      3  O   UNL     1      -5.101 -13.713  14.861  0.00  0.00    -0.270 OA
ATOM      6  N   UNL     1      -5.014 -12.071  16.501  0.00  0.00    -0.297 N 
ATOM      9  C   UNL     1      -5.366 -10.784  18.471  0.00  0.00    +0.095 C 
ATOM     10  C   UNL     1      -4.655 -12.097  18.833  0.00  0.00    +0.033 C 
ATOM     11  C   UNL     1      -5.102 -10.685  16.962  0.00  0.00    +0.121 C 
ATOM     12  C   UNL     1      -4.897 -12.989  17.623  0.00  0.00    +0.109 C 
ATOM     14  C   UNL     1      -5.107 -12.531  15.196  0.00  0.00    +0.247 C 
ENDROOT
BRANCH  14  15
ATOM     15  C   UNL     1      -5.236 -11.526  14.130  0.00  0.00    +0.041 A 
ATOM     17  C   UNL     1      -4.125 -11.176  13.362  0.00  0.00    +0.062 A 
ATOM     18  C   UNL     1      -6.470 -10.922  13.887  0.00  0.00    +0.017 A 
ATOM     20  C   UNL     1      -4.248 -10.223  12.352  0.00  0.00    +0.162 A 
ATOM     21  C   UNL     1      -6.593  -9.969  12.875  0.00  0.00    +0.050 A 
ATOM     22  C   UNL     1      -5.482  -9.619  12.108  0.00  0.00    +0.162 A 
BRANCH  20   4
ATOM      4  O   UNL     1      -3.156  -9.891  11.608  0.00  0.00    -0.491 OA
ATOM     28  C   UNL     1      -1.907 -10.454  12.003  0.00  0.00    +0.277 C 
ENDBRANCH  20   4
BRANCH  22   5
ATOM      5  O   UNL     1      -5.615  -8.686  11.124  0.00  0.00    -0.491 OA
ATOM     29  C   UNL     1      -6.539  -8.976  10.077  0.00  0.00    +0.277 C 
ENDBRANCH  22   5
ENDBRANCH  14  15
BRANCH   9  13
ATOM      2  O   UNL     1      -7.735 -10.340  18.005  0.00  0.00    -0.420 OA
ATOM      7  N   UNL     1      -7.351 -11.186  20.041  0.00  0.00    -0.112 NA
ATOM      8  N   UNL     1      -8.713 -10.985  19.911  0.00  0.00    -0.107 NA
ATOM     13  C   UNL     1      -6.821 -10.795  18.905  0.00  0.00    +0.222 A 
ATOM     16  C   UNL     1      -8.891 -10.491  18.708  0.00  0.00    +0.251 A 
BRANCH  16  19
ATOM      1  F   UNL     1      -9.223  -7.912  17.660  0.00  0.00    -0.205 F 
ATOM     19  C   UNL     1     -10.093 -10.093  18.034  0.00  0.00    +0.074 A 
ATOM     23  C   UNL     1     -10.219  -8.799  17.528  0.00  0.00    +0.136 A 
ATOM     24  C   UNL     1     -11.139 -11.004  17.888  0.00  0.00    +0.016 A 
ATOM     25  C   UNL     1     -11.390  -8.417  16.874  0.00  0.00    +0.039 A 
ATOM     26  C   UNL     1     -12.311 -10.622  17.234  0.00  0.00    +0.001 A 
ATOM     27  C   UNL     1     -12.436  -9.329  16.727  0.00  0.00    +0.003 A 
ENDBRANCH  16  19
ENDBRANCH   9  13
TORSDOF 5
ENDMDL
MODEL 9
REMARK VINA RESULT:      -6.3     31.277     33.033
REMARK  Name = 51137765
REMARK  7 active torsions:
REMARK  status: ('A' for Active; 'I' for Inactive)
REMARK    1  A    between atoms: O_4  and  C_20
REMARK    2  A    between atoms: O_4  and  C_28
REMARK    3  A    between atoms: O_5  and  C_22
REMARK    4  A    between atoms: O_5  and  C_29
REMARK    5  A    between atoms: C_9  and  C_13
REMARK    6  A    between atoms: C_14  and  C_15
REMARK    7  A    between atoms: C_16  and  C_19
REMARK                            x       y       z     vdW  Elec       q    Type
REMARK                         _______ _______ _______ _____ _____    ______ ____
ROOT
ATOM      3  O   UNL     1     -14.716  -7.397  14.275  0.00  0.00    -0.270 OA
ATOM      6  N   UNL     1     -13.707  -5.420  13.592  0.00  0.00    -0.297 N 
ATOM      9  C   UNL     1     -12.965  -3.549  12.323  0.00  0.00    +0.095 C 
ATOM     10  C   UNL     1     -14.484  -3.459  12.535  0.00  0.00    +0.033 C 
ATOM     11  C   UNL     1     -12.549  -4.541  13.418  0.00  0.00    +0.121 C 
ATOM     12  C   UNL     1     -14.882  -4.875  12.932  0.00  0.00    +0.109 C 
ATOM     14  C   UNL     1     -13.736  -6.658  14.215  0.00  0.00    +0.247 C 
ENDROOT
BRANCH  14  15
ATOM     15  C   UNL     1     -12.493  -7.131  14.843  0.00  0.00    +0.041 A 
ATOM     17  C   UNL     1     -11.826  -8.240  14.322  0.00  0.00    +0.062 A 
ATOM     18  C   UNL     1     -11.981  -6.472  15.962  0.00  0.00    +0.017 A 
ATOM     20  C   UNL     1     -10.648  -8.689  14.917  0.00  0.00    +0.162 A 
ATOM     21  C   UNL     1     -10.802  -6.921  16.557  0.00  0.00    +0.050 A 
ATOM     22  C   UNL     1     -10.136  -8.030  16.035  0.00  0.00    +0.162 A 
BRANCH  20   4
ATOM      4  O   UNL     1     -10.006  -9.773  14.398  0.00  0.00    -0.491 OA
ATOM     28  C   UNL     1      -9.159  -9.547  13.274  0.00  0.00    +0.277 C 
ENDBRANCH  20   4
BRANCH  22   5
ATOM      5  O   UNL     1      -8.986  -8.459  16.627  0.00  0.00    -0.491 OA
ATOM     29  C   UNL     1      -9.119  -9.365  17.720  0.00  0.00    +0.277 C 
ENDBRANCH  22   5
ENDBRANCH  14  15
BRANCH   9  13
ATOM      2  O   UNL     1     -11.591  -4.807  10.724  0.00  0.00    -0.420 OA
ATOM      7  N   UNL     1     -13.171  -3.543   9.768  0.00  0.00    -0.112 NA
ATOM      8  N   UNL     1     -12.476  -4.191   8.763  0.00  0.00    -0.107 NA
ATOM     13  C   UNL     1     -12.619  -3.932  10.894  0.00  0.00    +0.222 A 
ATOM     16  C   UNL     1     -11.564  -4.918   9.367  0.00  0.00    +0.251 A 
BRANCH  16  19
ATOM      1  F   UNL     1      -8.954  -4.043   8.839  0.00  0.00    -0.205 F 
ATOM     19  C   UNL     1     -10.564  -5.792   8.828  0.00  0.00    +0.074 A 
ATOM     23  C   UNL     1      -9.277  -5.318   8.578  0.00  0.00    +0.136 A 
ATOM     24  C   UNL     1     -10.884  -7.122   8.551  0.00  0.00    +0.016 A 
ATOM     25  C   UNL     1      -8.308  -6.173   8.053  0.00  0.00    +0.039 A 
ATOM     26  C   UNL     1      -9.916  -7.977   8.024  0.00  0.00    +0.001 A 
ATOM     27  C   UNL     1      -8.628  -7.502   7.776  0.00  0.00    +0.003 A 
ENDBRANCH  16  19
ENDBRANCH   9  13
TORSDOF 5
ENDMDL
MODEL 10
REMARK VINA RESULT:      -6.1     28.876     32.596
REMARK  Name = 51137765
REMARK  7 active torsions:
REMARK  status: ('A' for Active; 'I' for Inactive)
REMARK    1  A    between atoms: O_4  and  C_20
REMARK    2  A    between atoms: O_4  and  C_28
REMARK    3  A    between atoms: O_5  and  C_22
REMARK    4  A    between atoms: O_5  and  C_29
REMARK    5  A    between atoms: C_9  and  C_13
REMARK    6  A    between atoms: C_14  and  C_15
REMARK    7  A    between atoms: C_16  and  C_19
REMARK                            x       y       z     vdW  Elec       q    Type
REMARK                         _______ _______ _______ _____ _____    ______ ____
ROOT
ATOM      3  O   UNL     1      -9.625 -12.313  17.026  0.00  0.00    -0.270 OA
ATOM      6  N   UNL     1     -10.088 -10.044  17.204  0.00  0.00    -0.297 N 
ATOM      9  C   UNL     1     -11.035  -7.875  16.955  0.00  0.00    +0.095 C 
ATOM     10  C   UNL     1     -12.037  -8.797  17.667  0.00  0.00    +0.033 C 
ATOM     11  C   UNL     1      -9.713  -8.630  17.152  0.00  0.00    +0.121 C 
ATOM     12  C   UNL     1     -11.526 -10.199  17.361  0.00  0.00    +0.109 C 
ATOM     14  C   UNL     1      -9.255 -11.141  17.049  0.00  0.00    +0.247 C 
ENDROOT
BRANCH  14  15
ATOM     15  C   UNL     1      -7.816 -10.883  16.882  0.00  0.00    +0.041 A 
ATOM     17  C   UNL     1      -6.956 -10.998  17.974  0.00  0.00    +0.062 A 
ATOM     18  C   UNL     1      -7.312 -10.521  15.632  0.00  0.00    +0.017 A 
ATOM     20  C   UNL     1      -5.592 -10.753  17.817  0.00  0.00    +0.162 A 
ATOM     21  C   UNL     1      -5.948 -10.277  15.475  0.00  0.00    +0.050 A 
ATOM     22  C   UNL     1      -5.088 -10.392  16.567  0.00  0.00    +0.162 A 
BRANCH  20   4
ATOM      4  O   UNL     1      -4.762 -10.869  18.891  0.00  0.00    -0.491 OA
ATOM     28  C   UNL     1      -4.207 -12.158  19.143  0.00  0.00    +0.277 C 
ENDBRANCH  20   4
BRANCH  22   5
ATOM      5  O   UNL     1      -3.758 -10.149  16.400  0.00  0.00    -0.491 OA
ATOM     29  C   UNL     1      -3.086 -10.889  15.382  0.00  0.00    +0.277 C 
ENDBRANCH  22   5
ENDBRANCH  14  15
BRANCH   9  13
ATOM      2  O   UNL     1     -12.072  -6.412  15.279  0.00  0.00    -0.420 OA
ATOM      7  N   UNL     1     -11.296  -8.339  14.447  0.00  0.00    -0.112 NA
ATOM      8  N   UNL     1     -11.850  -7.617  13.406  0.00  0.00    -0.107 NA
ATOM     13  C   UNL     1     -11.449  -7.597  15.520  0.00  0.00    +0.222 A 
ATOM     16  C   UNL     1     -12.290  -6.500  13.938  0.00  0.00    +0.251 A 
BRANCH  16  19
ATOM      1  F   UNL     1     -15.028  -6.020  14.301  0.00  0.00    -0.205 F 
ATOM     19  C   UNL     1     -12.952  -5.380  13.334  0.00  0.00    +0.074 A 
ATOM     23  C   UNL     1     -14.317  -5.177  13.539  0.00  0.00    +0.136 A 
ATOM     24  C   UNL     1     -12.227  -4.493  12.539  0.00  0.00    +0.016 A 
ATOM     25  C   UNL     1     -14.956  -4.087  12.949  0.00  0.00    +0.039 A 
ATOM     26  C   UNL     1     -12.866  -3.403  11.948  0.00  0.00    +0.001 A 
ATOM     27  C   UNL     1     -14.230  -3.200  12.153  0.00  0.00    +0.003 A 
ENDBRANCH  16  19
ENDBRANCH   9  13
TORSDOF 5
ENDMDL
