REMARK  Name = 26744052
REMARK  8 active torsions:
REMARK  status: ('A' for Active; 'I' for Inactive)
REMARK    1  A    between atoms: S_1  and  C_19
REMARK    2  A    between atoms: S_1  and  C_20
REMARK    3  A    between atoms: O_2  and  C_16
REMARK    4  A    between atoms: N_6  and  C_12
REMARK    5  A    between atoms: C_9  and  C_12
REMARK    6  A    between atoms: C_13  and  C_17
REMARK    7  A    between atoms: C_18  and  C_19
REMARK    8  A    between atoms: C_25  and  C_26
REMARK                            x       y       z     vdW  Elec       q    Type
REMARK                         _______ _______ _______ _____ _____    ______ ____
ROOT
ATOM      3  O   UNL     1       1.751   0.960   2.323  0.00  0.00    -0.336 OA
ATOM      7  N   UNL     1       0.949   1.061   0.234  0.00  0.00    -0.193 NA
ATOM      8  N   UNL     1       0.357   1.030   2.444  0.00  0.00    -0.060 NA
ATOM     17  C   UNL     1       2.015   0.984   0.990  0.00  0.00    +0.245 A 
ATOM     18  C   UNL     1      -0.044   1.087   1.171  0.00  0.00    +0.193 A 
ENDROOT
BRANCH  17  13
ATOM      6  N   UNL     1       3.765  -0.226  -0.301  0.00  0.00    -0.289 NA
ATOM     13  C   UNL     1       3.473   0.916   0.589  0.00  0.00    +0.148 C 
ATOM     14  C   UNL     1       4.888   0.183  -1.144  0.00  0.00    +0.116 C 
ATOM     15  C   UNL     1       3.932   2.157  -0.199  0.00  0.00    +0.061 C 
ATOM     16  C   UNL     1       4.509   1.608  -1.498  0.00  0.00    +0.130 C 
BRANCH  16   2
ATOM      2  O   UNL     1       5.633   2.364  -1.907  0.00  0.00    -0.390 OA
ATOM     27  H   UNL     1       5.335   3.279  -2.043  0.00  0.00    +0.210 HD
ENDBRANCH  16   2
BRANCH   6  12
ATOM     12  C   UNL     1       4.043  -1.460   0.421  0.00  0.00    +0.088 C 
BRANCH  12   9
ATOM      9  C   UNL     1       3.816  -2.658  -0.443  0.00  0.00    +0.003 C 
ATOM     10  C   UNL     1       2.415  -3.145  -0.670  0.00  0.00    +0.005 C 
ATOM     11  C   UNL     1       3.356  -3.940   0.187  0.00  0.00    +0.005 C 
ENDBRANCH  12   9
ENDBRANCH   6  12
ENDBRANCH  17  13
BRANCH  18  19
ATOM     19  C   UNL     1      -1.462   1.171   0.805  0.00  0.00    +0.251 C 
BRANCH  19   1
ATOM      1  S   UNL     1      -1.977  -0.400   0.168  0.00  0.00    +0.004 S 
ATOM      4  O   UNL     1      -1.833  -1.373   1.234  0.00  0.00    -0.169 OA
ATOM      5  O   UNL     1      -1.331  -0.611  -1.115  0.00  0.00    -0.169 OA
BRANCH   1  20
ATOM     20  C   UNL     1      -3.701  -0.183  -0.148  0.00  0.00    +0.089 A 
ATOM     21  C   UNL     1      -4.130   0.275  -1.394  0.00  0.00    +0.027 A 
ATOM     22  C   UNL     1      -4.634  -0.468   0.849  0.00  0.00    +0.027 A 
ATOM     23  C   UNL     1      -5.491   0.449  -1.642  0.00  0.00    +0.005 A 
ATOM     24  C   UNL     1      -5.996  -0.294   0.601  0.00  0.00    +0.005 A 
ATOM     25  C   UNL     1      -6.424   0.164  -0.645  0.00  0.00    -0.050 A 
ATOM     26  C   UNL     1      -7.880   0.350  -0.911  0.00  0.00    +0.044 C 
ENDBRANCH   1  20
ENDBRANCH  19   1
ENDBRANCH  18  19
TORSDOF 7
