REMARK  Name = 75536703
REMARK  12 active torsions:
REMARK  status: ('A' for Active; 'I' for Inactive)
REMARK    1  A    between atoms: S_1  and  N_7
REMARK    2  A    between atoms: S_1  and  C_18
REMARK    3  A    between atoms: O_3  and  C_9
REMARK    4  A    between atoms: N_6  and  C_8
REMARK    5  A    between atoms: N_6  and  C_13
REMARK    6  A    between atoms: N_7  and  C_14
REMARK    7  A    between atoms: C_10  and  C_14
REMARK    8  A    between atoms: C_12  and  C_13
REMARK    9  A    between atoms: C_12  and  C_15
REMARK   10  A    between atoms: C_12  and  C_16
REMARK   11  A    between atoms: C_12  and  C_17
REMARK   12  A    between atoms: C_23  and  C_24
REMARK                            x       y       z     vdW  Elec       q    Type
REMARK                         _______ _______ _______ _____ _____    ______ ____
ROOT
ATOM      2  O   UNL     1      -0.987   1.214  -1.297  0.00  0.00    -0.371 OA
ATOM      8  C   UNL     1      -2.875   0.696   0.047  0.00  0.00    +0.111 C 
ATOM      9  C   UNL     1      -1.612   0.425   0.843  0.00  0.00    +0.164 C 
ATOM     10  C   UNL     1      -0.601   1.275   0.086  0.00  0.00    +0.164 C 
ATOM     11  C   UNL     1      -2.336   0.721  -1.373  0.00  0.00    +0.181 C 
ENDROOT
BRANCH   9   3
ATOM      3  O   UNL     1      -1.724   0.819   2.197  0.00  0.00    -0.388 OA
ATOM     26  H   UNL     1      -1.964   1.761   2.222  0.00  0.00    +0.210 HD
ENDBRANCH   9   3
BRANCH   8   6
ATOM      6  N   UNL     1      -3.913  -0.304   0.241  0.00  0.00    -0.308 NA
ATOM     25  H   UNL     1      -3.994  -0.508   1.236  0.00  0.00    +0.122 HD
BRANCH   6  13
ATOM     13  C   UNL     1      -5.197   0.167  -0.262  0.00  0.00    +0.087 C 
BRANCH  13  12
ATOM     12  C   UNL     1      -6.340  -0.875  -0.152  0.00  0.00    -0.025 C 
ATOM     15  C   UNL     1      -6.572  -1.181   1.340  0.00  0.00    +0.012 C 
ATOM     16  C   UNL     1      -7.646  -0.320  -0.749  0.00  0.00    +0.012 C 
ATOM     17  C   UNL     1      -5.971  -2.186  -0.869  0.00  0.00    +0.012 C 
ENDBRANCH  13  12
ENDBRANCH   6  13
ENDBRANCH   8   6
BRANCH  10  14
ATOM     14  C   UNL     1       0.829   0.788   0.241  0.00  0.00    +0.140 C 
BRANCH  14   7
ATOM      7  N   UNL     1       1.737   1.666  -0.522  0.00  0.00    -0.187 NA
ATOM     27  H   UNL     1       1.542   1.743  -1.528  0.00  0.00    +0.148 HD
BRANCH   7   1
ATOM      1  S   UNL     1       3.332   1.916   0.015  0.00  0.00    +0.058 S 
ATOM      4  O   UNL     1       3.309   2.372   1.392  0.00  0.00    -0.153 OA
ATOM      5  O   UNL     1       4.056   2.670  -0.991  0.00  0.00    -0.153 OA
BRANCH   1  18
ATOM     18  C   UNL     1       3.982   0.273  -0.005  0.00  0.00    +0.105 A 
ATOM     19  C   UNL     1       4.599  -0.219  -1.155  0.00  0.00    +0.029 A 
ATOM     20  C   UNL     1       3.876  -0.533   1.129  0.00  0.00    +0.029 A 
ATOM     21  C   UNL     1       5.110  -1.517  -1.172  0.00  0.00    +0.005 A 
ATOM     22  C   UNL     1       4.387  -1.831   1.112  0.00  0.00    +0.005 A 
ATOM     23  C   UNL     1       5.004  -2.323  -0.038  0.00  0.00    -0.050 A 
ATOM     24  C   UNL     1       5.550  -3.711  -0.056  0.00  0.00    +0.044 C 
ENDBRANCH   1  18
ENDBRANCH   7   1
ENDBRANCH  14   7
ENDBRANCH  10  14
TORSDOF 8
