MODEL 1
REMARK VINA RESULT:      -6.7      0.000      0.000
REMARK  Name = 7687131
REMARK  6 active torsions:
REMARK  status: ('A' for Active; 'I' for Inactive)
REMARK    1  A    between atoms: S_1  and  N_6
REMARK    2  A    between atoms: S_1  and  C_19
REMARK    3  A    between atoms: N_8  and  C_27
REMARK    4  A    between atoms: C_16  and  C_21
REMARK    5  A    between atoms: C_24  and  C_28
REMARK    6  A    between atoms: C_29  and  C_30
REMARK                            x       y       z     vdW  Elec       q    Type
REMARK                         _______ _______ _______ _____ _____    ______ ____
ROOT
ATOM      4  O   UNL     1       8.648   8.118   2.977  0.00  0.00    -0.268 OA
ATOM      6  N   UNL     1      12.512   8.986   5.995  0.00  0.00    -0.176 NA
ATOM      7  N   UNL     1       9.504   8.589   5.106  0.00  0.00    -0.311 N 
ATOM      9  C   UNL     1      10.800  10.751   5.576  0.00  0.00    +0.025 C 
ATOM     10  C   UNL     1      10.448   9.118   7.374  0.00  0.00    +0.052 C 
ATOM     11  C   UNL     1      10.270  10.586   6.989  0.00  0.00    +0.017 C 
ATOM     12  C   UNL     1      12.288  10.374   5.502  0.00  0.00    +0.114 C 
ATOM     13  C   UNL     1      11.947   8.765   7.359  0.00  0.00    +0.119 C 
ATOM     14  C   UNL     1       9.934   9.913   4.635  0.00  0.00    +0.130 C 
ATOM     15  C   UNL     1       9.668   8.181   6.446  0.00  0.00    +0.033 A 
ATOM     16  C   UNL     1       9.164   6.989   6.866  0.00  0.00    -0.005 A 
ATOM     17  C   UNL     1       8.833   7.803   4.153  0.00  0.00    +0.252 A 
ATOM     18  C   UNL     1       8.464   6.157   5.900  0.00  0.00    +0.015 A 
ATOM     20  C   UNL     1       8.303   6.507   4.624  0.00  0.00    +0.071 A 
ENDROOT
BRANCH   6   1
ATOM      1  S   UNL     1      14.079   8.350   5.731  0.00  0.00    +0.061 S 
ATOM      2  O   UNL     1      14.416   7.457   6.820  0.00  0.00    -0.153 OA
ATOM      3  O   UNL     1      14.966   9.427   5.348  0.00  0.00    -0.153 OA
BRANCH   1  19
ATOM     19  C   UNL     1      13.775   7.363   4.299  0.00  0.00    +0.106 A 
ATOM     22  C   UNL     1      14.838   7.003   3.486  0.00  0.00    +0.030 A 
ATOM     23  C   UNL     1      12.480   6.965   4.013  0.00  0.00    +0.030 A 
ATOM     25  C   UNL     1      14.596   6.224   2.355  0.00  0.00    +0.025 A 
ATOM     26  C   UNL     1      12.239   6.185   2.882  0.00  0.00    +0.025 A 
ATOM     27  C   UNL     1      13.299   5.814   2.053  0.00  0.00    +0.033 A 
BRANCH  27   8
ATOM      5  O   UNL     1      13.402   2.828   1.680  0.00  0.00    -0.276 OA
ATOM      8  N   UNL     1      13.059   5.033   0.921  0.00  0.00    -0.286 N 
ATOM     29  C   UNL     1      13.124   3.639   0.803  0.00  0.00    +0.214 C 
ATOM     30  C   UNL     1      12.793   3.181  -0.595  0.00  0.00    +0.109 C 
ATOM     31  H   UNL     1      12.806   5.551   0.081  0.00  0.00    +0.155 HD
ENDBRANCH  27   8
ENDBRANCH   1  19
ENDBRANCH   6   1
BRANCH  16  21
ATOM     21  C   UNL     1       9.322   6.502   8.227  0.00  0.00    +0.005 C 
ATOM     24  C   UNL     1       9.418   5.208   8.523  0.00  0.00    -0.030 C 
ATOM     28  C   UNL     1       9.577   4.703   9.918  0.00  0.00    +0.035 C 
ENDBRANCH  16  21
TORSDOF 4
ENDMDL
MODEL 2
REMARK VINA RESULT:      -6.5     18.697     21.554
REMARK  Name = 7687131
REMARK  6 active torsions:
REMARK  status: ('A' for Active; 'I' for Inactive)
REMARK    1  A    between atoms: S_1  and  N_6
REMARK    2  A    between atoms: S_1  and  C_19
REMARK    3  A    between atoms: N_8  and  C_27
REMARK    4  A    between atoms: C_16  and  C_21
REMARK    5  A    between atoms: C_24  and  C_28
REMARK    6  A    between atoms: C_29  and  C_30
REMARK                            x       y       z     vdW  Elec       q    Type
REMARK                         _______ _______ _______ _____ _____    ______ ____
ROOT
ATOM      4  O   UNL     1      17.160 -16.256   2.958  0.00  0.00    -0.268 OA
ATOM      6  N   UNL     1      18.125 -11.522   1.756  0.00  0.00    -0.176 NA
ATOM      7  N   UNL     1      16.495 -14.015   2.818  0.00  0.00    -0.311 N 
ATOM      9  C   UNL     1      16.348 -12.803   0.563  0.00  0.00    +0.025 C 
ATOM     10  C   UNL     1      15.800 -11.607   2.634  0.00  0.00    +0.052 C 
ATOM     11  C   UNL     1      15.276 -11.974   1.247  0.00  0.00    +0.017 C 
ATOM     12  C   UNL     1      17.655 -12.006   0.428  0.00  0.00    +0.114 C 
ATOM     13  C   UNL     1      17.075 -10.754   2.489  0.00  0.00    +0.119 C 
ATOM     14  C   UNL     1      16.530 -14.100   1.352  0.00  0.00    +0.130 C 
ATOM     15  C   UNL     1      16.081 -12.846   3.491  0.00  0.00    +0.033 A 
ATOM     16  C   UNL     1      15.964 -12.840   4.846  0.00  0.00    -0.005 A 
ATOM     17  C   UNL     1      16.809 -15.205   3.496  0.00  0.00    +0.252 A 
ATOM     18  C   UNL     1      16.281 -14.060   5.571  0.00  0.00    +0.015 A 
ATOM     20  C   UNL     1      16.688 -15.177   4.968  0.00  0.00    +0.071 A 
ENDROOT
BRANCH   6   1
ATOM      1  S   UNL     1      19.694 -10.841   1.783  0.00  0.00    +0.061 S 
ATOM      2  O   UNL     1      19.585  -9.406   1.940  0.00  0.00    -0.153 OA
ATOM      3  O   UNL     1      20.476 -11.416   0.710  0.00  0.00    -0.153 OA
BRANCH   1  19
ATOM     19  C   UNL     1      20.293 -11.505   3.306  0.00  0.00    +0.106 A 
ATOM     22  C   UNL     1      21.361 -10.890   3.940  0.00  0.00    +0.030 A 
ATOM     23  C   UNL     1      19.686 -12.629   3.840  0.00  0.00    +0.030 A 
ATOM     25  C   UNL     1      21.833 -11.416   5.143  0.00  0.00    +0.025 A 
ATOM     26  C   UNL     1      20.158 -13.153   5.043  0.00  0.00    +0.025 A 
ATOM     27  C   UNL     1      21.232 -12.546   5.694  0.00  0.00    +0.033 A 
BRANCH  27   8
ATOM      5  O   UNL     1      23.034 -14.898   6.228  0.00  0.00    -0.276 OA
ATOM      8  N   UNL     1      21.705 -13.071   6.898  0.00  0.00    -0.286 N 
ATOM     29  C   UNL     1      22.545 -14.176   7.090  0.00  0.00    +0.214 C 
ATOM     30  C   UNL     1      22.824 -14.418   8.552  0.00  0.00    +0.109 C 
ATOM     31  H   UNL     1      21.395 -12.583   7.736  0.00  0.00    +0.155 HD
ENDBRANCH  27   8
ENDBRANCH   1  19
ENDBRANCH   6   1
BRANCH  16  21
ATOM     21  C   UNL     1      15.565 -11.661   5.598  0.00  0.00    +0.005 C 
ATOM     24  C   UNL     1      14.729 -11.714   6.631  0.00  0.00    -0.030 C 
ATOM     28  C   UNL     1      14.315 -10.505   7.404  0.00  0.00    +0.035 C 
ENDBRANCH  16  21
TORSDOF 4
ENDMDL
MODEL 3
REMARK VINA RESULT:      -6.4     25.901     29.349
REMARK  Name = 7687131
REMARK  6 active torsions:
REMARK  status: ('A' for Active; 'I' for Inactive)
REMARK    1  A    between atoms: S_1  and  N_6
REMARK    2  A    between atoms: S_1  and  C_19
REMARK    3  A    between atoms: N_8  and  C_27
REMARK    4  A    between atoms: C_16  and  C_21
REMARK    5  A    between atoms: C_24  and  C_28
REMARK    6  A    between atoms: C_29  and  C_30
REMARK                            x       y       z     vdW  Elec       q    Type
REMARK                         _______ _______ _______ _____ _____    ______ ____
ROOT
ATOM      4  O   UNL     1      -8.234 -11.729  13.233  0.00  0.00    -0.268 OA
ATOM      6  N   UNL     1      -6.995 -12.833  17.927  0.00  0.00    -0.176 NA
ATOM      7  N   UNL     1      -6.650 -12.427  14.811  0.00  0.00    -0.311 N 
ATOM      9  C   UNL     1      -6.965 -14.588  16.155  0.00  0.00    +0.025 C 
ATOM     10  C   UNL     1      -4.977 -13.196  16.521  0.00  0.00    +0.052 C 
ATOM     11  C   UNL     1      -5.448 -14.611  16.190  0.00  0.00    +0.017 C 
ATOM     12  C   UNL     1      -7.538 -14.157  17.514  0.00  0.00    +0.114 C 
ATOM     13  C   UNL     1      -5.503 -12.796  17.913  0.00  0.00    +0.119 C 
ATOM     14  C   UNL     1      -7.407 -13.670  15.015  0.00  0.00    +0.130 C 
ATOM     15  C   UNL     1      -5.427 -12.179  15.467  0.00  0.00    +0.033 A 
ATOM     16  C   UNL     1      -4.705 -11.063  15.173  0.00  0.00    -0.005 A 
ATOM     17  C   UNL     1      -7.181 -11.553  13.847  0.00  0.00    +0.252 A 
ATOM     18  C   UNL     1      -5.232 -10.143  14.178  0.00  0.00    +0.015 A 
ATOM     20  C   UNL     1      -6.390 -10.341  13.549  0.00  0.00    +0.071 A 
ENDROOT
BRANCH   6   1
ATOM      1  S   UNL     1      -7.739 -12.120  19.294  0.00  0.00    +0.061 S 
ATOM      2  O   UNL     1      -6.712 -11.660  20.205  0.00  0.00    -0.153 OA
ATOM      3  O   UNL     1      -8.809 -12.981  19.750  0.00  0.00    -0.153 OA
BRANCH   1  19
ATOM     19  C   UNL     1      -8.469 -10.699  18.542  0.00  0.00    +0.106 A 
ATOM     22  C   UNL     1      -7.705  -9.912  17.696  0.00  0.00    +0.030 A 
ATOM     23  C   UNL     1      -9.792 -10.395  18.812  0.00  0.00    +0.030 A 
ATOM     25  C   UNL     1      -8.283  -8.789  17.104  0.00  0.00    +0.025 A 
ATOM     26  C   UNL     1     -10.370  -9.272  18.219  0.00  0.00    +0.025 A 
ATOM     27  C   UNL     1      -9.614  -8.469  17.364  0.00  0.00    +0.033 A 
BRANCH  27   8
ATOM      5  O   UNL     1     -11.044  -8.168  14.732  0.00  0.00    -0.276 OA
ATOM      8  N   UNL     1     -10.192  -7.346  16.770  0.00  0.00    -0.286 N 
ATOM     29  C   UNL     1     -10.846  -7.261  15.534  0.00  0.00    +0.214 C 
ATOM     30  C   UNL     1     -11.330  -5.861  15.253  0.00  0.00    +0.109 C 
ATOM     31  H   UNL     1     -10.123  -6.485  17.310  0.00  0.00    +0.155 HD
ENDBRANCH  27   8
ENDBRANCH   1  19
ENDBRANCH   6   1
BRANCH  16  21
ATOM     21  C   UNL     1      -3.450 -10.739  15.833  0.00  0.00    +0.005 C 
ATOM     24  C   UNL     1      -2.287 -10.698  15.189  0.00  0.00    -0.030 C 
ATOM     28  C   UNL     1      -0.996 -10.370  15.862  0.00  0.00    +0.035 C 
ENDBRANCH  16  21
TORSDOF 4
ENDMDL
MODEL 4
REMARK VINA RESULT:      -6.3     21.761     24.582
REMARK  Name = 7687131
REMARK  6 active torsions:
REMARK  status: ('A' for Active; 'I' for Inactive)
REMARK    1  A    between atoms: S_1  and  N_6
REMARK    2  A    between atoms: S_1  and  C_19
REMARK    3  A    between atoms: N_8  and  C_27
REMARK    4  A    between atoms: C_16  and  C_21
REMARK    5  A    between atoms: C_24  and  C_28
REMARK    6  A    between atoms: C_29  and  C_30
REMARK                            x       y       z     vdW  Elec       q    Type
REMARK                         _______ _______ _______ _____ _____    ______ ____
ROOT
ATOM      4  O   UNL     1      19.651  -4.943  21.084  0.00  0.00    -0.268 OA
ATOM      6  N   UNL     1      18.680  -2.278  25.176  0.00  0.00    -0.176 NA
ATOM      7  N   UNL     1      18.196  -4.319  22.810  0.00  0.00    -0.311 N 
ATOM      9  C   UNL     1      17.394  -1.898  23.072  0.00  0.00    +0.025 C 
ATOM     10  C   UNL     1      16.648  -3.614  24.659  0.00  0.00    +0.052 C 
ATOM     11  C   UNL     1      16.164  -2.530  23.698  0.00  0.00    +0.017 C 
ATOM     12  C   UNL     1      18.296  -1.271  24.148  0.00  0.00    +0.114 C 
ATOM     13  C   UNL     1      17.497  -2.969  25.771  0.00  0.00    +0.119 C 
ATOM     14  C   UNL     1      18.118  -2.964  22.249  0.00  0.00    +0.130 C 
ATOM     15  C   UNL     1      17.447  -4.706  23.941  0.00  0.00    +0.033 A 
ATOM     16  C   UNL     1      17.468  -5.998  24.368  0.00  0.00    -0.005 A 
ATOM     17  C   UNL     1      18.991  -5.224  22.086  0.00  0.00    +0.252 A 
ATOM     18  C   UNL     1      18.281  -6.954  23.635  0.00  0.00    +0.015 A 
ATOM     20  C   UNL     1      19.011  -6.619  22.571  0.00  0.00    +0.071 A 
ENDROOT
BRANCH   6   1
ATOM      1  S   UNL     1      19.882  -1.781  26.288  0.00  0.00    +0.061 S 
ATOM      2  O   UNL     1      19.433  -2.074  27.633  0.00  0.00    -0.153 OA
ATOM      3  O   UNL     1      20.339  -0.456  25.926  0.00  0.00    -0.153 OA
BRANCH   1  19
ATOM     19  C   UNL     1      21.166  -2.925  25.887  0.00  0.00    +0.106 A 
ATOM     22  C   UNL     1      20.880  -4.005  25.068  0.00  0.00    +0.030 A 
ATOM     23  C   UNL     1      22.436  -2.724  26.400  0.00  0.00    +0.030 A 
ATOM     25  C   UNL     1      21.895  -4.908  24.752  0.00  0.00    +0.025 A 
ATOM     26  C   UNL     1      23.451  -3.627  26.084  0.00  0.00    +0.025 A 
ATOM     27  C   UNL     1      23.180  -4.720  25.259  0.00  0.00    +0.033 A 
BRANCH  27   8
ATOM      5  O   UNL     1      25.682  -4.356  23.626  0.00  0.00    -0.276 OA
ATOM      8  N   UNL     1      24.195  -5.624  24.943  0.00  0.00    -0.286 N 
ATOM     29  C   UNL     1      25.343  -5.400  24.172  0.00  0.00    +0.214 C 
ATOM     30  C   UNL     1      26.194  -6.640  24.065  0.00  0.00    +0.109 C 
ATOM     31  H   UNL     1      24.077  -6.561  25.324  0.00  0.00    +0.155 HD
ENDBRANCH  27   8
ENDBRANCH   1  19
ENDBRANCH   6   1
BRANCH  16  21
ATOM     21  C   UNL     1      16.737  -6.453  25.540  0.00  0.00    +0.005 C 
ATOM     24  C   UNL     1      16.628  -7.738  25.868  0.00  0.00    -0.030 C 
ATOM     28  C   UNL     1      15.876  -8.209  27.068  0.00  0.00    +0.035 C 
ENDBRANCH  16  21
TORSDOF 4
ENDMDL
MODEL 5
REMARK VINA RESULT:      -6.3      2.271      4.015
REMARK  Name = 7687131
REMARK  6 active torsions:
REMARK  status: ('A' for Active; 'I' for Inactive)
REMARK    1  A    between atoms: S_1  and  N_6
REMARK    2  A    between atoms: S_1  and  C_19
REMARK    3  A    between atoms: N_8  and  C_27
REMARK    4  A    between atoms: C_16  and  C_21
REMARK    5  A    between atoms: C_24  and  C_28
REMARK    6  A    between atoms: C_29  and  C_30
REMARK                            x       y       z     vdW  Elec       q    Type
REMARK                         _______ _______ _______ _____ _____    ______ ____
ROOT
ATOM      4  O   UNL     1       8.448   9.634   2.545  0.00  0.00    -0.268 OA
ATOM      6  N   UNL     1      10.951   7.139   6.052  0.00  0.00    -0.176 NA
ATOM      7  N   UNL     1       9.017   7.621   3.597  0.00  0.00    -0.311 N 
ATOM      9  C   UNL     1       8.457   7.196   6.063  0.00  0.00    +0.025 C 
ATOM     10  C   UNL     1       9.628   5.478   4.759  0.00  0.00    +0.052 C 
ATOM     11  C   UNL     1       8.412   5.737   5.647  0.00  0.00    +0.017 C 
ATOM     12  C   UNL     1       9.744   7.504   6.845  0.00  0.00    +0.114 C 
ATOM     13  C   UNL     1      10.914   5.727   5.569  0.00  0.00    +0.119 C 
ATOM     14  C   UNL     1       8.312   8.059   4.809  0.00  0.00    +0.130 C 
ATOM     15  C   UNL     1       9.615   6.347   3.497  0.00  0.00    +0.033 A 
ATOM     16  C   UNL     1      10.168   5.939   2.322  0.00  0.00    -0.005 A 
ATOM     17  C   UNL     1       8.969   8.519   2.517  0.00  0.00    +0.252 A 
ATOM     18  C   UNL     1      10.130   6.849   1.189  0.00  0.00    +0.015 A 
ATOM     20  C   UNL     1       9.585   8.064   1.254  0.00  0.00    +0.071 A 
ENDROOT
BRANCH   6   1
ATOM      1  S   UNL     1      12.447   7.661   6.697  0.00  0.00    +0.061 S 
ATOM      2  O   UNL     1      12.961   6.642   7.587  0.00  0.00    -0.153 OA
ATOM      3  O   UNL     1      12.319   9.036   7.133  0.00  0.00    -0.153 OA
BRANCH   1  19
ATOM     19  C   UNL     1      13.437   7.648   5.234  0.00  0.00    +0.106 A 
ATOM     22  C   UNL     1      14.782   7.328   5.329  0.00  0.00    +0.030 A 
ATOM     23  C   UNL     1      12.852   7.956   4.018  0.00  0.00    +0.030 A 
ATOM     25  C   UNL     1      15.562   7.318   4.173  0.00  0.00    +0.025 A 
ATOM     26  C   UNL     1      13.633   7.944   2.862  0.00  0.00    +0.025 A 
ATOM     27  C   UNL     1      14.989   7.625   2.941  0.00  0.00    +0.033 A 
BRANCH  27   8
ATOM      5  O   UNL     1      15.382   5.477   0.868  0.00  0.00    -0.276 OA
ATOM      8  N   UNL     1      15.771   7.614   1.785  0.00  0.00    -0.286 N 
ATOM     29  C   UNL     1      15.919   6.580   0.851  0.00  0.00    +0.214 C 
ATOM     30  C   UNL     1      16.860   6.964  -0.263  0.00  0.00    +0.109 C 
ATOM     31  H   UNL     1      16.296   8.468   1.607  0.00  0.00    +0.155 HD
ENDBRANCH  27   8
ENDBRANCH   1  19
ENDBRANCH   6   1
BRANCH  16  21
ATOM     21  C   UNL     1      10.820   4.649   2.164  0.00  0.00    +0.005 C 
ATOM     24  C   UNL     1      12.114   4.525   1.881  0.00  0.00    -0.030 C 
ATOM     28  C   UNL     1      12.786   3.203   1.714  0.00  0.00    +0.035 C 
ENDBRANCH  16  21
TORSDOF 4
ENDMDL
MODEL 6
REMARK VINA RESULT:      -6.1     22.392     25.686
REMARK  Name = 7687131
REMARK  6 active torsions:
REMARK  status: ('A' for Active; 'I' for Inactive)
REMARK    1  A    between atoms: S_1  and  N_6
REMARK    2  A    between atoms: S_1  and  C_19
REMARK    3  A    between atoms: N_8  and  C_27
REMARK    4  A    between atoms: C_16  and  C_21
REMARK    5  A    between atoms: C_24  and  C_28
REMARK    6  A    between atoms: C_29  and  C_30
REMARK                            x       y       z     vdW  Elec       q    Type
REMARK                         _______ _______ _______ _____ _____    ______ ____
ROOT
ATOM      4  O   UNL     1      21.649  -6.981  24.099  0.00  0.00    -0.268 OA
ATOM      6  N   UNL     1      19.277  -3.753  27.057  0.00  0.00    -0.176 NA
ATOM      7  N   UNL     1      20.690  -4.875  24.460  0.00  0.00    -0.311 N 
ATOM      9  C   UNL     1      21.593  -3.286  26.258  0.00  0.00    +0.025 C 
ATOM     10  C   UNL     1      19.675  -2.615  24.882  0.00  0.00    +0.052 C 
ATOM     11  C   UNL     1      21.068  -2.193  25.344  0.00  0.00    +0.017 C 
ATOM     12  C   UNL     1      20.677  -3.467  27.478  0.00  0.00    +0.114 C 
ATOM     13  C   UNL     1      18.746  -2.733  26.105  0.00  0.00    +0.119 C 
ATOM     14  C   UNL     1      21.741  -4.568  25.439  0.00  0.00    +0.130 C 
ATOM     15  C   UNL     1      19.701  -3.934  24.103  0.00  0.00    +0.033 A 
ATOM     16  C   UNL     1      18.808  -4.219  23.117  0.00  0.00    -0.005 A 
ATOM     17  C   UNL     1      20.797  -6.131  23.838  0.00  0.00    +0.252 A 
ATOM     18  C   UNL     1      18.899  -5.511  22.456  0.00  0.00    +0.015 A 
ATOM     20  C   UNL     1      19.811  -6.427  22.778  0.00  0.00    +0.071 A 
ENDROOT
BRANCH   6   1
ATOM      1  S   UNL     1      18.209  -4.226  28.307  0.00  0.00    +0.061 S 
ATOM      2  O   UNL     1      17.282  -3.145  28.572  0.00  0.00    -0.153 OA
ATOM      3  O   UNL     1      18.973  -4.831  29.377  0.00  0.00    -0.153 OA
BRANCH   1  19
ATOM     19  C   UNL     1      17.318  -5.510  27.484  0.00  0.00    +0.106 A 
ATOM     22  C   UNL     1      17.645  -5.831  26.177  0.00  0.00    +0.030 A 
ATOM     23  C   UNL     1      16.307  -6.173  28.159  0.00  0.00    +0.030 A 
ATOM     25  C   UNL     1      16.940  -6.845  25.528  0.00  0.00    +0.025 A 
ATOM     26  C   UNL     1      15.604  -7.188  27.510  0.00  0.00    +0.025 A 
ATOM     27  C   UNL     1      15.921  -7.523  26.194  0.00  0.00    +0.033 A 
BRANCH  27   8
ATOM      5  O   UNL     1      15.762 -10.473  26.775  0.00  0.00    -0.276 OA
ATOM      8  N   UNL     1      15.217  -8.539  25.544  0.00  0.00    -0.286 N 
ATOM     29  C   UNL     1      15.180  -9.903  25.857  0.00  0.00    +0.214 C 
ATOM     30  C   UNL     1      14.297 -10.671  24.907  0.00  0.00    +0.109 C 
ATOM     31  H   UNL     1      14.665  -8.239  24.742  0.00  0.00    +0.155 HD
ENDBRANCH  27   8
ENDBRANCH   1  19
ENDBRANCH   6   1
BRANCH  16  21
ATOM     21  C   UNL     1      17.752  -3.301  22.720  0.00  0.00    +0.005 C 
ATOM     24  C   UNL     1      16.489  -3.442  23.115  0.00  0.00    -0.030 C 
ATOM     28  C   UNL     1      15.401  -2.504  22.708  0.00  0.00    +0.035 C 
ENDBRANCH  16  21
TORSDOF 4
ENDMDL
MODEL 7
REMARK VINA RESULT:      -6.0     25.474     28.412
REMARK  Name = 7687131
REMARK  6 active torsions:
REMARK  status: ('A' for Active; 'I' for Inactive)
REMARK    1  A    between atoms: S_1  and  N_6
REMARK    2  A    between atoms: S_1  and  C_19
REMARK    3  A    between atoms: N_8  and  C_27
REMARK    4  A    between atoms: C_16  and  C_21
REMARK    5  A    between atoms: C_24  and  C_28
REMARK    6  A    between atoms: C_29  and  C_30
REMARK                            x       y       z     vdW  Elec       q    Type
REMARK                         _______ _______ _______ _____ _____    ______ ____
ROOT
ATOM      4  O   UNL     1     -13.903  -9.539  10.848  0.00  0.00    -0.268 OA
ATOM      6  N   UNL     1     -13.636  -4.916  12.675  0.00  0.00    -0.176 NA
ATOM      7  N   UNL     1     -13.713  -8.077  12.667  0.00  0.00    -0.311 N 
ATOM      9  C   UNL     1     -15.567  -6.396  13.228  0.00  0.00    +0.025 C 
ATOM     10  C   UNL     1     -13.535  -6.484  14.602  0.00  0.00    +0.052 C 
ATOM     11  C   UNL     1     -15.061  -6.541  14.652  0.00  0.00    +0.017 C 
ATOM     12  C   UNL     1     -15.118  -5.058  12.620  0.00  0.00    +0.114 C 
ATOM     13  C   UNL     1     -13.093  -5.115  14.051  0.00  0.00    +0.119 C 
ATOM     14  C   UNL     1     -15.081  -7.600  12.420  0.00  0.00    +0.130 C 
ATOM     15  C   UNL     1     -12.944  -7.617  13.756  0.00  0.00    +0.033 A 
ATOM     16  C   UNL     1     -11.723  -8.159  14.010  0.00  0.00    -0.005 A 
ATOM     17  C   UNL     1     -13.267  -9.091  11.802  0.00  0.00    +0.252 A 
ATOM     18  C   UNL     1     -11.238  -9.210  13.131  0.00  0.00    +0.015 A 
ATOM     20  C   UNL     1     -11.933  -9.659  12.086  0.00  0.00    +0.071 A 
ENDROOT
BRANCH   6   1
ATOM      1  S   UNL     1     -12.985  -3.593  11.807  0.00  0.00    +0.061 S 
ATOM      2  O   UNL     1     -12.037  -2.894  12.650  0.00  0.00    -0.153 OA
ATOM      3  O   UNL     1     -14.063  -2.884  11.151  0.00  0.00    -0.153 OA
BRANCH   1  19
ATOM     19  C   UNL     1     -12.070  -4.456  10.568  0.00  0.00    +0.106 A 
ATOM     22  C   UNL     1     -11.266  -3.739   9.697  0.00  0.00    +0.030 A 
ATOM     23  C   UNL     1     -12.173  -5.834  10.487  0.00  0.00    +0.030 A 
ATOM     25  C   UNL     1     -10.544  -4.421   8.718  0.00  0.00    +0.025 A 
ATOM     26  C   UNL     1     -11.450  -6.516   9.508  0.00  0.00    +0.025 A 
ATOM     27  C   UNL     1     -10.635  -5.809   8.624  0.00  0.00    +0.033 A 
BRANCH  27   8
ATOM      5  O   UNL     1      -7.664  -6.043   8.196  0.00  0.00    -0.276 OA
ATOM      8  N   UNL     1      -9.911  -6.491   7.644  0.00  0.00    -0.286 N 
ATOM     29  C   UNL     1      -8.521  -6.565   7.490  0.00  0.00    +0.214 C 
ATOM     30  C   UNL     1      -8.135  -7.406   6.300  0.00  0.00    +0.109 C 
ATOM     31  H   UNL     1     -10.474  -6.994   6.960  0.00  0.00    +0.155 HD
ENDBRANCH  27   8
ENDBRANCH   1  19
ENDBRANCH   6   1
BRANCH  16  21
ATOM     21  C   UNL     1     -10.873  -7.711  15.102  0.00  0.00    +0.005 C 
ATOM     24  C   UNL     1     -10.669  -8.434  16.200  0.00  0.00    -0.030 C 
ATOM     28  C   UNL     1      -9.801  -7.976  17.325  0.00  0.00    +0.035 C 
ENDBRANCH  16  21
TORSDOF 4
ENDMDL
MODEL 8
REMARK VINA RESULT:      -6.0     22.338     25.938
REMARK  Name = 7687131
REMARK  6 active torsions:
REMARK  status: ('A' for Active; 'I' for Inactive)
REMARK    1  A    between atoms: S_1  and  N_6
REMARK    2  A    between atoms: S_1  and  C_19
REMARK    3  A    between atoms: N_8  and  C_27
REMARK    4  A    between atoms: C_16  and  C_21
REMARK    5  A    between atoms: C_24  and  C_28
REMARK    6  A    between atoms: C_29  and  C_30
REMARK                            x       y       z     vdW  Elec       q    Type
REMARK                         _______ _______ _______ _____ _____    ______ ____
ROOT
ATOM      4  O   UNL     1      15.468  -2.698  23.272  0.00  0.00    -0.268 OA
ATOM      6  N   UNL     1      18.503  -5.882  25.604  0.00  0.00    -0.176 NA
ATOM      7  N   UNL     1      17.622  -3.499  23.721  0.00  0.00    -0.311 N 
ATOM      9  C   UNL     1      18.310  -5.894  23.117  0.00  0.00    +0.025 C 
ATOM     10  C   UNL     1      19.920  -4.394  24.204  0.00  0.00    +0.052 C 
ATOM     11  C   UNL     1      19.704  -5.304  22.996  0.00  0.00    +0.017 C 
ATOM     12  C   UNL     1      18.171  -6.710  24.412  0.00  0.00    +0.114 C 
ATOM     13  C   UNL     1      19.842  -5.232  25.494  0.00  0.00    +0.119 C 
ATOM     14  C   UNL     1      17.295  -4.754  23.031  0.00  0.00    +0.130 C 
ATOM     15  C   UNL     1      18.906  -3.247  24.249  0.00  0.00    +0.033 A 
ATOM     16  C   UNL     1      19.198  -2.033  24.790  0.00  0.00    -0.005 A 
ATOM     17  C   UNL     1      16.598  -2.536  23.732  0.00  0.00    +0.252 A 
ATOM     18  C   UNL     1      18.157  -1.018  24.812  0.00  0.00    +0.015 A 
ATOM     20  C   UNL     1      16.931  -1.228  24.334  0.00  0.00    +0.071 A 
ENDROOT
BRANCH   6   1
ATOM      1  S   UNL     1      18.146  -6.589  27.121  0.00  0.00    +0.061 S 
ATOM      2  O   UNL     1      19.330  -7.254  27.623  0.00  0.00    -0.153 OA
ATOM      3  O   UNL     1      16.881  -7.287  27.030  0.00  0.00    -0.153 OA
BRANCH   1  19
ATOM     19  C   UNL     1      17.894  -5.134  28.089  0.00  0.00    +0.106 A 
ATOM     22  C   UNL     1      17.753  -5.250  29.462  0.00  0.00    +0.030 A 
ATOM     23  C   UNL     1      17.842  -3.902  27.459  0.00  0.00    +0.030 A 
ATOM     25  C   UNL     1      17.554  -4.100  30.226  0.00  0.00    +0.025 A 
ATOM     26  C   UNL     1      17.643  -2.752  28.224  0.00  0.00    +0.025 A 
ATOM     27  C   UNL     1      17.499  -2.852  29.608  0.00  0.00    +0.033 A 
BRANCH  27   8
ATOM      5  O   UNL     1      19.486  -0.918  30.783  0.00  0.00    -0.276 OA
ATOM      8  N   UNL     1      17.301  -1.701  30.373  0.00  0.00    -0.286 N 
ATOM     29  C   UNL     1      18.268  -0.835  30.899  0.00  0.00    +0.214 C 
ATOM     30  C   UNL     1      17.641   0.298  31.673  0.00  0.00    +0.109 C 
ATOM     31  H   UNL     1      16.328  -1.473  30.569  0.00  0.00    +0.155 HD
ENDBRANCH  27   8
ENDBRANCH   1  19
ENDBRANCH   6   1
BRANCH  16  21
ATOM     21  C   UNL     1      20.494  -1.720  25.371  0.00  0.00    +0.005 C 
ATOM     24  C   UNL     1      21.027  -0.502  25.331  0.00  0.00    -0.030 C 
ATOM     28  C   UNL     1      22.358  -0.178  25.924  0.00  0.00    +0.035 C 
ENDBRANCH  16  21
TORSDOF 4
ENDMDL
MODEL 9
REMARK VINA RESULT:      -5.9     24.612     27.499
REMARK  Name = 7687131
REMARK  6 active torsions:
REMARK  status: ('A' for Active; 'I' for Inactive)
REMARK    1  A    between atoms: S_1  and  N_6
REMARK    2  A    between atoms: S_1  and  C_19
REMARK    3  A    between atoms: N_8  and  C_27
REMARK    4  A    between atoms: C_16  and  C_21
REMARK    5  A    between atoms: C_24  and  C_28
REMARK    6  A    between atoms: C_29  and  C_30
REMARK                            x       y       z     vdW  Elec       q    Type
REMARK                         _______ _______ _______ _____ _____    ______ ____
ROOT
ATOM      4  O   UNL     1      -8.122  -8.810  16.692  0.00  0.00    -0.268 OA
ATOM      6  N   UNL     1      -4.102 -11.693  16.132  0.00  0.00    -0.176 NA
ATOM      7  N   UNL     1      -7.046 -10.874  16.945  0.00  0.00    -0.311 N 
ATOM      9  C   UNL     1      -4.952 -11.119  18.405  0.00  0.00    +0.025 C 
ATOM     10  C   UNL     1      -5.858 -13.071  17.225  0.00  0.00    +0.052 C 
ATOM     11  C   UNL     1      -5.434 -12.546  18.596  0.00  0.00    +0.017 C 
ATOM     12  C   UNL     1      -3.758 -11.069  17.440  0.00  0.00    +0.114 C 
ATOM     13  C   UNL     1      -4.640 -13.077  16.282  0.00  0.00    +0.119 C 
ATOM     14  C   UNL     1      -6.132 -10.273  17.925  0.00  0.00    +0.130 C 
ATOM     15  C   UNL     1      -6.999 -12.246  16.620  0.00  0.00    +0.033 A 
ATOM     16  C   UNL     1      -7.929 -12.785  15.786  0.00  0.00    -0.005 A 
ATOM     17  C   UNL     1      -8.026 -10.009  16.430  0.00  0.00    +0.252 A 
ATOM     18  C   UNL     1      -8.955 -11.912  15.241  0.00  0.00    +0.015 A 
ATOM     20  C   UNL     1      -9.020 -10.610  15.516  0.00  0.00    +0.071 A 
ENDROOT
BRANCH   6   1
ATOM      1  S   UNL     1      -2.952 -11.478  14.883  0.00  0.00    +0.061 S 
ATOM      2  O   UNL     1      -2.572 -12.774  14.362  0.00  0.00    -0.153 OA
ATOM      3  O   UNL     1      -1.951 -10.529  15.322  0.00  0.00    -0.153 OA
BRANCH   1  19
ATOM     19  C   UNL     1      -3.958 -10.683  13.669  0.00  0.00    +0.106 A 
ATOM     22  C   UNL     1      -3.440 -10.455  12.404  0.00  0.00    +0.030 A 
ATOM     23  C   UNL     1      -5.246 -10.301  14.001  0.00  0.00    +0.030 A 
ATOM     25  C   UNL     1      -4.236  -9.827  11.446  0.00  0.00    +0.025 A 
ATOM     26  C   UNL     1      -6.041  -9.674  13.043  0.00  0.00    +0.025 A 
ATOM     27  C   UNL     1      -5.535  -9.437  11.764  0.00  0.00    +0.033 A 
BRANCH  27   8
ATOM      5  O   UNL     1      -7.174 -10.597   9.521  0.00  0.00    -0.276 OA
ATOM      8  N   UNL     1      -6.331  -8.809  10.804  0.00  0.00    -0.286 N 
ATOM     29  C   UNL     1      -7.074  -9.401   9.775  0.00  0.00    +0.214 C 
ATOM     30  C   UNL     1      -7.802  -8.372   8.948  0.00  0.00    +0.109 C 
ATOM     31  H   UNL     1      -6.368  -7.793  10.868  0.00  0.00    +0.155 HD
ENDBRANCH  27   8
ENDBRANCH   1  19
ENDBRANCH   6   1
BRANCH  16  21
ATOM     21  C   UNL     1      -7.920 -14.186  15.395  0.00  0.00    +0.005 C 
ATOM     24  C   UNL     1      -7.503 -14.598  14.200  0.00  0.00    -0.030 C 
ATOM     28  C   UNL     1      -7.495 -16.034  13.793  0.00  0.00    +0.035 C 
ENDBRANCH  16  21
TORSDOF 4
ENDMDL
MODEL 10
REMARK VINA RESULT:      -5.7     25.995     28.547
REMARK  Name = 7687131
REMARK  6 active torsions:
REMARK  status: ('A' for Active; 'I' for Inactive)
REMARK    1  A    between atoms: S_1  and  N_6
REMARK    2  A    between atoms: S_1  and  C_19
REMARK    3  A    between atoms: N_8  and  C_27
REMARK    4  A    between atoms: C_16  and  C_21
REMARK    5  A    between atoms: C_24  and  C_28
REMARK    6  A    between atoms: C_29  and  C_30
REMARK                            x       y       z     vdW  Elec       q    Type
REMARK                         _______ _______ _______ _____ _____    ______ ____
ROOT
ATOM      4  O   UNL     1     -16.468  10.565  18.655  0.00  0.00    -0.268 OA
ATOM      6  N   UNL     1     -11.626   9.577  18.047  0.00  0.00    -0.176 NA
ATOM      7  N   UNL     1     -14.392   9.937  19.538  0.00  0.00    -0.311 N 
ATOM      9  C   UNL     1     -12.368  11.509  19.441  0.00  0.00    +0.025 C 
ATOM     10  C   UNL     1     -12.146   9.288  20.461  0.00  0.00    +0.052 C 
ATOM     11  C   UNL     1     -11.931  10.781  20.699  0.00  0.00    +0.017 C 
ATOM     12  C   UNL     1     -11.540  11.053  18.229  0.00  0.00    +0.114 C 
ATOM     13  C   UNL     1     -11.265   8.826  19.285  0.00  0.00    +0.119 C 
ATOM     14  C   UNL     1     -13.867  11.278  19.247  0.00  0.00    +0.130 C 
ATOM     15  C   UNL     1     -13.617   8.954  20.189  0.00  0.00    +0.033 A 
ATOM     16  C   UNL     1     -14.172   7.760  20.533  0.00  0.00    -0.005 A 
ATOM     17  C   UNL     1     -15.743   9.738  19.209  0.00  0.00    +0.252 A 
ATOM     18  C   UNL     1     -15.570   7.530  20.205  0.00  0.00    +0.015 A 
ATOM     20  C   UNL     1     -16.325   8.431  19.578  0.00  0.00    +0.071 A 
ENDROOT
BRANCH   6   1
ATOM      1  S   UNL     1     -10.961   8.969  16.592  0.00  0.00    +0.061 S 
ATOM      2  O   UNL     1     -10.200   7.773  16.883  0.00  0.00    -0.153 OA
ATOM      3  O   UNL     1     -10.374  10.064  15.849  0.00  0.00    -0.153 OA
BRANCH   1  19
ATOM     19  C   UNL     1     -12.438   8.478  15.758  0.00  0.00    +0.106 A 
ATOM     22  C   UNL     1     -13.632   8.442  16.459  0.00  0.00    +0.030 A 
ATOM     23  C   UNL     1     -12.378   8.138  14.417  0.00  0.00    +0.030 A 
ATOM     25  C   UNL     1     -14.799   8.054  15.799  0.00  0.00    +0.025 A 
ATOM     26  C   UNL     1     -13.544   7.751  13.758  0.00  0.00    +0.025 A 
ATOM     27  C   UNL     1     -14.755   7.709  14.450  0.00  0.00    +0.033 A 
BRANCH  27   8
ATOM      5  O   UNL     1     -16.224   5.081  14.457  0.00  0.00    -0.276 OA
ATOM      8  N   UNL     1     -15.923   7.321  13.790  0.00  0.00    -0.286 N 
ATOM     29  C   UNL     1     -16.565   6.077  13.828  0.00  0.00    +0.214 C 
ATOM     30  C   UNL     1     -17.806   6.063  12.972  0.00  0.00    +0.109 C 
ATOM     31  H   UNL     1     -16.353   8.040  13.211  0.00  0.00    +0.155 HD
ENDBRANCH  27   8
ENDBRANCH   1  19
ENDBRANCH   6   1
BRANCH  16  21
ATOM     21  C   UNL     1     -13.420   6.699  21.183  0.00  0.00    +0.005 C 
ATOM     24  C   UNL     1     -13.933   5.939  22.147  0.00  0.00    -0.030 C 
ATOM     28  C   UNL     1     -13.163   4.851  22.819  0.00  0.00    +0.035 C 
ENDBRANCH  16  21
TORSDOF 4
ENDMDL
