REMARK  Name = 11866301
REMARK  15 active torsions:
REMARK  status: ('A' for Active; 'I' for Inactive)
REMARK    1  A    between atoms: O_2  and  C_12
REMARK    2  A    between atoms: O_3  and  C_13
REMARK    3  A    between atoms: N_7  and  C_11
REMARK    4  A    between atoms: N_8  and  C_17
REMARK    5  A    between atoms: N_8  and  C_26
REMARK    6  A    between atoms: N_9  and  C_24
REMARK    7  A    between atoms: C_15  and  C_21
REMARK    8  A    between atoms: C_17  and  C_18
REMARK    9  A    between atoms: C_17  and  C_19
REMARK   10  A    between atoms: C_18  and  C_20
REMARK   11  A    between atoms: C_20  and  C_22
REMARK   12  A    between atoms: C_20  and  C_23
REMARK   13  A    between atoms: C_24  and  C_25
REMARK   14  A    between atoms: C_24  and  C_27
REMARK   15  A    between atoms: C_25  and  C_28
REMARK                            x       y       z     vdW  Elec       q    Type
REMARK                         _______ _______ _______ _____ _____    ______ ____
ROOT
ATOM     11  C   UNL     1      -1.612  -1.635   0.576  0.00  0.00    +0.127 C 
ATOM     12  C   UNL     1      -1.438  -2.822  -0.391  0.00  0.00    +0.167 C 
ATOM     13  C   UNL     1      -0.318  -3.763   0.068  0.00  0.00    +0.149 C 
ATOM     14  C   UNL     1       1.020  -3.024   0.252  0.00  0.00    +0.074 C 
ATOM     15  C   UNL     1       0.867  -1.654   0.848  0.00  0.00    +0.015 C 
ATOM     16  C   UNL     1      -0.307  -1.023   1.007  0.00  0.00    +0.006 C 
ENDROOT
BRANCH  11   7
ATOM      4  O   UNL     1      -4.483  -1.424   0.763  0.00  0.00    -0.274 OA
ATOM      7  N   UNL     1      -2.446  -0.604   0.008  0.00  0.00    -0.305 N 
ATOM     19  C   UNL     1      -3.825  -0.584   0.151  0.00  0.00    +0.231 C 
ATOM     32  H   UNL     1      -1.998   0.118  -0.550  0.00  0.00    +0.149 HD
BRANCH  19  17
ATOM     17  C   UNL     1      -4.471   0.593  -0.572  0.00  0.00    +0.140 C 
BRANCH  17   8
ATOM      8  N   UNL     1      -5.756   0.095  -1.068  0.00  0.00    -0.309 NA
ATOM     26  C   UNL     1      -5.574  -0.661  -2.296  0.00  0.00    +0.101 C 
ATOM     35  H   UNL     1      -6.230  -0.465  -0.361  0.00  0.00    +0.122 HD
ENDBRANCH  17   8
BRANCH  17  18
ATOM     18  C   UNL     1      -4.694   1.798   0.356  0.00  0.00    +0.031 C 
BRANCH  18  20
ATOM     20  C   UNL     1      -5.298   3.038  -0.338  0.00  0.00    -0.015 C 
ATOM     22  C   UNL     1      -4.365   3.509  -1.457  0.00  0.00    +0.007 C 
ATOM     23  C   UNL     1      -5.555   4.188   0.637  0.00  0.00    +0.007 C 
ENDBRANCH  18  20
ENDBRANCH  17  18
ENDBRANCH  19  17
ENDBRANCH  11   7
BRANCH  15  21
ATOM      5  O   UNL     1       2.795  -1.455   2.175  0.00  0.00    -0.271 OA
ATOM      9  N   UNL     1       2.279   0.250   0.672  0.00  0.00    -0.300 N 
ATOM     21  C   UNL     1       2.075  -0.962   1.308  0.00  0.00    +0.241 C 
ATOM     36  H   UNL     1       1.598   0.576  -0.009  0.00  0.00    +0.150 HD
BRANCH   9  24
ATOM     24  C   UNL     1       3.401   1.113   0.959  0.00  0.00    +0.164 C 
BRANCH  24  27
ATOM      6  O   UNL     1       1.859   2.415   2.312  0.00  0.00    -0.274 OA
ATOM     10  N   UNL     1       4.041   2.230   3.005  0.00  0.00    -0.328 N 
ATOM     27  C   UNL     1       2.999   1.994   2.133  0.00  0.00    +0.231 C 
ATOM     37  H   UNL     1       4.978   1.873   2.847  0.00  0.00    +0.145 HD
ATOM     38  H   UNL     1       3.904   2.790   3.840  0.00  0.00    +0.145 HD
ENDBRANCH  24  27
BRANCH  24  25
ATOM     25  C   UNL     1       3.796   1.976  -0.246  0.00  0.00    +0.074 C 
BRANCH  25  28
ATOM      1  S   UNL     1       6.167   1.790  -1.696  0.00  0.00    -0.102 S 
ATOM     28  C   UNL     1       4.617   1.210  -1.256  0.00  0.00    -0.008 A 
ATOM     29  C   UNL     1       4.294   0.046  -1.919  0.00  0.00    +0.011 A 
ATOM     30  C   UNL     1       5.332  -0.374  -2.800  0.00  0.00    +0.008 A 
ATOM     31  C   UNL     1       6.410   0.484  -2.776  0.00  0.00    +0.045 A 
ENDBRANCH  25  28
ENDBRANCH  24  25
ENDBRANCH   9  24
ENDBRANCH  15  21
BRANCH  12   2
ATOM      2  O   UNL     1      -1.121  -2.334  -1.697  0.00  0.00    -0.387 OA
ATOM     33  H   UNL     1      -1.049  -3.103  -2.287  0.00  0.00    +0.210 HD
ENDBRANCH  12   2
BRANCH  13   3
ATOM      3  O   UNL     1      -0.689  -4.411   1.283  0.00  0.00    -0.389 OA
ATOM     34  H   UNL     1       0.025  -5.029   1.516  0.00  0.00    +0.210 HD
ENDBRANCH  13   3
TORSDOF 12
