REMARK  Name = 26762210
REMARK  5 active torsions:
REMARK  status: ('A' for Active; 'I' for Inactive)
REMARK    1  A    between atoms: N_7  and  C_12
REMARK    2  A    between atoms: N_9  and  C_27
REMARK    3  A    between atoms: C_11  and  C_16
REMARK    4  A    between atoms: C_16  and  C_18
REMARK    5  A    between atoms: C_18  and  C_19
REMARK                            x       y       z     vdW  Elec       q    Type
REMARK                         _______ _______ _______ _____ _____    ______ ____
ROOT
ATOM      2  O   UNL     1      -3.929  -3.006   2.447  0.00  0.00    -0.274 OA
ATOM      5  N   UNL     1      -2.785  -1.783  -0.553  0.00  0.00    -0.285 NA
ATOM      6  N   UNL     1      -4.959  -1.508   1.020  0.00  0.00    -0.313 N 
ATOM     10  C   UNL     1      -3.287  -2.986   0.108  0.00  0.00    +0.145 C 
ATOM     11  C   UNL     1      -3.841  -0.955  -1.143  0.00  0.00    +0.075 C 
ATOM     12  C   UNL     1      -0.990  -3.257  -0.626  0.00  0.00    +0.090 C 
ATOM     13  C   UNL     1      -2.015  -3.779   0.391  0.00  0.00    +0.052 C 
ATOM     14  C   UNL     1      -1.754  -2.242  -1.478  0.00  0.00    +0.107 C 
ATOM     15  C   UNL     1      -5.164  -1.081  -0.354  0.00  0.00    +0.123 C 
ATOM     17  C   UNL     1      -4.059  -2.519   1.328  0.00  0.00    +0.230 C 
ATOM     35  H   UNL     1      -5.556  -1.135   1.752  0.00  0.00    +0.149 HD
ENDROOT
BRANCH  12   7
ATOM      4  O   UNL     1       1.692  -3.096  -1.624  0.00  0.00    -0.253 OA
ATOM      7  N   UNL     1       0.143  -2.652   0.034  0.00  0.00    -0.295 N 
ATOM      9  N   UNL     1       2.315  -1.969   0.338  0.00  0.00    -0.269 N 
ATOM     20  C   UNL     1       1.426  -2.616  -0.525  0.00  0.00    +0.304 C 
ATOM     36  H   UNL     1      -0.015  -2.153   0.904  0.00  0.00    +0.151 HD
ATOM     37  H   UNL     1       1.931  -1.627   1.216  0.00  0.00    +0.156 HD
BRANCH   9  27
ATOM      1 CL   UNL     1       6.706  -0.003   2.133  0.00  0.00    -0.083 Cl
ATOM     27  C   UNL     1       3.695  -1.728   0.142  0.00  0.00    +0.036 A 
ATOM     30  C   UNL     1       4.433  -1.063   1.121  0.00  0.00    +0.043 A 
ATOM     31  C   UNL     1       4.317  -2.157  -1.030  0.00  0.00    +0.023 A 
ATOM     32  C   UNL     1       5.794  -0.826   0.926  0.00  0.00    +0.043 A 
ATOM     33  C   UNL     1       5.678  -1.920  -1.224  0.00  0.00    +0.003 A 
ATOM     34  C   UNL     1       6.417  -1.254  -0.246  0.00  0.00    +0.020 A 
ENDBRANCH   9  27
ENDBRANCH  12   7
BRANCH  11  16
ATOM     16  C   UNL     1      -3.369   0.501  -1.155  0.00  0.00    +0.029 C 
BRANCH  16  18
ATOM     18  C   UNL     1      -3.056   1.022   0.239  0.00  0.00    +0.098 C 
BRANCH  18  19
ATOM      3  O   UNL     1      -3.359   3.373   0.260  0.00  0.00    -0.275 OA
ATOM      8  N   UNL     1      -1.176   2.572   0.059  0.00  0.00    -0.271 N 
ATOM     19  C   UNL     1      -2.552   2.445   0.188  0.00  0.00    +0.220 C 
ATOM     21  C   UNL     1      -0.210   1.457  -0.027  0.00  0.00    +0.118 C 
ATOM     22  C   UNL     1      -0.460   3.785  -0.011  0.00  0.00    +0.039 A 
ATOM     23  C   UNL     1       1.193   2.062  -0.152  0.00  0.00    +0.056 C 
ATOM     24  C   UNL     1       0.906   3.528  -0.135  0.00  0.00    -0.024 A 
ATOM     25  C   UNL     1      -0.932   5.089   0.025  0.00  0.00    +0.024 A 
ATOM     26  C   UNL     1       1.829   4.559  -0.223  0.00  0.00    +0.005 A 
ATOM     28  C   UNL     1      -0.008   6.135  -0.064  0.00  0.00    +0.002 A 
ATOM     29  C   UNL     1       1.363   5.873  -0.187  0.00  0.00    +0.000 A 
ENDBRANCH  18  19
ENDBRANCH  16  18
ENDBRANCH  11  16
TORSDOF 5
