REMARK  Name = 38030183
REMARK  8 active torsions:
REMARK  status: ('A' for Active; 'I' for Inactive)
REMARK    1  A    between atoms: O_1  and  C_12
REMARK    2  A    between atoms: C_4  and  C_8
REMARK    3  A    between atoms: C_6  and  C_11
REMARK    4  A    between atoms: C_7  and  C_12
REMARK    5  A    between atoms: C_8  and  C_13
REMARK    6  A    between atoms: C_8  and  C_14
REMARK    7  A    between atoms: C_9  and  C_16
REMARK    8  A    between atoms: C_11  and  C_15
REMARK                            x       y       z     vdW  Elec       q    Type
REMARK                         _______ _______ _______ _____ _____    ______ ____
ROOT
ATOM      4  C   UNL     1      -1.871  -0.826  -0.188  0.00  0.00    +0.001 C 
ATOM      5  C   UNL     1      -1.003  -0.589   1.057  0.00  0.00    +0.012 C 
ATOM      6  C   UNL     1      -0.331   0.797   1.044  0.00  0.00    +0.023 C 
ATOM      7  C   UNL     1      -2.977   0.254  -0.289  0.00  0.00    +0.040 C 
ATOM      9  C   UNL     1      -1.312   1.895   0.684  0.00  0.00    -0.073 C 
ATOM     10  C   UNL     1      -2.495   1.632   0.101  0.00  0.00    -0.022 C 
ATOM     16  C   UNL     1      -0.922   3.299   1.051  0.00  0.00    +0.039 C 
ENDROOT
BRANCH   4   8
ATOM      8  C   UNL     1      -2.459  -2.240  -0.148  0.00  0.00    -0.013 C 
ATOM     13  C   UNL     1      -1.435  -3.256  -0.643  0.00  0.00    +0.007 C 
ATOM     14  C   UNL     1      -2.923  -2.584   1.264  0.00  0.00    +0.007 C 
ENDBRANCH   4   8
BRANCH   6  11
ATOM     11  C   UNL     1       0.880   0.815   0.105  0.00  0.00    +0.103 C 
BRANCH  11  15
ATOM      2  O   UNL     1       1.915  -0.412   1.865  0.00  0.00    -0.276 OA
ATOM      3  N   UNL     1       3.189   0.016  -0.014  0.00  0.00    -0.301 N 
ATOM     15  C   UNL     1       2.033   0.080   0.741  0.00  0.00    +0.216 C 
ATOM     17  C   UNL     1       4.392  -0.651   0.461  0.00  0.00    +0.108 C 
ATOM     18  C   UNL     1       3.392   0.573  -1.349  0.00  0.00    +0.108 C 
ATOM     19  C   UNL     1       5.274  -0.769  -0.772  0.00  0.00    +0.020 C 
ATOM     20  C   UNL     1       4.892   0.464  -1.581  0.00  0.00    +0.020 C 
ENDBRANCH  11  15
ENDBRANCH   6  11
BRANCH   7  12
ATOM     12  C   UNL     1      -3.575   0.302  -1.700  0.00  0.00    +0.163 C 
BRANCH  12   1
ATOM      1  O   UNL     1      -4.665   1.202  -1.689  0.00  0.00    -0.394 OA
ATOM     21  H   UNL     1      -5.026   1.229  -2.591  0.00  0.00    +0.209 HD
ENDBRANCH  12   1
ENDBRANCH   7  12
TORSDOF 5
