REMARK  Name = 51136739
REMARK  8 active torsions:
REMARK  status: ('A' for Active; 'I' for Inactive)
REMARK    1  A    between atoms: O_1  and  C_17
REMARK    2  A    between atoms: N_6  and  C_24
REMARK    3  A    between atoms: C_7  and  C_11
REMARK    4  A    between atoms: C_8  and  C_13
REMARK    5  A    between atoms: C_11  and  C_14
REMARK    6  A    between atoms: C_13  and  C_17
REMARK    7  A    between atoms: C_23  and  C_26
REMARK    8  A    between atoms: C_24  and  C_27
REMARK                            x       y       z     vdW  Elec       q    Type
REMARK                         _______ _______ _______ _____ _____    ______ ____
ROOT
ATOM      2  O   UNL     1       4.763  -0.431  -0.572  0.00  0.00    -0.253 OA
ATOM      4  N   UNL     1       2.905   0.306   0.603  0.00  0.00    -0.285 N 
ATOM      6  N   UNL     1       3.300  -1.997   0.244  0.00  0.00    -0.300 N 
ATOM      7  C   UNL     1       0.474   0.788   0.666  0.00  0.00    +0.016 C 
ATOM      8  C   UNL     1       0.801   2.289   0.449  0.00  0.00    +0.006 C 
ATOM      9  C   UNL     1       2.153   2.482  -0.262  0.00  0.00    +0.023 C 
ATOM     10  C   UNL     1       1.661   0.096   1.358  0.00  0.00    +0.113 C 
ATOM     12  C   UNL     1       3.271   1.715   0.443  0.00  0.00    +0.109 C 
ATOM     15  C   UNL     1       3.728  -0.689   0.052  0.00  0.00    +0.302 C 
ATOM     28  H   UNL     1       2.418  -2.205   0.690  0.00  0.00    +0.150 HD
ENDROOT
BRANCH   6  24
ATOM     24  C   UNL     1       4.035  -3.130  -0.271  0.00  0.00    +0.102 C 
ATOM     27  C   UNL     1       3.757  -3.349  -1.744  0.00  0.00    +0.024 C 
ENDBRANCH   6  24
BRANCH   7  11
ATOM     11  C   UNL     1       0.092   0.040  -0.617  0.00  0.00    +0.061 C 
BRANCH  11  14
ATOM      5  N   UNL     1      -0.005  -2.300  -0.086  0.00  0.00    -0.287 NA
ATOM     14  C   UNL     1      -0.677  -1.212  -0.272  0.00  0.00    +0.044 C 
ATOM     16  C   UNL     1      -2.156  -1.135  -0.156  0.00  0.00    -0.001 A 
ATOM     18  C   UNL     1      -2.791  -2.179   0.528  0.00  0.00    -0.037 A 
ATOM     19  C   UNL     1      -1.951  -3.281   1.102  0.00  0.00    +0.059 C 
ATOM     20  C   UNL     1      -0.756  -3.529   0.190  0.00  0.00    +0.146 C 
ATOM     21  C   UNL     1      -2.900  -0.076  -0.682  0.00  0.00    +0.013 A 
ATOM     22  C   UNL     1      -4.177  -2.144   0.706  0.00  0.00    +0.004 A 
ATOM     23  C   UNL     1      -4.285  -0.059  -0.512  0.00  0.00    -0.050 A 
ATOM     25  C   UNL     1      -4.922  -1.088   0.182  0.00  0.00    +0.003 A 
ATOM     26  C   UNL     1      -5.088   1.067  -1.071  0.00  0.00    +0.044 C 
ENDBRANCH  11  14
ENDBRANCH   7  11
BRANCH   8  13
ATOM     13  C   UNL     1      -0.306   3.044  -0.285  0.00  0.00    +0.124 C 
BRANCH  13  17
ATOM      3  O   UNL     1       0.568   5.098   0.695  0.00  0.00    -0.251 OA
ATOM     17  C   UNL     1      -0.245   4.522  -0.011  0.00  0.00    +0.305 C 
BRANCH  17   1
ATOM      1  O   UNL     1      -1.247   5.152  -0.677  0.00  0.00    -0.481 OA
ATOM     29  H   UNL     1      -1.237   6.120  -0.521  0.00  0.00    +0.295 HD
ENDBRANCH  17   1
ENDBRANCH  13  17
ENDBRANCH   8  13
TORSDOF 6
