MODEL 1
REMARK VINA RESULT:      -7.3      0.000      0.000
REMARK  Name = 11886119
REMARK  4 active torsions:
REMARK  status: ('A' for Active; 'I' for Inactive)
REMARK    1  A    between atoms: N_4  and  C_12
REMARK    2  A    between atoms: N_5  and  C_13
REMARK    3  A    between atoms: N_9  and  C_21
REMARK    4  A    between atoms: C_16  and  C_18
REMARK                            x       y       z     vdW  Elec       q    Type
REMARK                         _______ _______ _______ _____ _____    ______ ____
ROOT
ATOM      1  O   UNL     1      -6.583  -7.880  42.037  0.00  0.00    -0.370 OA
ATOM      2  O   UNL     1      -6.396  -5.783  39.699  0.00  0.00    -0.370 OA
ATOM     10  C   UNL     1      -7.489  -6.446  40.360  0.00  0.00    +0.176 C 
ATOM     11  C   UNL     1      -7.034  -7.859  40.673  0.00  0.00    +0.171 C 
ATOM     12  C   UNL     1      -7.733  -5.810  41.716  0.00  0.00    +0.168 C 
ATOM     13  C   UNL     1      -5.873  -8.094  39.734  0.00  0.00    +0.131 C 
ATOM     14  C   UNL     1      -6.801  -6.594  42.634  0.00  0.00    +0.190 C 
ATOM     15  C   UNL     1      -5.297  -6.698  39.575  0.00  0.00    +0.185 C 
ENDROOT
BRANCH  13   5
ATOM      3  O   UNL     1      -6.666 -10.792  39.187  0.00  0.00    -0.252 OA
ATOM      5  N   UNL     1      -6.322  -8.621  38.468  0.00  0.00    -0.292 N 
ATOM      9  N   UNL     1      -7.084 -10.177  36.960  0.00  0.00    -0.269 N 
ATOM     17  C   UNL     1      -6.694  -9.959  38.285  0.00  0.00    +0.304 C 
ATOM     34  H   UNL     1      -6.443  -7.977  37.692  0.00  0.00    +0.151 HD
ATOM     35  H   UNL     1      -6.857  -9.420  36.326  0.00  0.00    +0.156 HD
BRANCH   9  21
ATOM     21  C   UNL     1      -7.526 -11.386  36.374  0.00  0.00    +0.042 A 
ATOM     22  C   UNL     1      -8.880 -11.725  36.343  0.00  0.00    +0.003 A 
ATOM     25  C   UNL     1      -6.553 -12.217  35.834  0.00  0.00    +0.024 A 
ATOM     26  C   UNL     1      -9.263 -12.948  35.744  0.00  0.00    -0.016 A 
ATOM     28  C   UNL     1      -9.868 -10.889  36.889  0.00  0.00    +0.010 A 
ATOM     29  C   UNL     1      -6.929 -13.420  35.244  0.00  0.00    +0.002 A 
ATOM     30  C   UNL     1      -8.275 -13.785  35.199  0.00  0.00    +0.008 A 
ATOM     31  C   UNL     1     -10.622 -13.300  35.707  0.00  0.00    +0.008 A 
ATOM     32  C   UNL     1     -11.214 -11.254  36.843  0.00  0.00    +0.001 A 
ATOM     33  C   UNL     1     -11.590 -12.457  36.253  0.00  0.00    +0.001 A 
ENDBRANCH   9  21
ENDBRANCH  13   5
BRANCH  12   4
ATOM      4  N   UNL     1      -9.146  -5.833  42.101  0.00  0.00    -0.217 N 
ATOM      6  N   UNL     1      -9.609  -6.774  42.930  0.00  0.00    -0.043 NA
ATOM      7  N   UNL     1     -11.253  -5.398  42.320  0.00  0.00    -0.108 NA
ATOM      8  N   UNL     1     -10.901  -6.503  43.062  0.00  0.00    -0.023 NA
ATOM     16  C   UNL     1     -10.148  -5.000  41.733  0.00  0.00    +0.182 A 
BRANCH  16  18
ATOM     18  C   UNL     1      -9.995  -3.874  40.846  0.00  0.00    +0.021 A 
ATOM     19  C   UNL     1      -9.250  -2.764  41.247  0.00  0.00    +0.011 A 
ATOM     20  C   UNL     1     -10.592  -3.892  39.584  0.00  0.00    +0.011 A 
ATOM     23  C   UNL     1      -9.103  -1.674  40.390  0.00  0.00    +0.001 A 
ATOM     24  C   UNL     1     -10.443  -2.802  38.726  0.00  0.00    +0.001 A 
ATOM     27  C   UNL     1      -9.700  -1.694  39.128  0.00  0.00    +0.000 A 
ENDBRANCH  16  18
ENDBRANCH  12   4
TORSDOF 4
ENDMDL
MODEL 2
REMARK VINA RESULT:      -7.2     42.595     45.043
REMARK  Name = 11886119
REMARK  4 active torsions:
REMARK  status: ('A' for Active; 'I' for Inactive)
REMARK    1  A    between atoms: N_4  and  C_12
REMARK    2  A    between atoms: N_5  and  C_13
REMARK    3  A    between atoms: N_9  and  C_21
REMARK    4  A    between atoms: C_16  and  C_18
REMARK                            x       y       z     vdW  Elec       q    Type
REMARK                         _______ _______ _______ _____ _____    ______ ____
ROOT
ATOM      1  O   UNL     1       9.069   6.359  -1.263  0.00  0.00    -0.370 OA
ATOM      2  O   UNL     1      12.065   7.186  -0.784  0.00  0.00    -0.370 OA
ATOM     10  C   UNL     1      11.352   5.938  -0.721  0.00  0.00    +0.176 C 
ATOM     11  C   UNL     1       9.977   6.235  -0.156  0.00  0.00    +0.171 C 
ATOM     12  C   UNL     1      11.091   5.423  -2.124  0.00  0.00    +0.168 C 
ATOM     13  C   UNL     1      10.138   7.567   0.540  0.00  0.00    +0.131 C 
ATOM     14  C   UNL     1       9.762   6.077  -2.487  0.00  0.00    +0.190 C 
ATOM     15  C   UNL     1      11.222   8.235  -0.286  0.00  0.00    +0.185 C 
ENDROOT
BRANCH  13   5
ATOM      3  O   UNL     1       8.645   8.250   2.887  0.00  0.00    -0.252 OA
ATOM      5  N   UNL     1      10.557   7.394   1.910  0.00  0.00    -0.292 N 
ATOM      9  N   UNL     1      10.428   7.471   4.202  0.00  0.00    -0.269 N 
ATOM     17  C   UNL     1       9.763   7.754   3.005  0.00  0.00    +0.304 C 
ATOM     34  H   UNL     1      11.439   6.923   2.089  0.00  0.00    +0.151 HD
ATOM     35  H   UNL     1      11.410   7.245   4.092  0.00  0.00    +0.156 HD
BRANCH   9  21
ATOM     21  C   UNL     1       9.968   7.686   5.522  0.00  0.00    +0.042 A 
ATOM     22  C   UNL     1       9.847   6.631   6.429  0.00  0.00    +0.003 A 
ATOM     25  C   UNL     1       9.644   8.991   5.871  0.00  0.00    +0.024 A 
ATOM     26  C   UNL     1       9.381   6.908   7.736  0.00  0.00    -0.016 A 
ATOM     28  C   UNL     1      10.173   5.310   6.081  0.00  0.00    +0.010 A 
ATOM     29  C   UNL     1       9.187   9.262   7.157  0.00  0.00    +0.002 A 
ATOM     30  C   UNL     1       9.054   8.229   8.084  0.00  0.00    +0.008 A 
ATOM     31  C   UNL     1       9.254   5.855   8.657  0.00  0.00    +0.008 A 
ATOM     32  C   UNL     1      10.041   4.277   7.009  0.00  0.00    +0.001 A 
ATOM     33  C   UNL     1       9.583   4.549   8.294  0.00  0.00    +0.001 A 
ENDBRANCH   9  21
ENDBRANCH  13   5
BRANCH  12   4
ATOM      4  N   UNL     1      11.101   3.959  -2.195  0.00  0.00    -0.217 N 
ATOM      6  N   UNL     1      10.114   3.302  -2.812  0.00  0.00    -0.043 NA
ATOM      7  N   UNL     1      11.615   1.868  -2.004  0.00  0.00    -0.108 NA
ATOM      8  N   UNL     1      10.434   2.021  -2.692  0.00  0.00    -0.023 NA
ATOM     16  C   UNL     1      12.011   3.084  -1.706  0.00  0.00    +0.182 A 
BRANCH  16  18
ATOM     18  C   UNL     1      13.202   3.457  -0.985  0.00  0.00    +0.021 A 
ATOM     19  C   UNL     1      14.295   3.993  -1.669  0.00  0.00    +0.011 A 
ATOM     20  C   UNL     1      13.266   3.281   0.398  0.00  0.00    +0.011 A 
ATOM     23  C   UNL     1      15.448   4.353  -0.972  0.00  0.00    +0.001 A 
ATOM     24  C   UNL     1      14.420   3.641   1.096  0.00  0.00    +0.001 A 
ATOM     27  C   UNL     1      15.510   4.176   0.411  0.00  0.00    +0.000 A 
ENDBRANCH  16  18
ENDBRANCH  12   4
TORSDOF 4
ENDMDL
MODEL 3
REMARK VINA RESULT:      -7.0     22.861     26.197
REMARK  Name = 11886119
REMARK  4 active torsions:
REMARK  status: ('A' for Active; 'I' for Inactive)
REMARK    1  A    between atoms: N_4  and  C_12
REMARK    2  A    between atoms: N_5  and  C_13
REMARK    3  A    between atoms: N_9  and  C_21
REMARK    4  A    between atoms: C_16  and  C_18
REMARK                            x       y       z     vdW  Elec       q    Type
REMARK                         _______ _______ _______ _____ _____    ______ ____
ROOT
ATOM      1  O   UNL     1      -9.257  -8.001  16.791  0.00  0.00    -0.370 OA
ATOM      2  O   UNL     1     -11.060 -10.362  15.758  0.00  0.00    -0.370 OA
ATOM     10  C   UNL     1      -9.940  -9.646  15.206  0.00  0.00    +0.176 C 
ATOM     11  C   UNL     1     -10.081  -8.197  15.630  0.00  0.00    +0.171 C 
ATOM     12  C   UNL     1      -8.655 -10.117  15.860  0.00  0.00    +0.168 C 
ATOM     13  C   UNL     1     -11.541  -8.055  15.995  0.00  0.00    +0.131 C 
ATOM     14  C   UNL     1      -8.538  -9.208  17.079  0.00  0.00    +0.190 C 
ATOM     15  C   UNL     1     -11.889  -9.447  16.489  0.00  0.00    +0.185 C 
ENDROOT
BRANCH  13   5
ATOM      3  O   UNL     1     -11.829  -5.439  14.863  0.00  0.00    -0.252 OA
ATOM      5  N   UNL     1     -12.335  -7.695  14.845  0.00  0.00    -0.292 N 
ATOM      9  N   UNL     1     -13.259  -6.343  13.235  0.00  0.00    -0.269 N 
ATOM     17  C   UNL     1     -12.421  -6.387  14.353  0.00  0.00    +0.304 C 
ATOM     34  H   UNL     1     -12.796  -8.436  14.325  0.00  0.00    +0.151 HD
ATOM     35  H   UNL     1     -13.803  -7.185  13.085  0.00  0.00    +0.156 HD
BRANCH   9  21
ATOM     21  C   UNL     1     -13.605  -5.215  12.454  0.00  0.00    +0.042 A 
ATOM     22  C   UNL     1     -12.933  -4.922  11.266  0.00  0.00    +0.003 A 
ATOM     25  C   UNL     1     -14.639  -4.416  12.924  0.00  0.00    +0.024 A 
ATOM     26  C   UNL     1     -13.323  -3.780  10.526  0.00  0.00    -0.016 A 
ATOM     28  C   UNL     1     -11.886  -5.726  10.786  0.00  0.00    +0.010 A 
ATOM     29  C   UNL     1     -15.023  -3.293  12.197  0.00  0.00    +0.002 A 
ATOM     30  C   UNL     1     -14.370  -2.975  11.007  0.00  0.00    +0.008 A 
ATOM     31  C   UNL     1     -12.655  -3.475   9.330  0.00  0.00    +0.008 A 
ATOM     32  C   UNL     1     -11.233  -5.408   9.594  0.00  0.00    +0.001 A 
ATOM     33  C   UNL     1     -11.617  -4.285   8.868  0.00  0.00    +0.001 A 
ENDBRANCH   9  21
ENDBRANCH  13   5
BRANCH  12   4
ATOM      4  N   UNL     1      -7.512 -10.075  14.944  0.00  0.00    -0.217 N 
ATOM      6  N   UNL     1      -7.632  -9.524  13.732  0.00  0.00    -0.043 NA
ATOM      7  N   UNL     1      -5.559 -10.284  14.039  0.00  0.00    -0.108 NA
ATOM      8  N   UNL     1      -6.432  -9.654  13.182  0.00  0.00    -0.023 NA
ATOM     16  C   UNL     1      -6.251 -10.535  15.127  0.00  0.00    +0.182 A 
BRANCH  16  18
ATOM     18  C   UNL     1      -5.780 -11.185  16.323  0.00  0.00    +0.021 A 
ATOM     19  C   UNL     1      -5.082 -10.455  17.288  0.00  0.00    +0.011 A 
ATOM     20  C   UNL     1      -6.020 -12.546  16.521  0.00  0.00    +0.011 A 
ATOM     23  C   UNL     1      -4.626 -11.084  18.445  0.00  0.00    +0.001 A 
ATOM     24  C   UNL     1      -5.563 -13.175  17.679  0.00  0.00    +0.001 A 
ATOM     27  C   UNL     1      -4.866 -12.445  18.641  0.00  0.00    +0.000 A 
ENDBRANCH  16  18
ENDBRANCH  12   4
TORSDOF 4
ENDMDL
MODEL 4
REMARK VINA RESULT:      -7.0     22.938     25.832
REMARK  Name = 11886119
REMARK  4 active torsions:
REMARK  status: ('A' for Active; 'I' for Inactive)
REMARK    1  A    between atoms: N_4  and  C_12
REMARK    2  A    between atoms: N_5  and  C_13
REMARK    3  A    between atoms: N_9  and  C_21
REMARK    4  A    between atoms: C_16  and  C_18
REMARK                            x       y       z     vdW  Elec       q    Type
REMARK                         _______ _______ _______ _____ _____    ______ ____
ROOT
ATOM      1  O   UNL     1     -13.395  -7.989  15.479  0.00  0.00    -0.370 OA
ATOM      2  O   UNL     1     -11.536  -5.634  14.535  0.00  0.00    -0.370 OA
ATOM     10  C   UNL     1     -11.984  -6.858  13.924  0.00  0.00    +0.176 C 
ATOM     11  C   UNL     1     -12.037  -7.909  15.016  0.00  0.00    +0.171 C 
ATOM     12  C   UNL     1     -13.421  -6.708  13.463  0.00  0.00    +0.168 C 
ATOM     13  C   UNL     1     -11.144  -7.363  16.106  0.00  0.00    +0.131 C 
ATOM     14  C   UNL     1     -14.221  -7.117  14.695  0.00  0.00    +0.190 C 
ATOM     15  C   UNL     1     -11.301  -5.863  15.932  0.00  0.00    +0.185 C 
ENDROOT
BRANCH  13   5
ATOM      3  O   UNL     1      -9.621  -9.106  17.793  0.00  0.00    -0.252 OA
ATOM      5  N   UNL     1      -9.773  -7.770  15.912  0.00  0.00    -0.292 N 
ATOM      9  N   UNL     1      -7.790  -8.845  16.346  0.00  0.00    -0.269 N 
ATOM     17  C   UNL     1      -9.099  -8.630  16.788  0.00  0.00    +0.304 C 
ATOM     34  H   UNL     1      -9.297  -7.477  15.064  0.00  0.00    +0.151 HD
ATOM     35  H   UNL     1      -7.488  -8.219  15.609  0.00  0.00    +0.156 HD
BRANCH   9  21
ATOM     21  C   UNL     1      -6.792  -9.646  16.949  0.00  0.00    +0.042 A 
ATOM     22  C   UNL     1      -5.732 -10.167  16.203  0.00  0.00    +0.003 A 
ATOM     25  C   UNL     1      -6.916  -9.890  18.310  0.00  0.00    +0.024 A 
ATOM     26  C   UNL     1      -4.763 -10.963  16.860  0.00  0.00    -0.016 A 
ATOM     28  C   UNL     1      -5.603  -9.925  14.825  0.00  0.00    +0.010 A 
ATOM     29  C   UNL     1      -5.962 -10.672  18.956  0.00  0.00    +0.002 A 
ATOM     30  C   UNL     1      -4.893 -11.206  18.237  0.00  0.00    +0.008 A 
ATOM     31  C   UNL     1      -3.693 -11.493  16.120  0.00  0.00    +0.008 A 
ATOM     32  C   UNL     1      -4.532 -10.459  14.107  0.00  0.00    +0.001 A 
ATOM     33  C   UNL     1      -3.580 -11.241  14.753  0.00  0.00    +0.001 A 
ENDBRANCH   9  21
ENDBRANCH  13   5
BRANCH  12   4
ATOM      4  N   UNL     1     -13.706  -7.484  12.253  0.00  0.00    -0.217 N 
ATOM      6  N   UNL     1     -14.275  -8.691  12.338  0.00  0.00    -0.043 NA
ATOM      7  N   UNL     1     -13.891  -8.160  10.208  0.00  0.00    -0.108 NA
ATOM      8  N   UNL     1     -14.387  -9.101  11.082  0.00  0.00    -0.023 NA
ATOM     16  C   UNL     1     -13.475  -7.165  10.958  0.00  0.00    +0.182 A 
BRANCH  16  18
ATOM     18  C   UNL     1     -12.873  -5.935  10.510  0.00  0.00    +0.021 A 
ATOM     19  C   UNL     1     -13.580  -4.735  10.605  0.00  0.00    +0.011 A 
ATOM     20  C   UNL     1     -11.582  -5.941   9.979  0.00  0.00    +0.011 A 
ATOM     23  C   UNL     1     -12.999  -3.545  10.171  0.00  0.00    +0.001 A 
ATOM     24  C   UNL     1     -11.000  -4.749   9.545  0.00  0.00    +0.001 A 
ATOM     27  C   UNL     1     -11.708  -3.552   9.640  0.00  0.00    +0.000 A 
ENDBRANCH  16  18
ENDBRANCH  12   4
TORSDOF 4
ENDMDL
MODEL 5
REMARK VINA RESULT:      -7.0     44.985     48.369
REMARK  Name = 11886119
REMARK  4 active torsions:
REMARK  status: ('A' for Active; 'I' for Inactive)
REMARK    1  A    between atoms: N_4  and  C_12
REMARK    2  A    between atoms: N_5  and  C_13
REMARK    3  A    between atoms: N_9  and  C_21
REMARK    4  A    between atoms: C_16  and  C_18
REMARK                            x       y       z     vdW  Elec       q    Type
REMARK                         _______ _______ _______ _____ _____    ______ ____
ROOT
ATOM      1  O   UNL     1      20.202  -6.413  -1.950  0.00  0.00    -0.370 OA
ATOM      2  O   UNL     1      18.255  -7.719  -4.047  0.00  0.00    -0.370 OA
ATOM     10  C   UNL     1      18.104  -6.693  -3.049  0.00  0.00    +0.176 C 
ATOM     11  C   UNL     1      18.945  -7.103  -1.855  0.00  0.00    +0.171 C 
ATOM     12  C   UNL     1      18.731  -5.401  -3.538  0.00  0.00    +0.168 C 
ATOM     13  C   UNL     1      19.150  -8.590  -2.034  0.00  0.00    +0.131 C 
ATOM     14  C   UNL     1      20.180  -5.529  -3.080  0.00  0.00    +0.190 C 
ATOM     15  C   UNL     1      19.129  -8.740  -3.545  0.00  0.00    +0.185 C 
ENDROOT
BRANCH  13   5
ATOM      3  O   UNL     1      19.356 -11.180  -0.828  0.00  0.00    -0.252 OA
ATOM      5  N   UNL     1      18.083  -9.342  -1.419  0.00  0.00    -0.292 N 
ATOM      9  N   UNL     1      17.063 -11.089  -0.332  0.00  0.00    -0.269 N 
ATOM     17  C   UNL     1      18.269 -10.608  -0.849  0.00  0.00    +0.304 C 
ATOM     34  H   UNL     1      17.171  -8.904  -1.332  0.00  0.00    +0.151 HD
ATOM     35  H   UNL     1      16.245 -10.562  -0.615  0.00  0.00    +0.156 HD
BRANCH   9  21
ATOM     21  C   UNL     1      16.829 -12.323   0.321  0.00  0.00    +0.042 A 
ATOM     22  C   UNL     1      16.462 -12.373   1.667  0.00  0.00    +0.003 A 
ATOM     25  C   UNL     1      16.984 -13.476  -0.438  0.00  0.00    +0.024 A 
ATOM     26  C   UNL     1      16.242 -13.636   2.266  0.00  0.00    -0.016 A 
ATOM     28  C   UNL     1      16.306 -11.210   2.438  0.00  0.00    +0.010 A 
ATOM     29  C   UNL     1      16.767 -14.718   0.152  0.00  0.00    +0.002 A 
ATOM     30  C   UNL     1      16.400 -14.799   1.495  0.00  0.00    +0.008 A 
ATOM     31  C   UNL     1      15.873 -13.699   3.619  0.00  0.00    +0.008 A 
ATOM     32  C   UNL     1      15.937 -11.291   3.782  0.00  0.00    +0.001 A 
ATOM     33  C   UNL     1      15.721 -12.533   4.371  0.00  0.00    +0.001 A 
ENDBRANCH   9  21
ENDBRANCH  13   5
BRANCH  12   4
ATOM      4  N   UNL     1      18.028  -4.214  -3.045  0.00  0.00    -0.217 N 
ATOM      6  N   UNL     1      18.643  -3.348  -2.233  0.00  0.00    -0.043 NA
ATOM      7  N   UNL     1      16.555  -2.686  -2.638  0.00  0.00    -0.108 NA
ATOM      8  N   UNL     1      17.736  -2.413  -1.987  0.00  0.00    -0.023 NA
ATOM     16  C   UNL     1      16.760  -3.808  -3.289  0.00  0.00    +0.182 A 
BRANCH  16  18
ATOM     18  C   UNL     1      15.819  -4.510  -4.124  0.00  0.00    +0.021 A 
ATOM     19  C   UNL     1      14.763  -5.218  -3.547  0.00  0.00    +0.011 A 
ATOM     20  C   UNL     1      15.962  -4.484  -5.513  0.00  0.00    +0.011 A 
ATOM     23  C   UNL     1      13.853  -5.898  -4.356  0.00  0.00    +0.001 A 
ATOM     24  C   UNL     1      15.051  -5.165  -6.322  0.00  0.00    +0.001 A 
ATOM     27  C   UNL     1      13.998  -5.872  -5.744  0.00  0.00    +0.000 A 
ENDBRANCH  16  18
ENDBRANCH  12   4
TORSDOF 4
ENDMDL
MODEL 6
REMARK VINA RESULT:      -7.0     43.283     45.676
REMARK  Name = 11886119
REMARK  4 active torsions:
REMARK  status: ('A' for Active; 'I' for Inactive)
REMARK    1  A    between atoms: N_4  and  C_12
REMARK    2  A    between atoms: N_5  and  C_13
REMARK    3  A    between atoms: N_9  and  C_21
REMARK    4  A    between atoms: C_16  and  C_18
REMARK                            x       y       z     vdW  Elec       q    Type
REMARK                         _______ _______ _______ _____ _____    ______ ____
ROOT
ATOM      1  O   UNL     1      14.336   5.778   0.208  0.00  0.00    -0.370 OA
ATOM      2  O   UNL     1      12.366   3.382  -0.318  0.00  0.00    -0.370 OA
ATOM     10  C   UNL     1      12.329   4.790  -0.619  0.00  0.00    +0.176 C 
ATOM     11  C   UNL     1      12.965   5.515   0.552  0.00  0.00    +0.171 C 
ATOM     12  C   UNL     1      13.236   5.089  -1.797  0.00  0.00    +0.168 C 
ATOM     13  C   UNL     1      12.893   4.523   1.690  0.00  0.00    +0.131 C 
ATOM     14  C   UNL     1      14.586   5.342  -1.135  0.00  0.00    +0.190 C 
ATOM     15  C   UNL     1      12.977   3.192   0.966  0.00  0.00    +0.185 C 
ENDROOT
BRANCH  13   5
ATOM      3  O   UNL     1      12.207   6.564   3.579  0.00  0.00    -0.252 OA
ATOM      5  N   UNL     1      11.650   4.647   2.413  0.00  0.00    -0.292 N 
ATOM      9  N   UNL     1      10.113   5.542   3.866  0.00  0.00    -0.269 N 
ATOM     17  C   UNL     1      11.393   5.681   3.322  0.00  0.00    +0.304 C 
ATOM     34  H   UNL     1      10.900   3.996   2.200  0.00  0.00    +0.151 HD
ATOM     35  H   UNL     1       9.671   4.650   3.676  0.00  0.00    +0.156 HD
BRANCH   9  21
ATOM     21  C   UNL     1       9.479   6.377   4.817  0.00  0.00    +0.042 A 
ATOM     22  C   UNL     1       9.457   6.044   6.172  0.00  0.00    +0.003 A 
ATOM     25  C   UNL     1       8.881   7.535   4.338  0.00  0.00    +0.024 A 
ATOM     26  C   UNL     1       8.806   6.917   7.077  0.00  0.00    -0.016 A 
ATOM     28  C   UNL     1      10.059   4.873   6.661  0.00  0.00    +0.010 A 
ATOM     29  C   UNL     1       8.242   8.394   5.228  0.00  0.00    +0.002 A 
ATOM     30  C   UNL     1       8.203   8.088   6.588  0.00  0.00    +0.008 A 
ATOM     31  C   UNL     1       8.777   6.594   8.443  0.00  0.00    +0.008 A 
ATOM     32  C   UNL     1      10.021   4.568   8.022  0.00  0.00    +0.001 A 
ATOM     33  C   UNL     1       9.381   5.427   8.911  0.00  0.00    +0.001 A 
ENDBRANCH   9  21
ENDBRANCH  13   5
BRANCH  12   4
ATOM      4  N   UNL     1      12.735   6.189  -2.625  0.00  0.00    -0.217 N 
ATOM      6  N   UNL     1      13.210   7.429  -2.467  0.00  0.00    -0.043 NA
ATOM      7  N   UNL     1      11.668   7.386  -4.075  0.00  0.00    -0.108 NA
ATOM      8  N   UNL     1      12.553   8.159  -3.359  0.00  0.00    -0.023 NA
ATOM     16  C   UNL     1      11.799   6.167  -3.604  0.00  0.00    +0.182 A 
BRANCH  16  18
ATOM     18  C   UNL     1      11.086   4.991  -4.031  0.00  0.00    +0.021 A 
ATOM     19  C   UNL     1      11.607   4.188  -5.047  0.00  0.00    +0.011 A 
ATOM     20  C   UNL     1       9.873   4.651  -3.430  0.00  0.00    +0.011 A 
ATOM     23  C   UNL     1      10.917   3.049  -5.462  0.00  0.00    +0.001 A 
ATOM     24  C   UNL     1       9.182   3.512  -3.844  0.00  0.00    +0.001 A 
ATOM     27  C   UNL     1       9.703   2.711  -4.860  0.00  0.00    +0.000 A 
ENDBRANCH  16  18
ENDBRANCH  12   4
TORSDOF 4
ENDMDL
MODEL 7
REMARK VINA RESULT:      -7.0     22.265     25.303
REMARK  Name = 11886119
REMARK  4 active torsions:
REMARK  status: ('A' for Active; 'I' for Inactive)
REMARK    1  A    between atoms: N_4  and  C_12
REMARK    2  A    between atoms: N_5  and  C_13
REMARK    3  A    between atoms: N_9  and  C_21
REMARK    4  A    between atoms: C_16  and  C_18
REMARK                            x       y       z     vdW  Elec       q    Type
REMARK                         _______ _______ _______ _____ _____    ______ ____
ROOT
ATOM      1  O   UNL     1     -12.596 -10.047  14.460  0.00  0.00    -0.370 OA
ATOM      2  O   UNL     1     -12.222  -7.141  15.605  0.00  0.00    -0.370 OA
ATOM     10  C   UNL     1     -11.677  -7.847  14.475  0.00  0.00    +0.176 C 
ATOM     11  C   UNL     1     -11.462  -9.285  14.906  0.00  0.00    +0.171 C 
ATOM     12  C   UNL     1     -12.712  -7.925  13.369  0.00  0.00    +0.168 C 
ATOM     13  C   UNL     1     -11.434  -9.224  16.416  0.00  0.00    +0.131 C 
ATOM     14  C   UNL     1     -13.475  -9.203  13.703  0.00  0.00    +0.190 C 
ATOM     15  C   UNL     1     -12.350  -8.049  16.709  0.00  0.00    +0.185 C 
ENDROOT
BRANCH  13   5
ATOM      3  O   UNL     1      -9.520 -11.194  17.228  0.00  0.00    -0.252 OA
ATOM      5  N   UNL     1     -10.098  -8.979  16.904  0.00  0.00    -0.292 N 
ATOM      9  N   UNL     1      -8.004  -9.468  17.711  0.00  0.00    -0.269 N 
ATOM     17  C   UNL     1      -9.221 -10.004  17.281  0.00  0.00    +0.304 C 
ATOM     34  H   UNL     1      -9.752  -8.024  16.907  0.00  0.00    +0.151 HD
ATOM     35  H   UNL     1      -8.017  -8.465  17.863  0.00  0.00    +0.156 HD
BRANCH   9  21
ATOM     21  C   UNL     1      -6.863 -10.165  18.172  0.00  0.00    +0.042 A 
ATOM     22  C   UNL     1      -5.774 -10.410  17.332  0.00  0.00    +0.003 A 
ATOM     25  C   UNL     1      -6.878 -10.594  19.492  0.00  0.00    +0.024 A 
ATOM     26  C   UNL     1      -4.660 -11.114  17.849  0.00  0.00    -0.016 A 
ATOM     28  C   UNL     1      -5.755  -9.979  15.995  0.00  0.00    +0.010 A 
ATOM     29  C   UNL     1      -5.782 -11.286  20.001  0.00  0.00    +0.002 A 
ATOM     30  C   UNL     1      -4.681 -11.546  19.186  0.00  0.00    +0.008 A 
ATOM     31  C   UNL     1      -3.560 -11.367  17.014  0.00  0.00    +0.008 A 
ATOM     32  C   UNL     1      -4.652 -10.239  15.180  0.00  0.00    +0.001 A 
ATOM     33  C   UNL     1      -3.557 -10.931  15.689  0.00  0.00    +0.001 A 
ENDBRANCH   9  21
ENDBRANCH  13   5
BRANCH  12   4
ATOM      4  N   UNL     1     -12.109  -7.895  12.034  0.00  0.00    -0.217 N 
ATOM      6  N   UNL     1     -11.389  -8.930  11.589  0.00  0.00    -0.043 NA
ATOM      7  N   UNL     1     -11.475  -7.323  10.047  0.00  0.00    -0.108 NA
ATOM      8  N   UNL     1     -11.003  -8.574  10.371  0.00  0.00    -0.023 NA
ATOM     16  C   UNL     1     -12.160  -6.921  11.094  0.00  0.00    +0.182 A 
BRANCH  16  18
ATOM     18  C   UNL     1     -12.855  -5.668  11.246  0.00  0.00    +0.021 A 
ATOM     19  C   UNL     1     -12.189  -4.559  11.772  0.00  0.00    +0.011 A 
ATOM     20  C   UNL     1     -14.194  -5.561  10.869  0.00  0.00    +0.011 A 
ATOM     23  C   UNL     1     -12.862  -3.347  11.920  0.00  0.00    +0.001 A 
ATOM     24  C   UNL     1     -14.867  -4.348  11.017  0.00  0.00    +0.001 A 
ATOM     27  C   UNL     1     -14.202  -3.241  11.543  0.00  0.00    +0.000 A 
ENDBRANCH  16  18
ENDBRANCH  12   4
TORSDOF 4
ENDMDL
MODEL 8
REMARK VINA RESULT:      -7.0     44.237     47.898
REMARK  Name = 11886119
REMARK  4 active torsions:
REMARK  status: ('A' for Active; 'I' for Inactive)
REMARK    1  A    between atoms: N_4  and  C_12
REMARK    2  A    between atoms: N_5  and  C_13
REMARK    3  A    between atoms: N_9  and  C_21
REMARK    4  A    between atoms: C_16  and  C_18
REMARK                            x       y       z     vdW  Elec       q    Type
REMARK                         _______ _______ _______ _____ _____    ______ ____
ROOT
ATOM      1  O   UNL     1      20.517 -10.737  -0.149  0.00  0.00    -0.370 OA
ATOM      2  O   UNL     1      19.479  -9.414   2.509  0.00  0.00    -0.370 OA
ATOM     10  C   UNL     1      18.833 -10.064   1.400  0.00  0.00    +0.176 C 
ATOM     11  C   UNL     1      19.594  -9.676   0.147  0.00  0.00    +0.171 C 
ATOM     12  C   UNL     1      19.011 -11.567   1.509  0.00  0.00    +0.168 C 
ATOM     13  C   UNL     1      20.346  -8.424   0.538  0.00  0.00    +0.131 C 
ATOM     14  C   UNL     1      20.331 -11.809   0.785  0.00  0.00    +0.190 C 
ATOM     15  C   UNL     1      20.586  -8.641   2.021  0.00  0.00    +0.185 C 
ENDROOT
BRANCH  13   5
ATOM      3  O   UNL     1      20.335  -6.804  -1.824  0.00  0.00    -0.252 OA
ATOM      5  N   UNL     1      19.550  -7.242   0.306  0.00  0.00    -0.292 N 
ATOM      9  N   UNL     1      18.726  -5.419  -0.822  0.00  0.00    -0.269 N 
ATOM     17  C   UNL     1      19.604  -6.505  -0.883  0.00  0.00    +0.304 C 
ATOM     34  H   UNL     1      18.867  -6.974   1.008  0.00  0.00    +0.151 HD
ATOM     35  H   UNL     1      18.356  -5.231   0.103  0.00  0.00    +0.156 HD
BRANCH   9  21
ATOM     21  C   UNL     1      18.488  -4.438  -1.813  0.00  0.00    +0.042 A 
ATOM     22  C   UNL     1      17.618  -4.681  -2.878  0.00  0.00    +0.003 A 
ATOM     25  C   UNL     1      19.158  -3.230  -1.678  0.00  0.00    +0.024 A 
ATOM     26  C   UNL     1      17.419  -3.662  -3.840  0.00  0.00    -0.016 A 
ATOM     28  C   UNL     1      16.938  -5.901  -3.020  0.00  0.00    +0.010 A 
ATOM     29  C   UNL     1      18.962  -2.228  -2.624  0.00  0.00    +0.002 A 
ATOM     30  C   UNL     1      18.100  -2.441  -3.699  0.00  0.00    +0.008 A 
ATOM     31  C   UNL     1      16.547  -3.894  -4.916  0.00  0.00    +0.008 A 
ATOM     32  C   UNL     1      16.074  -6.114  -4.095  0.00  0.00    +0.001 A 
ATOM     33  C   UNL     1      15.879  -5.112  -5.041  0.00  0.00    +0.001 A 
ENDBRANCH   9  21
ENDBRANCH  13   5
BRANCH  12   4
ATOM      4  N   UNL     1      17.866 -12.308   0.975  0.00  0.00    -0.217 N 
ATOM      6  N   UNL     1      17.740 -12.507  -0.341  0.00  0.00    -0.043 NA
ATOM      7  N   UNL     1      16.034 -13.435   0.752  0.00  0.00    -0.108 NA
ATOM      8  N   UNL     1      16.615 -13.198  -0.473  0.00  0.00    -0.023 NA
ATOM     16  C   UNL     1      16.828 -12.874   1.635  0.00  0.00    +0.182 A 
BRANCH  16  18
ATOM     18  C   UNL     1      16.653 -12.847   3.065  0.00  0.00    +0.021 A 
ATOM     19  C   UNL     1      15.868 -11.855   3.655  0.00  0.00    +0.011 A 
ATOM     20  C   UNL     1      17.268 -13.813   3.863  0.00  0.00    +0.011 A 
ATOM     23  C   UNL     1      15.699 -11.828   5.039  0.00  0.00    +0.001 A 
ATOM     24  C   UNL     1      17.099 -13.786   5.248  0.00  0.00    +0.001 A 
ATOM     27  C   UNL     1      16.315 -12.794   5.836  0.00  0.00    +0.000 A 
ENDBRANCH  16  18
ENDBRANCH  12   4
TORSDOF 4
ENDMDL
MODEL 9
REMARK VINA RESULT:      -6.9     46.193     47.818
REMARK  Name = 11886119
REMARK  4 active torsions:
REMARK  status: ('A' for Active; 'I' for Inactive)
REMARK    1  A    between atoms: N_4  and  C_12
REMARK    2  A    between atoms: N_5  and  C_13
REMARK    3  A    between atoms: N_9  and  C_21
REMARK    4  A    between atoms: C_16  and  C_18
REMARK                            x       y       z     vdW  Elec       q    Type
REMARK                         _______ _______ _______ _____ _____    ______ ____
ROOT
ATOM      1  O   UNL     1      10.360   6.518  -3.848  0.00  0.00    -0.370 OA
ATOM      2  O   UNL     1       9.272   6.875  -0.918  0.00  0.00    -0.370 OA
ATOM     10  C   UNL     1       9.384   5.752  -1.812  0.00  0.00    +0.176 C 
ATOM     11  C   UNL     1       9.098   6.263  -3.211  0.00  0.00    +0.171 C 
ATOM     12  C   UNL     1      10.822   5.274  -1.862  0.00  0.00    +0.168 C 
ATOM     13  C   UNL     1       8.351   7.559  -2.991  0.00  0.00    +0.131 C 
ATOM     14  C   UNL     1      11.427   6.123  -2.975  0.00  0.00    +0.190 C 
ATOM     15  C   UNL     1       8.928   8.045  -1.674  0.00  0.00    +0.185 C 
ENDROOT
BRANCH  13   5
ATOM      3  O   UNL     1       6.388   8.036  -5.021  0.00  0.00    -0.252 OA
ATOM      5  N   UNL     1       6.930   7.332  -2.887  0.00  0.00    -0.292 N 
ATOM      9  N   UNL     1       4.729   7.277  -3.543  0.00  0.00    -0.269 N 
ATOM     17  C   UNL     1       6.035   7.592  -3.932  0.00  0.00    +0.304 C 
ATOM     34  H   UNL     1       6.571   6.897  -2.042  0.00  0.00    +0.151 HD
ATOM     35  H   UNL     1       4.617   7.108  -2.550  0.00  0.00    +0.156 HD
BRANCH   9  21
ATOM     21  C   UNL     1       3.544   7.397  -4.306  0.00  0.00    +0.042 A 
ATOM     22  C   UNL     1       2.905   6.274  -4.834  0.00  0.00    +0.003 A 
ATOM     25  C   UNL     1       3.049   8.679  -4.504  0.00  0.00    +0.024 A 
ATOM     26  C   UNL     1       1.722   6.455  -5.589  0.00  0.00    -0.016 A 
ATOM     28  C   UNL     1       3.401   4.975  -4.637  0.00  0.00    +0.010 A 
ATOM     29  C   UNL     1       1.886   8.858  -5.246  0.00  0.00    +0.002 A 
ATOM     30  C   UNL     1       1.226   7.755  -5.787  0.00  0.00    +0.008 A 
ATOM     31  C   UNL     1       1.070   5.333  -6.126  0.00  0.00    +0.008 A 
ATOM     32  C   UNL     1       2.740   3.871  -5.177  0.00  0.00    +0.001 A 
ATOM     33  C   UNL     1       1.577   4.050  -5.920  0.00  0.00    +0.001 A 
ENDBRANCH   9  21
ENDBRANCH  13   5
BRANCH  12   4
ATOM      4  N   UNL     1      10.926   3.826  -2.062  0.00  0.00    -0.217 N 
ATOM      6  N   UNL     1       9.983   3.165  -2.742  0.00  0.00    -0.043 NA
ATOM      7  N   UNL     1      11.571   1.763  -2.051  0.00  0.00    -0.108 NA
ATOM      8  N   UNL     1      10.384   1.900  -2.733  0.00  0.00    -0.023 NA
ATOM     16  C   UNL     1      11.889   2.970  -1.645  0.00  0.00    +0.182 A 
BRANCH  16  18
ATOM     18  C   UNL     1      13.052   3.352  -0.885  0.00  0.00    +0.021 A 
ATOM     19  C   UNL     1      14.172   3.874  -1.535  0.00  0.00    +0.011 A 
ATOM     20  C   UNL     1      13.062   3.199   0.503  0.00  0.00    +0.011 A 
ATOM     23  C   UNL     1      15.298   4.243  -0.800  0.00  0.00    +0.001 A 
ATOM     24  C   UNL     1      14.189   3.569   1.238  0.00  0.00    +0.001 A 
ATOM     27  C   UNL     1      15.306   4.089   0.587  0.00  0.00    +0.000 A 
ENDBRANCH  16  18
ENDBRANCH  12   4
TORSDOF 4
ENDMDL
MODEL 10
REMARK VINA RESULT:      -6.9     40.952     42.734
REMARK  Name = 11886119
REMARK  4 active torsions:
REMARK  status: ('A' for Active; 'I' for Inactive)
REMARK    1  A    between atoms: N_4  and  C_12
REMARK    2  A    between atoms: N_5  and  C_13
REMARK    3  A    between atoms: N_9  and  C_21
REMARK    4  A    between atoms: C_16  and  C_18
REMARK                            x       y       z     vdW  Elec       q    Type
REMARK                         _______ _______ _______ _____ _____    ______ ____
ROOT
ATOM      1  O   UNL     1      -0.484  12.170   2.502  0.00  0.00    -0.370 OA
ATOM      2  O   UNL     1      -0.997   9.259   1.426  0.00  0.00    -0.370 OA
ATOM     10  C   UNL     1      -0.566   9.794   2.691  0.00  0.00    +0.176 C 
ATOM     11  C   UNL     1       0.323  10.986   2.394  0.00  0.00    +0.171 C 
ATOM     12  C   UNL     1      -1.753  10.375   3.436  0.00  0.00    +0.168 C 
ATOM     13  C   UNL     1       0.759  10.780   0.961  0.00  0.00    +0.131 C 
ATOM     14  C   UNL     1      -1.805  11.813   2.931  0.00  0.00    +0.190 C 
ATOM     15  C   UNL     1      -0.424  10.038   0.366  0.00  0.00    +0.185 C 
ENDROOT
BRANCH  13   5
ATOM      3  O   UNL     1       3.127  11.390  -0.530  0.00  0.00    -0.252 OA
ATOM      5  N   UNL     1       1.962   9.986   0.890  0.00  0.00    -0.292 N 
ATOM      9  N   UNL     1       4.090   9.399   0.257  0.00  0.00    -0.269 N 
ATOM     17  C   UNL     1       3.081  10.358   0.134  0.00  0.00    +0.304 C 
ATOM     34  H   UNL     1       2.028   9.155   1.470  0.00  0.00    +0.151 HD
ATOM     35  H   UNL     1       3.794   8.532   0.691  0.00  0.00    +0.156 HD
BRANCH   9  21
ATOM     21  C   UNL     1       5.370   9.403  -0.347  0.00  0.00    +0.042 A 
ATOM     22  C   UNL     1       5.646   8.618  -1.467  0.00  0.00    +0.003 A 
ATOM     25  C   UNL     1       6.334  10.221   0.228  0.00  0.00    +0.024 A 
ATOM     26  C   UNL     1       6.945   8.664  -2.028  0.00  0.00    -0.016 A 
ATOM     28  C   UNL     1       4.675   7.788  -2.052  0.00  0.00    +0.010 A 
ATOM     29  C   UNL     1       7.611  10.267  -0.324  0.00  0.00    +0.002 A 
ATOM     30  C   UNL     1       7.917   9.493  -1.443  0.00  0.00    +0.008 A 
ATOM     31  C   UNL     1       7.235   7.878  -3.155  0.00  0.00    +0.008 A 
ATOM     32  C   UNL     1       4.980   7.015  -3.172  0.00  0.00    +0.001 A 
ATOM     33  C   UNL     1       6.257   7.060  -3.723  0.00  0.00    +0.001 A 
ENDBRANCH   9  21
ENDBRANCH  13   5
BRANCH  12   4
ATOM      4  N   UNL     1      -1.628  10.233   4.889  0.00  0.00    -0.217 N 
ATOM      6  N   UNL     1      -0.668  10.885   5.555  0.00  0.00    -0.043 NA
ATOM      7  N   UNL     1      -1.903   9.671   6.958  0.00  0.00    -0.108 NA
ATOM      8  N   UNL     1      -0.842  10.537   6.823  0.00  0.00    -0.023 NA
ATOM     16  C   UNL     1      -2.375   9.498   5.746  0.00  0.00    +0.182 A 
BRANCH  16  18
ATOM     18  C   UNL     1      -3.493   8.674   5.360  0.00  0.00    +0.021 A 
ATOM     19  C   UNL     1      -4.689   9.266   4.949  0.00  0.00    +0.011 A 
ATOM     20  C   UNL     1      -3.383   7.283   5.397  0.00  0.00    +0.011 A 
ATOM     23  C   UNL     1      -5.771   8.470   4.577  0.00  0.00    +0.001 A 
ATOM     24  C   UNL     1      -4.466   6.486   5.024  0.00  0.00    +0.001 A 
ATOM     27  C   UNL     1      -5.660   7.080   4.614  0.00  0.00    +0.000 A 
ENDBRANCH  16  18
ENDBRANCH  12   4
TORSDOF 4
ENDMDL
