MODEL 1
REMARK VINA RESULT:      -6.8      0.000      0.000
REMARK  Name = 40586258
REMARK  9 active torsions:
REMARK  status: ('A' for Active; 'I' for Inactive)
REMARK    1  A    between atoms: O_2  and  C_15
REMARK    2  A    between atoms: O_3  and  C_20
REMARK    3  A    between atoms: N_8  and  C_26
REMARK    4  A    between atoms: C_10  and  C_18
REMARK    5  A    between atoms: C_12  and  C_20
REMARK    6  A    between atoms: C_12  and  C_21
REMARK    7  A    between atoms: C_13  and  C_23
REMARK    8  A    between atoms: C_23  and  C_24
REMARK    9  A    between atoms: C_27  and  C_30
REMARK                            x       y       z     vdW  Elec       q    Type
REMARK                         _______ _______ _______ _____ _____    ______ ____
ROOT
ATOM      1  S   UNL     1      -6.149  -7.629  39.190  0.00  0.00    -0.057 S 
ATOM      5  O   UNL     1      -7.354 -11.999  38.026  0.00  0.00    -0.266 OA
ATOM      7  N   UNL     1      -8.149  -9.255  38.981  0.00  0.00    -0.229 NA
ATOM      9  N   UNL     1      -5.976 -10.124  38.405  0.00  0.00    -0.258 N 
ATOM     10  C   UNL     1     -10.368  -6.524  40.558  0.00  0.00    -0.019 C 
ATOM     11  C   UNL     1      -9.493  -5.347  39.939  0.00  0.00    +0.011 C 
ATOM     12  C   UNL     1      -9.873  -3.875  40.361  0.00  0.00    +0.021 C 
ATOM     13  C   UNL     1     -10.114  -7.838  39.685  0.00  0.00    +0.054 C 
ATOM     14  C   UNL     1     -11.871  -6.156  40.460  0.00  0.00    +0.010 C 
ATOM     15  C   UNL     1     -11.414  -3.691  40.250  0.00  0.00    +0.123 C 
ATOM     16  C   UNL     1      -7.971  -5.655  40.042  0.00  0.00    +0.049 C 
ATOM     17  C   UNL     1     -12.202  -4.767  40.988  0.00  0.00    +0.032 C 
ATOM     18  C   UNL     1     -10.024  -6.815  42.039  0.00  0.00    +0.012 C 
ATOM     19  C   UNL     1      -8.642  -8.045  39.433  0.00  0.00    +0.058 A 
ATOM     21  C   UNL     1      -9.216  -2.876  39.366  0.00  0.00    +0.016 C 
ATOM     22  C   UNL     1      -7.701  -7.048  39.582  0.00  0.00    +0.015 A 
ATOM     25  C   UNL     1      -6.847  -9.154  38.826  0.00  0.00    +0.165 A 
ATOM     27  C   UNL     1      -6.250 -11.463  38.033  0.00  0.00    +0.285 C 
ATOM     40  H   UNL     1      -5.006  -9.822  38.354  0.00  0.00    +0.157 HD
ENDROOT
BRANCH  27  30
ATOM      6  O   UNL     1      -4.878 -12.410  36.253  0.00  0.00    -0.458 OA
ATOM     30  C   UNL     1      -5.085 -12.273  37.589  0.00  0.00    +0.189 A 
ATOM     33  C   UNL     1      -4.120 -12.948  38.300  0.00  0.00    +0.054 A 
ATOM     35  C   UNL     1      -3.265 -13.538  37.338  0.00  0.00    +0.042 A 
ATOM     36  C   UNL     1      -3.768 -13.181  36.109  0.00  0.00    +0.196 A 
ENDBRANCH  27  30
BRANCH  15   2
ATOM      2  O   UNL     1     -11.805  -2.413  40.748  0.00  0.00    -0.391 OA
ATOM     37  H   UNL     1     -12.098  -1.878  39.991  0.00  0.00    +0.210 HD
ENDBRANCH  15   2
BRANCH  12  20
ATOM     20  C   UNL     1      -9.369  -3.458  41.760  0.00  0.00    +0.165 C 
BRANCH  20   3
ATOM      3  O   UNL     1      -8.881  -2.139  41.670  0.00  0.00    -0.394 OA
ATOM     38  H   UNL     1      -8.137  -2.148  41.045  0.00  0.00    +0.209 HD
ENDBRANCH  20   3
ENDBRANCH  12  20
BRANCH  13  23
ATOM     23  C   UNL     1     -10.772  -9.109  40.239  0.00  0.00    +0.106 C 
BRANCH  23  24
ATOM      4  O   UNL     1     -12.927  -9.713  39.348  0.00  0.00    -0.275 OA
ATOM      8  N   UNL     1     -10.970 -10.363  38.224  0.00  0.00    -0.285 N 
ATOM     24  C   UNL     1     -11.706  -9.754  39.235  0.00  0.00    +0.218 C 
ATOM     39  H   UNL     1      -9.955 -10.315  38.280  0.00  0.00    +0.155 HD
BRANCH   8  26
ATOM     26  C   UNL     1     -11.464 -11.071  37.102  0.00  0.00    +0.033 A 
ATOM     28  C   UNL     1     -12.585 -10.601  36.419  0.00  0.00    +0.023 A 
ATOM     29  C   UNL     1     -10.829 -12.239  36.679  0.00  0.00    +0.023 A 
ATOM     31  C   UNL     1     -13.072 -11.298  35.314  0.00  0.00    +0.002 A 
ATOM     32  C   UNL     1     -11.315 -12.936  35.574  0.00  0.00    +0.002 A 
ATOM     34  C   UNL     1     -12.437 -12.466  34.890  0.00  0.00    +0.000 A 
ENDBRANCH   8  26
ENDBRANCH  23  24
ENDBRANCH  13  23
TORSDOF 7
ENDMDL
MODEL 2
REMARK VINA RESULT:      -6.7     17.049     21.173
REMARK  Name = 40586258
REMARK  9 active torsions:
REMARK  status: ('A' for Active; 'I' for Inactive)
REMARK    1  A    between atoms: O_2  and  C_15
REMARK    2  A    between atoms: O_3  and  C_20
REMARK    3  A    between atoms: N_8  and  C_26
REMARK    4  A    between atoms: C_10  and  C_18
REMARK    5  A    between atoms: C_12  and  C_20
REMARK    6  A    between atoms: C_12  and  C_21
REMARK    7  A    between atoms: C_13  and  C_23
REMARK    8  A    between atoms: C_23  and  C_24
REMARK    9  A    between atoms: C_27  and  C_30
REMARK                            x       y       z     vdW  Elec       q    Type
REMARK                         _______ _______ _______ _____ _____    ______ ____
ROOT
ATOM      1  S   UNL     1      -4.358  13.259  33.702  0.00  0.00    -0.057 S 
ATOM      5  O   UNL     1       0.117  12.421  34.789  0.00  0.00    -0.266 OA
ATOM      7  N   UNL     1      -2.807  11.808  35.178  0.00  0.00    -0.229 NA
ATOM      9  N   UNL     1      -1.741  13.415  33.731  0.00  0.00    -0.258 N 
ATOM     10  C   UNL     1      -5.964  10.382  36.870  0.00  0.00    -0.019 C 
ATOM     11  C   UNL     1      -6.839  10.541  35.548  0.00  0.00    +0.011 C 
ATOM     12  C   UNL     1      -8.374  10.200  35.661  0.00  0.00    +0.021 C 
ATOM     13  C   UNL     1      -4.426  10.343  36.442  0.00  0.00    +0.054 C 
ATOM     14  C   UNL     1      -6.313   9.038  37.561  0.00  0.00    +0.010 C 
ATOM     15  C   UNL     1      -8.546   8.851  36.418  0.00  0.00    +0.123 C 
ATOM     16  C   UNL     1      -6.548  11.892  34.833  0.00  0.00    +0.049 C 
ATOM     17  C   UNL     1      -7.807   8.811  37.750  0.00  0.00    +0.032 C 
ATOM     18  C   UNL     1      -6.189  11.533  37.881  0.00  0.00    +0.012 C 
ATOM     19  C   UNL     1      -4.110  11.439  35.456  0.00  0.00    +0.058 A 
ATOM     21  C   UNL     1      -8.957  10.005  34.232  0.00  0.00    +0.016 C 
ATOM     22  C   UNL     1      -5.075  12.108  34.732  0.00  0.00    +0.015 A 
ATOM     25  C   UNL     1      -2.817  12.764  34.275  0.00  0.00    +0.165 A 
ATOM     27  C   UNL     1      -0.362  13.227  33.998  0.00  0.00    +0.285 C 
ATOM     40  H   UNL     1      -1.984  14.122  33.041  0.00  0.00    +0.157 HD
ENDROOT
BRANCH  27  30
ATOM      6  O   UNL     1       1.472  14.831  33.910  0.00  0.00    -0.458 OA
ATOM     30  C   UNL     1       0.578  14.075  33.220  0.00  0.00    +0.189 A 
ATOM     33  C   UNL     1       0.734  14.259  31.865  0.00  0.00    +0.054 A 
ATOM     35  C   UNL     1       1.791  15.187  31.714  0.00  0.00    +0.042 A 
ATOM     36  C   UNL     1       2.208  15.504  32.986  0.00  0.00    +0.196 A 
ENDBRANCH  27  30
BRANCH  15   2
ATOM      2  O   UNL     1      -9.928   8.578  36.652  0.00  0.00    -0.391 OA
ATOM     37  H   UNL     1     -10.311   8.261  35.817  0.00  0.00    +0.210 HD
ENDBRANCH  15   2
BRANCH  12  20
ATOM     20  C   UNL     1      -9.232  11.308  36.312  0.00  0.00    +0.165 C 
BRANCH  20   3
ATOM      3  O   UNL     1     -10.502  11.289  35.699  0.00  0.00    -0.394 OA
ATOM     38  H   UNL     1     -10.405  10.834  34.846  0.00  0.00    +0.209 HD
ENDBRANCH  20   3
ENDBRANCH  12  20
BRANCH  13  23
ATOM     23  C   UNL     1      -3.437  10.342  37.615  0.00  0.00    +0.106 C 
BRANCH  23  24
ATOM      4  O   UNL     1      -1.839   8.828  36.637  0.00  0.00    -0.275 OA
ATOM      8  N   UNL     1      -2.635   8.446  38.813  0.00  0.00    -0.285 N 
ATOM     24  C   UNL     1      -2.535   9.124  37.603  0.00  0.00    +0.218 C 
ATOM     39  H   UNL     1      -3.270   8.819  39.516  0.00  0.00    +0.155 HD
BRANCH   8  26
ATOM     26  C   UNL     1      -1.957   7.265  39.200  0.00  0.00    +0.033 A 
ATOM     28  C   UNL     1      -0.665   7.019  38.737  0.00  0.00    +0.023 A 
ATOM     29  C   UNL     1      -2.582   6.347  40.045  0.00  0.00    +0.023 A 
ATOM     31  C   UNL     1       0.003   5.854  39.118  0.00  0.00    +0.002 A 
ATOM     32  C   UNL     1      -1.915   5.184  40.426  0.00  0.00    +0.002 A 
ATOM     34  C   UNL     1      -0.622   4.937  39.963  0.00  0.00    +0.000 A 
ENDBRANCH   8  26
ENDBRANCH  23  24
ENDBRANCH  13  23
TORSDOF 7
ENDMDL
MODEL 3
REMARK VINA RESULT:      -6.7     43.465     46.350
REMARK  Name = 40586258
REMARK  9 active torsions:
REMARK  status: ('A' for Active; 'I' for Inactive)
REMARK    1  A    between atoms: O_2  and  C_15
REMARK    2  A    between atoms: O_3  and  C_20
REMARK    3  A    between atoms: N_8  and  C_26
REMARK    4  A    between atoms: C_10  and  C_18
REMARK    5  A    between atoms: C_12  and  C_20
REMARK    6  A    between atoms: C_12  and  C_21
REMARK    7  A    between atoms: C_13  and  C_23
REMARK    8  A    between atoms: C_23  and  C_24
REMARK    9  A    between atoms: C_27  and  C_30
REMARK                            x       y       z     vdW  Elec       q    Type
REMARK                         _______ _______ _______ _____ _____    ______ ____
ROOT
ATOM      1  S   UNL     1      14.960   8.195   6.460  0.00  0.00    -0.057 S 
ATOM      5  O   UNL     1      12.008   6.574   3.210  0.00  0.00    -0.266 OA
ATOM      7  N   UNL     1      14.767   7.512   3.973  0.00  0.00    -0.229 NA
ATOM      9  N   UNL     1      12.773   7.318   5.313  0.00  0.00    -0.258 N 
ATOM     10  C   UNL     1      18.373   8.785   3.477  0.00  0.00    -0.019 C 
ATOM     11  C   UNL     1      18.791   8.415   4.969  0.00  0.00    +0.011 C 
ATOM     12  C   UNL     1      20.238   8.838   5.432  0.00  0.00    +0.021 C 
ATOM     13  C   UNL     1      17.097   7.904   3.090  0.00  0.00    +0.054 C 
ATOM     14  C   UNL     1      19.530   8.420   2.511  0.00  0.00    +0.010 C 
ATOM     15  C   UNL     1      21.265   8.443   4.332  0.00  0.00    +0.123 C 
ATOM     16  C   UNL     1      17.673   8.791   5.983  0.00  0.00    +0.049 C 
ATOM     17  C   UNL     1      20.888   8.953   2.946  0.00  0.00    +0.032 C 
ATOM     18  C   UNL     1      18.035  10.285   3.302  0.00  0.00    +0.012 C 
ATOM     19  C   UNL     1      16.067   7.929   4.190  0.00  0.00    +0.058 A 
ATOM     21  C   UNL     1      20.611   8.047   6.718  0.00  0.00    +0.016 C 
ATOM     22  C   UNL     1      16.351   8.314   5.485  0.00  0.00    +0.015 A 
ATOM     25  C   UNL     1      14.092   7.618   5.097  0.00  0.00    +0.165 A 
ATOM     27  C   UNL     1      11.813   6.824   4.395  0.00  0.00    +0.285 C 
ATOM     40  H   UNL     1      12.459   7.472   6.268  0.00  0.00    +0.157 HD
ENDROOT
BRANCH  27  30
ATOM      6  O   UNL     1      10.357   6.116   6.219  0.00  0.00    -0.458 OA
ATOM     30  C   UNL     1      10.454   6.568   4.941  0.00  0.00    +0.189 A 
ATOM     33  C   UNL     1       9.204   6.705   4.382  0.00  0.00    +0.054 A 
ATOM     35  C   UNL     1       8.282   6.313   5.380  0.00  0.00    +0.042 A 
ATOM     36  C   UNL     1       9.032   5.964   6.479  0.00  0.00    +0.196 A 
ENDBRANCH  27  30
BRANCH  15   2
ATOM      2  O   UNL     1      22.567   8.928   4.661  0.00  0.00    -0.391 OA
ATOM     37  H   UNL     1      22.793   8.590   5.544  0.00  0.00    +0.210 HD
ENDBRANCH  15   2
BRANCH  12  20
ATOM     20  C   UNL     1      20.381  10.330   5.806  0.00  0.00    +0.165 C 
BRANCH  20   3
ATOM      3  O   UNL     1      21.292  10.423   6.878  0.00  0.00    -0.394 OA
ATOM     38  H   UNL     1      20.899  11.012   7.542  0.00  0.00    +0.209 HD
ENDBRANCH  20   3
ENDBRANCH  12  20
BRANCH  13  23
ATOM     23  C   UNL     1      16.474   8.247   1.730  0.00  0.00    +0.106 C 
BRANCH  23  24
ATOM      4  O   UNL     1      16.942   6.510   0.128  0.00  0.00    -0.275 OA
ATOM      8  N   UNL     1      14.865   6.566   1.223  0.00  0.00    -0.285 N 
ATOM     24  C   UNL     1      16.149   7.008   0.921  0.00  0.00    +0.218 C 
ATOM     39  H   UNL     1      14.326   7.099   1.902  0.00  0.00    +0.155 HD
BRANCH   8  26
ATOM     26  C   UNL     1      14.188   5.446   0.685  0.00  0.00    +0.033 A 
ATOM     28  C   UNL     1      13.712   5.481  -0.625  0.00  0.00    +0.023 A 
ATOM     29  C   UNL     1      13.999   4.305   1.465  0.00  0.00    +0.023 A 
ATOM     31  C   UNL     1      13.045   4.376  -1.155  0.00  0.00    +0.002 A 
ATOM     32  C   UNL     1      13.333   3.200   0.935  0.00  0.00    +0.002 A 
ATOM     34  C   UNL     1      12.855   3.235  -0.375  0.00  0.00    +0.000 A 
ENDBRANCH   8  26
ENDBRANCH  23  24
ENDBRANCH  13  23
TORSDOF 7
ENDMDL
MODEL 4
REMARK VINA RESULT:      -6.6     23.617     26.986
REMARK  Name = 40586258
REMARK  9 active torsions:
REMARK  status: ('A' for Active; 'I' for Inactive)
REMARK    1  A    between atoms: O_2  and  C_15
REMARK    2  A    between atoms: O_3  and  C_20
REMARK    3  A    between atoms: N_8  and  C_26
REMARK    4  A    between atoms: C_10  and  C_18
REMARK    5  A    between atoms: C_12  and  C_20
REMARK    6  A    between atoms: C_12  and  C_21
REMARK    7  A    between atoms: C_13  and  C_23
REMARK    8  A    between atoms: C_23  and  C_24
REMARK    9  A    between atoms: C_27  and  C_30
REMARK                            x       y       z     vdW  Elec       q    Type
REMARK                         _______ _______ _______ _____ _____    ______ ____
ROOT
ATOM      1  S   UNL     1      -5.168  -9.620  10.184  0.00  0.00    -0.057 S 
ATOM      5  O   UNL     1      -9.621  -8.183  10.056  0.00  0.00    -0.266 OA
ATOM      7  N   UNL     1      -7.285  -9.260  11.625  0.00  0.00    -0.229 NA
ATOM      9  N   UNL     1      -7.455  -8.707   9.285  0.00  0.00    -0.258 N 
ATOM     10  C   UNL     1      -5.411 -10.912  14.562  0.00  0.00    -0.019 C 
ATOM     11  C   UNL     1      -3.995 -10.386  14.056  0.00  0.00    +0.011 C 
ATOM     12  C   UNL     1      -2.724 -10.875  14.852  0.00  0.00    +0.021 C 
ATOM     13  C   UNL     1      -6.540  -9.978  13.926  0.00  0.00    +0.054 C 
ATOM     14  C   UNL     1      -5.485 -10.786  16.106  0.00  0.00    +0.010 C 
ATOM     15  C   UNL     1      -2.986 -10.725  16.378  0.00  0.00    +0.123 C 
ATOM     16  C   UNL     1      -3.858 -10.520  12.512  0.00  0.00    +0.049 C 
ATOM     17  C   UNL     1      -4.286 -11.379  16.832  0.00  0.00    +0.032 C 
ATOM     18  C   UNL     1      -5.680 -12.385  14.170  0.00  0.00    +0.012 C 
ATOM     19  C   UNL     1      -6.299  -9.762  12.454  0.00  0.00    +0.058 A 
ATOM     21  C   UNL     1      -1.520  -9.957  14.497  0.00  0.00    +0.016 C 
ATOM     22  C   UNL     1      -5.084  -9.994  11.843  0.00  0.00    +0.015 A 
ATOM     25  C   UNL     1      -6.805  -9.153  10.406  0.00  0.00    +0.165 A 
ATOM     27  C   UNL     1      -8.791  -8.254   9.155  0.00  0.00    +0.285 C 
ATOM     40  H   UNL     1      -6.884  -8.703   8.444  0.00  0.00    +0.157 HD
ENDROOT
BRANCH  27  30
ATOM      6  O   UNL     1      -8.330  -7.994   6.775  0.00  0.00    -0.458 OA
ATOM     30  C   UNL     1      -9.202  -7.804   7.799  0.00  0.00    +0.189 A 
ATOM     33  C   UNL     1     -10.354  -7.202   7.348  0.00  0.00    +0.054 A 
ATOM     35  C   UNL     1     -10.177  -7.009   5.958  0.00  0.00    +0.042 A 
ATOM     36  C   UNL     1      -8.931  -7.507   5.657  0.00  0.00    +0.196 A 
ENDBRANCH  27  30
BRANCH  15   2
ATOM      2  O   UNL     1      -1.906 -11.280  17.130  0.00  0.00    -0.391 OA
ATOM     37  H   UNL     1      -2.284 -11.710  17.915  0.00  0.00    +0.210 HD
ENDBRANCH  15   2
BRANCH  12  20
ATOM     20  C   UNL     1      -2.267 -12.310  14.511  0.00  0.00    +0.165 C 
BRANCH  20   3
ATOM      3  O   UNL     1      -0.879 -12.390  14.746  0.00  0.00    -0.394 OA
ATOM     38  H   UNL     1      -0.736 -13.093  15.401  0.00  0.00    +0.209 HD
ENDBRANCH  20   3
ENDBRANCH  12  20
BRANCH  13  23
ATOM     23  C   UNL     1      -7.978 -10.441  14.197  0.00  0.00    +0.106 C 
BRANCH  23  24
ATOM      4  O   UNL     1      -8.353  -9.190  16.221  0.00  0.00    -0.275 OA
ATOM      8  N   UNL     1      -9.861  -9.001  14.430  0.00  0.00    -0.285 N 
ATOM     24  C   UNL     1      -8.731  -9.476  15.089  0.00  0.00    +0.218 C 
ATOM     39  H   UNL     1     -10.042  -9.345  13.490  0.00  0.00    +0.155 HD
BRANCH   8  26
ATOM     26  C   UNL     1     -10.824  -8.086  14.918  0.00  0.00    +0.033 A 
ATOM     28  C   UNL     1     -10.415  -6.920  15.564  0.00  0.00    +0.023 A 
ATOM     29  C   UNL     1     -12.184  -8.350  14.751  0.00  0.00    +0.023 A 
ATOM     31  C   UNL     1     -11.365  -6.018  16.044  0.00  0.00    +0.002 A 
ATOM     32  C   UNL     1     -13.133  -7.448  15.230  0.00  0.00    +0.002 A 
ATOM     34  C   UNL     1     -12.725  -6.282  15.877  0.00  0.00    +0.000 A 
ENDBRANCH   8  26
ENDBRANCH  23  24
ENDBRANCH  13  23
TORSDOF 7
ENDMDL
MODEL 5
REMARK VINA RESULT:      -6.6     19.378     23.011
REMARK  Name = 40586258
REMARK  9 active torsions:
REMARK  status: ('A' for Active; 'I' for Inactive)
REMARK    1  A    between atoms: O_2  and  C_15
REMARK    2  A    between atoms: O_3  and  C_20
REMARK    3  A    between atoms: N_8  and  C_26
REMARK    4  A    between atoms: C_10  and  C_18
REMARK    5  A    between atoms: C_12  and  C_20
REMARK    6  A    between atoms: C_12  and  C_21
REMARK    7  A    between atoms: C_13  and  C_23
REMARK    8  A    between atoms: C_23  and  C_24
REMARK    9  A    between atoms: C_27  and  C_30
REMARK                            x       y       z     vdW  Elec       q    Type
REMARK                         _______ _______ _______ _____ _____    ______ ____
ROOT
ATOM      1  S   UNL     1     -15.308  -8.000  16.727  0.00  0.00    -0.057 S 
ATOM      5  O   UNL     1     -11.540  -6.216  14.598  0.00  0.00    -0.266 OA
ATOM      7  N   UNL     1     -12.732  -8.165  16.563  0.00  0.00    -0.229 NA
ATOM      9  N   UNL     1     -13.809  -6.520  15.167  0.00  0.00    -0.258 N 
ATOM     10  C   UNL     1     -12.836 -10.689  19.476  0.00  0.00    -0.019 C 
ATOM     11  C   UNL     1     -14.271 -11.235  19.053  0.00  0.00    +0.011 C 
ATOM     12  C   UNL     1     -14.946 -12.291  20.012  0.00  0.00    +0.021 C 
ATOM     13  C   UNL     1     -12.172 -10.006  18.193  0.00  0.00    +0.054 C 
ATOM     14  C   UNL     1     -11.941 -11.876  19.916  0.00  0.00    +0.010 C 
ATOM     15  C   UNL     1     -13.901 -13.380  20.392  0.00  0.00    +0.123 C 
ATOM     16  C   UNL     1     -15.220 -10.076  18.631  0.00  0.00    +0.049 C 
ATOM     17  C   UNL     1     -12.599 -12.801  20.931  0.00  0.00    +0.032 C 
ATOM     18  C   UNL     1     -12.901  -9.661  20.631  0.00  0.00    +0.012 C 
ATOM     19  C   UNL     1     -13.149  -9.095  17.496  0.00  0.00    +0.058 A 
ATOM     21  C   UNL     1     -16.100 -13.003  19.251  0.00  0.00    +0.016 C 
ATOM     22  C   UNL     1     -14.514  -9.155  17.694  0.00  0.00    +0.015 A 
ATOM     25  C   UNL     1     -13.783  -7.524  16.099  0.00  0.00    +0.165 A 
ATOM     27  C   UNL     1     -12.725  -5.924  14.475  0.00  0.00    +0.285 C 
ATOM     40  H   UNL     1     -14.740  -6.172  14.953  0.00  0.00    +0.157 HD
ENDROOT
BRANCH  27  30
ATOM      6  O   UNL     1     -14.374  -4.458  13.435  0.00  0.00    -0.458 OA
ATOM     30  C   UNL     1     -13.078  -4.864  13.494  0.00  0.00    +0.189 A 
ATOM     33  C   UNL     1     -12.312  -4.171  12.585  0.00  0.00    +0.054 A 
ATOM     35  C   UNL     1     -13.195  -3.284  11.924  0.00  0.00    +0.042 A 
ATOM     36  C   UNL     1     -14.436  -3.496  12.477  0.00  0.00    +0.196 A 
ENDBRANCH  27  30
BRANCH  15   2
ATOM      2  O   UNL     1     -14.441 -14.278  21.361  0.00  0.00    -0.391 OA
ATOM     37  H   UNL     1     -13.713 -14.556  21.942  0.00  0.00    +0.210 HD
ENDBRANCH  15   2
BRANCH  12  20
ATOM     20  C   UNL     1     -15.594 -11.687  21.277  0.00  0.00    +0.165 C 
BRANCH  20   3
ATOM      3  O   UNL     1     -16.726 -12.464  21.598  0.00  0.00    -0.394 OA
ATOM     38  H   UNL     1     -17.284 -11.932  22.188  0.00  0.00    +0.209 HD
ENDBRANCH  20   3
ENDBRANCH  12  20
BRANCH  13  23
ATOM     23  C   UNL     1     -10.840  -9.294  18.468  0.00  0.00    +0.106 C 
BRANCH  23  24
ATOM      4  O   UNL     1      -9.826 -10.845  16.928  0.00  0.00    -0.275 OA
ATOM      8  N   UNL     1      -8.473  -9.470  18.268  0.00  0.00    -0.285 N 
ATOM     24  C   UNL     1      -9.674  -9.977  17.782  0.00  0.00    +0.218 C 
ATOM     39  H   UNL     1      -8.517  -8.753  18.989  0.00  0.00    +0.155 HD
BRANCH   8  26
ATOM     26  C   UNL     1      -7.162  -9.842  17.887  0.00  0.00    +0.033 A 
ATOM     28  C   UNL     1      -6.348 -10.540  18.778  0.00  0.00    +0.023 A 
ATOM     29  C   UNL     1      -6.684  -9.509  16.619  0.00  0.00    +0.023 A 
ATOM     31  C   UNL     1      -5.055 -10.906  18.402  0.00  0.00    +0.002 A 
ATOM     32  C   UNL     1      -5.392  -9.875  16.243  0.00  0.00    +0.002 A 
ATOM     34  C   UNL     1      -4.577 -10.574  17.134  0.00  0.00    +0.000 A 
ENDBRANCH   8  26
ENDBRANCH  23  24
ENDBRANCH  13  23
TORSDOF 7
ENDMDL
MODEL 6
REMARK VINA RESULT:      -6.6     18.212     22.214
REMARK  Name = 40586258
REMARK  9 active torsions:
REMARK  status: ('A' for Active; 'I' for Inactive)
REMARK    1  A    between atoms: O_2  and  C_15
REMARK    2  A    between atoms: O_3  and  C_20
REMARK    3  A    between atoms: N_8  and  C_26
REMARK    4  A    between atoms: C_10  and  C_18
REMARK    5  A    between atoms: C_12  and  C_20
REMARK    6  A    between atoms: C_12  and  C_21
REMARK    7  A    between atoms: C_13  and  C_23
REMARK    8  A    between atoms: C_23  and  C_24
REMARK    9  A    between atoms: C_27  and  C_30
REMARK                            x       y       z     vdW  Elec       q    Type
REMARK                         _______ _______ _______ _____ _____    ______ ____
ROOT
ATOM      1  S   UNL     1      -9.988 -12.760  20.441  0.00  0.00    -0.057 S 
ATOM      5  O   UNL     1     -13.329  -9.547  19.788  0.00  0.00    -0.266 OA
ATOM      7  N   UNL     1     -10.604 -10.634  19.102  0.00  0.00    -0.229 NA
ATOM      9  N   UNL     1     -12.240 -11.440  20.679  0.00  0.00    -0.258 N 
ATOM     10  C   UNL     1      -7.032 -10.667  17.653  0.00  0.00    -0.019 C 
ATOM     11  C   UNL     1      -6.932 -12.255  17.728  0.00  0.00    +0.011 C 
ATOM     12  C   UNL     1      -5.547 -12.904  17.345  0.00  0.00    +0.021 C 
ATOM     13  C   UNL     1      -8.579 -10.270  17.643  0.00  0.00    +0.054 C 
ATOM     14  C   UNL     1      -6.392 -10.173  16.329  0.00  0.00    +0.010 C 
ATOM     15  C   UNL     1      -5.028 -12.264  16.025  0.00  0.00    +0.123 C 
ATOM     16  C   UNL     1      -7.534 -12.800  19.056  0.00  0.00    +0.049 C 
ATOM     17  C   UNL     1      -5.005 -10.741  16.064  0.00  0.00    +0.032 C 
ATOM     18  C   UNL     1      -6.326  -9.964  18.838  0.00  0.00    +0.012 C 
ATOM     19  C   UNL     1      -9.339 -11.023  18.705  0.00  0.00    +0.058 A 
ATOM     21  C   UNL     1      -5.756 -14.421  17.072  0.00  0.00    +0.016 C 
ATOM     22  C   UNL     1      -8.859 -12.165  19.313  0.00  0.00    +0.015 A 
ATOM     25  C   UNL     1     -11.040 -11.471  20.019  0.00  0.00    +0.165 A 
ATOM     27  C   UNL     1     -13.304 -10.513  20.545  0.00  0.00    +0.285 C 
ATOM     40  H   UNL     1     -12.370 -12.195  21.348  0.00  0.00    +0.157 HD
ENDROOT
BRANCH  27  30
ATOM      6  O   UNL     1     -14.450 -11.788  22.278  0.00  0.00    -0.458 OA
ATOM     30  C   UNL     1     -14.502 -10.762  21.388  0.00  0.00    +0.189 A 
ATOM     33  C   UNL     1     -15.721 -10.127  21.453  0.00  0.00    +0.054 A 
ATOM     35  C   UNL     1     -16.465 -10.806  22.446  0.00  0.00    +0.042 A 
ATOM     36  C   UNL     1     -15.649 -11.807  22.919  0.00  0.00    +0.196 A 
ENDBRANCH  27  30
BRANCH  15   2
ATOM      2  O   UNL     1      -3.716 -12.736  15.719  0.00  0.00    -0.391 OA
ATOM     37  H   UNL     1      -3.372 -13.185  16.510  0.00  0.00    +0.210 HD
ENDBRANCH  15   2
BRANCH  12  20
ATOM     20  C   UNL     1      -4.473 -12.826  18.452  0.00  0.00    +0.165 C 
BRANCH  20   3
ATOM      3  O   UNL     1      -3.897 -14.105  18.589  0.00  0.00    -0.394 OA
ATOM     38  H   UNL     1      -3.647 -14.212  19.521  0.00  0.00    +0.209 HD
ENDBRANCH  20   3
ENDBRANCH  12  20
BRANCH  13  23
ATOM     23  C   UNL     1      -8.851  -8.762  17.722  0.00  0.00    +0.106 C 
BRANCH  23  24
ATOM      4  O   UNL     1      -9.336  -8.207  15.429  0.00  0.00    -0.275 OA
ATOM      8  N   UNL     1     -10.994  -7.952  17.073  0.00  0.00    -0.285 N 
ATOM     24  C   UNL     1      -9.732  -8.279  16.588  0.00  0.00    +0.218 C 
ATOM     39  H   UNL     1     -11.163  -8.060  18.070  0.00  0.00    +0.155 HD
BRANCH   8  26
ATOM     26  C   UNL     1     -12.102  -7.465  16.338  0.00  0.00    +0.033 A 
ATOM     28  C   UNL     1     -13.304  -8.170  16.338  0.00  0.00    +0.023 A 
ATOM     29  C   UNL     1     -11.990  -6.277  15.614  0.00  0.00    +0.023 A 
ATOM     31  C   UNL     1     -14.396  -7.689  15.614  0.00  0.00    +0.002 A 
ATOM     32  C   UNL     1     -13.080  -5.797  14.890  0.00  0.00    +0.002 A 
ATOM     34  C   UNL     1     -14.284  -6.502  14.889  0.00  0.00    +0.000 A 
ENDBRANCH   8  26
ENDBRANCH  23  24
ENDBRANCH  13  23
TORSDOF 7
ENDMDL
MODEL 7
REMARK VINA RESULT:      -6.5     22.716     26.109
REMARK  Name = 40586258
REMARK  9 active torsions:
REMARK  status: ('A' for Active; 'I' for Inactive)
REMARK    1  A    between atoms: O_2  and  C_15
REMARK    2  A    between atoms: O_3  and  C_20
REMARK    3  A    between atoms: N_8  and  C_26
REMARK    4  A    between atoms: C_10  and  C_18
REMARK    5  A    between atoms: C_12  and  C_20
REMARK    6  A    between atoms: C_12  and  C_21
REMARK    7  A    between atoms: C_13  and  C_23
REMARK    8  A    between atoms: C_23  and  C_24
REMARK    9  A    between atoms: C_27  and  C_30
REMARK                            x       y       z     vdW  Elec       q    Type
REMARK                         _______ _______ _______ _____ _____    ______ ____
ROOT
ATOM      1  S   UNL     1      -7.954  -9.988  12.824  0.00  0.00    -0.057 S 
ATOM      5  O   UNL     1      -4.458 -10.514   9.756  0.00  0.00    -0.266 OA
ATOM      7  N   UNL     1      -5.461 -10.640  12.594  0.00  0.00    -0.229 NA
ATOM      9  N   UNL     1      -6.619 -10.032  10.568  0.00  0.00    -0.258 N 
ATOM     10  C   UNL     1      -5.285 -10.816  16.441  0.00  0.00    -0.019 C 
ATOM     11  C   UNL     1      -6.809 -11.261  16.568  0.00  0.00    +0.011 C 
ATOM     12  C   UNL     1      -7.398 -11.389  18.026  0.00  0.00    +0.021 C 
ATOM     13  C   UNL     1      -4.788 -11.173  14.965  0.00  0.00    +0.054 C 
ATOM     14  C   UNL     1      -4.428 -11.619  17.454  0.00  0.00    +0.010 C 
ATOM     15  C   UNL     1      -6.396 -12.176  18.917  0.00  0.00    +0.123 C 
ATOM     16  C   UNL     1      -7.719 -10.460  15.592  0.00  0.00    +0.049 C 
ATOM     17  C   UNL     1      -4.980 -11.613  18.872  0.00  0.00    +0.032 C 
ATOM     18  C   UNL     1      -5.077  -9.305  16.703  0.00  0.00    +0.012 C 
ATOM     19  C   UNL     1      -5.792 -10.728  13.933  0.00  0.00    +0.058 A 
ATOM     21  C   UNL     1      -8.715 -12.215  17.970  0.00  0.00    +0.016 C 
ATOM     22  C   UNL     1      -7.106 -10.430  14.233  0.00  0.00    +0.015 A 
ATOM     25  C   UNL     1      -6.520 -10.251  11.917  0.00  0.00    +0.165 A 
ATOM     27  C   UNL     1      -5.620 -10.166   9.572  0.00  0.00    +0.285 C 
ATOM     40  H   UNL     1      -7.541  -9.738  10.258  0.00  0.00    +0.157 HD
ENDROOT
BRANCH  27  30
ATOM      6  O   UNL     1      -7.177  -9.154   7.992  0.00  0.00    -0.458 OA
ATOM     30  C   UNL     1      -6.044  -9.880   8.176  0.00  0.00    +0.189 A 
ATOM     33  C   UNL     1      -5.486 -10.221   6.965  0.00  0.00    +0.054 A 
ATOM     35  C   UNL     1      -6.332  -9.669   5.974  0.00  0.00    +0.042 A 
ATOM     36  C   UNL     1      -7.346  -9.028   6.649  0.00  0.00    +0.196 A 
ENDBRANCH  27  30
BRANCH  15   2
ATOM      2  O   UNL     1      -6.838 -12.197  20.274  0.00  0.00    -0.391 OA
ATOM     37  H   UNL     1      -7.806 -12.105  20.270  0.00  0.00    +0.210 HD
ENDBRANCH  15   2
BRANCH  12  20
ATOM     20  C   UNL     1      -7.780 -10.044  18.683  0.00  0.00    +0.165 C 
BRANCH  20   3
ATOM      3  O   UNL     1      -8.709 -10.312  19.710  0.00  0.00    -0.394 OA
ATOM     38  H   UNL     1      -8.411 -11.115  20.168  0.00  0.00    +0.209 HD
ENDBRANCH  20   3
ENDBRANCH  12  20
BRANCH  13  23
ATOM     23  C   UNL     1      -3.378 -10.672  14.629  0.00  0.00    +0.106 C 
BRANCH  23  24
ATOM      4  O   UNL     1      -1.212 -11.594  15.142  0.00  0.00    -0.275 OA
ATOM      8  N   UNL     1      -2.882 -12.966  14.222  0.00  0.00    -0.285 N 
ATOM     24  C   UNL     1      -2.344 -11.778  14.705  0.00  0.00    +0.218 C 
ATOM     39  H   UNL     1      -3.842 -12.951  13.885  0.00  0.00    +0.155 HD
BRANCH   8  26
ATOM     26  C   UNL     1      -2.244 -14.226  14.124  0.00  0.00    +0.033 A 
ATOM     28  C   UNL     1      -2.753 -15.322  14.819  0.00  0.00    +0.023 A 
ATOM     29  C   UNL     1      -1.105 -14.371  13.331  0.00  0.00    +0.023 A 
ATOM     31  C   UNL     1      -2.124 -16.563  14.723  0.00  0.00    +0.002 A 
ATOM     32  C   UNL     1      -0.476 -15.612  13.234  0.00  0.00    +0.002 A 
ATOM     34  C   UNL     1      -0.985 -16.708  13.930  0.00  0.00    +0.000 A 
ENDBRANCH   8  26
ENDBRANCH  23  24
ENDBRANCH  13  23
TORSDOF 7
ENDMDL
MODEL 8
REMARK VINA RESULT:      -6.3     22.807     26.090
REMARK  Name = 40586258
REMARK  9 active torsions:
REMARK  status: ('A' for Active; 'I' for Inactive)
REMARK    1  A    between atoms: O_2  and  C_15
REMARK    2  A    between atoms: O_3  and  C_20
REMARK    3  A    between atoms: N_8  and  C_26
REMARK    4  A    between atoms: C_10  and  C_18
REMARK    5  A    between atoms: C_12  and  C_20
REMARK    6  A    between atoms: C_12  and  C_21
REMARK    7  A    between atoms: C_13  and  C_23
REMARK    8  A    between atoms: C_23  and  C_24
REMARK    9  A    between atoms: C_27  and  C_30
REMARK                            x       y       z     vdW  Elec       q    Type
REMARK                         _______ _______ _______ _____ _____    ______ ____
ROOT
ATOM      1  S   UNL     1      -6.911 -10.631  11.130  0.00  0.00    -0.057 S 
ATOM      5  O   UNL     1     -11.152  -9.136  12.430  0.00  0.00    -0.266 OA
ATOM      7  N   UNL     1      -8.352  -9.965  13.172  0.00  0.00    -0.229 NA
ATOM      9  N   UNL     1      -9.408  -9.843  11.009  0.00  0.00    -0.258 N 
ATOM     10  C   UNL     1      -5.442 -11.098  15.433  0.00  0.00    -0.019 C 
ATOM     11  C   UNL     1      -4.344 -10.707  14.348  0.00  0.00    +0.011 C 
ATOM     12  C   UNL     1      -2.846 -11.072  14.682  0.00  0.00    +0.021 C 
ATOM     13  C   UNL     1      -6.770 -10.269  15.113  0.00  0.00    +0.054 C 
ATOM     14  C   UNL     1      -4.941 -10.692  16.844  0.00  0.00    +0.010 C 
ATOM     15  C   UNL     1      -2.526 -10.642  16.142  0.00  0.00    +0.123 C 
ATOM     16  C   UNL     1      -4.787 -11.123  12.915  0.00  0.00    +0.049 C 
ATOM     17  C   UNL     1      -3.531 -11.171  17.159  0.00  0.00    +0.032 C 
ATOM     18  C   UNL     1      -5.769 -12.611  15.439  0.00  0.00    +0.012 C 
ATOM     19  C   UNL     1      -7.105 -10.330  13.645  0.00  0.00    +0.058 A 
ATOM     21  C   UNL     1      -1.906 -10.263  13.744  0.00  0.00    +0.016 C 
ATOM     22  C   UNL     1      -6.196 -10.698  12.674  0.00  0.00    +0.015 A 
ATOM     25  C   UNL     1      -8.367 -10.092  11.863  0.00  0.00    +0.165 A 
ATOM     27  C   UNL     1     -10.716  -9.390  11.312  0.00  0.00    +0.285 C 
ATOM     40  H   UNL     1      -9.193 -10.005  10.028  0.00  0.00    +0.157 HD
ENDROOT
BRANCH  27  30
ATOM      6  O   UNL     1     -12.019 -10.280   9.453  0.00  0.00    -0.458 OA
ATOM     30  C   UNL     1     -11.624  -9.185  10.153  0.00  0.00    +0.189 A 
ATOM     33  C   UNL     1     -12.176  -8.044   9.617  0.00  0.00    +0.054 A 
ATOM     35  C   UNL     1     -12.961  -8.466   8.517  0.00  0.00    +0.042 A 
ATOM     36  C   UNL     1     -12.834  -9.835   8.460  0.00  0.00    +0.196 A 
ENDBRANCH  27  30
BRANCH  15   2
ATOM      2  O   UNL     1      -1.220 -11.075  16.519  0.00  0.00    -0.391 OA
ATOM     37  H   UNL     1      -0.700 -11.189  15.706  0.00  0.00    +0.210 HD
ENDBRANCH  15   2
BRANCH  12  20
ATOM     20  C   UNL     1      -2.482 -12.556  14.455  0.00  0.00    +0.165 C 
BRANCH  20   3
ATOM      3  O   UNL     1      -1.182 -12.605  13.912  0.00  0.00    -0.394 OA
ATOM     38  H   UNL     1      -0.969 -13.540  13.755  0.00  0.00    +0.209 HD
ENDBRANCH  20   3
ENDBRANCH  12  20
BRANCH  13  23
ATOM     23  C   UNL     1      -7.979 -10.641  15.981  0.00  0.00    +0.106 C 
BRANCH  23  24
ATOM      4  O   UNL     1      -8.410  -8.727  17.378  0.00  0.00    -0.275 OA
ATOM      8  N   UNL     1      -9.874  -9.245  15.615  0.00  0.00    -0.285 N 
ATOM     24  C   UNL     1      -8.759  -9.422  16.429  0.00  0.00    +0.218 C 
ATOM     39  H   UNL     1     -10.029  -9.918  14.869  0.00  0.00    +0.155 HD
BRANCH   8  26
ATOM     26  C   UNL     1     -10.853  -8.226  15.702  0.00  0.00    +0.033 A 
ATOM     28  C   UNL     1     -10.489  -6.891  15.527  0.00  0.00    +0.023 A 
ATOM     29  C   UNL     1     -12.183  -8.558  15.961  0.00  0.00    +0.023 A 
ATOM     31  C   UNL     1     -11.454  -5.888  15.612  0.00  0.00    +0.002 A 
ATOM     32  C   UNL     1     -13.148  -7.555  16.046  0.00  0.00    +0.002 A 
ATOM     34  C   UNL     1     -12.784  -6.219  15.871  0.00  0.00    +0.000 A 
ENDBRANCH   8  26
ENDBRANCH  23  24
ENDBRANCH  13  23
TORSDOF 7
ENDMDL
MODEL 9
REMARK VINA RESULT:      -6.2     22.979     26.402
REMARK  Name = 40586258
REMARK  9 active torsions:
REMARK  status: ('A' for Active; 'I' for Inactive)
REMARK    1  A    between atoms: O_2  and  C_15
REMARK    2  A    between atoms: O_3  and  C_20
REMARK    3  A    between atoms: N_8  and  C_26
REMARK    4  A    between atoms: C_10  and  C_18
REMARK    5  A    between atoms: C_12  and  C_20
REMARK    6  A    between atoms: C_12  and  C_21
REMARK    7  A    between atoms: C_13  and  C_23
REMARK    8  A    between atoms: C_23  and  C_24
REMARK    9  A    between atoms: C_27  and  C_30
REMARK                            x       y       z     vdW  Elec       q    Type
REMARK                         _______ _______ _______ _____ _____    ______ ____
ROOT
ATOM      1  S   UNL     1      -5.444  -9.718  10.295  0.00  0.00    -0.057 S 
ATOM      5  O   UNL     1      -9.836  -8.122  10.018  0.00  0.00    -0.266 OA
ATOM      7  N   UNL     1      -7.587  -9.261  11.668  0.00  0.00    -0.229 NA
ATOM      9  N   UNL     1      -7.669  -8.736   9.317  0.00  0.00    -0.258 N 
ATOM     10  C   UNL     1      -5.860 -10.937  14.680  0.00  0.00    -0.019 C 
ATOM     11  C   UNL     1      -4.412 -10.470  14.209  0.00  0.00    +0.011 C 
ATOM     12  C   UNL     1      -3.183 -10.993  15.048  0.00  0.00    +0.021 C 
ATOM     13  C   UNL     1      -6.935  -9.971  13.999  0.00  0.00    +0.054 C 
ATOM     14  C   UNL     1      -5.974 -10.786  16.220  0.00  0.00    +0.010 C 
ATOM     15  C   UNL     1      -3.482 -10.812  16.564  0.00  0.00    +0.123 C 
ATOM     16  C   UNL     1      -4.235 -10.632  12.671  0.00  0.00    +0.049 C 
ATOM     17  C   UNL     1      -4.818 -11.411  16.988  0.00  0.00    +0.032 C 
ATOM     18  C   UNL     1      -6.172 -12.405  14.301  0.00  0.00    +0.012 C 
ATOM     19  C   UNL     1      -6.644  -9.786  12.532  0.00  0.00    +0.058 A 
ATOM     21  C   UNL     1      -1.936 -10.125  14.716  0.00  0.00    +0.016 C 
ATOM     22  C   UNL     1      -5.421 -10.071  11.960  0.00  0.00    +0.015 A 
ATOM     25  C   UNL     1      -7.068  -9.188  10.462  0.00  0.00    +0.165 A 
ATOM     27  C   UNL     1      -8.984  -8.236   9.142  0.00  0.00    +0.285 C 
ATOM     40  H   UNL     1      -7.074  -8.765   8.492  0.00  0.00    +0.157 HD
ENDROOT
BRANCH  27  30
ATOM      6  O   UNL     1      -8.415  -7.961   6.787  0.00  0.00    -0.458 OA
ATOM     30  C   UNL     1      -9.339  -7.792   7.769  0.00  0.00    +0.189 A 
ATOM     33  C   UNL     1     -10.480  -7.211   7.264  0.00  0.00    +0.054 A 
ATOM     35  C   UNL     1     -10.241  -7.011   5.884  0.00  0.00    +0.042 A 
ATOM     36  C   UNL     1      -8.972  -7.484   5.642  0.00  0.00    +0.196 A 
ENDBRANCH  27  30
BRANCH  15   2
ATOM      2  O   UNL     1      -2.446 -11.394  17.354  0.00  0.00    -0.391 OA
ATOM     37  H   UNL     1      -2.276 -12.286  17.007  0.00  0.00    +0.210 HD
ENDBRANCH  15   2
BRANCH  12  20
ATOM     20  C   UNL     1      -2.769 -12.449  14.740  0.00  0.00    +0.165 C 
BRANCH  20   3
ATOM      3  O   UNL     1      -1.360 -12.509  14.742  0.00  0.00    -0.394 OA
ATOM     38  H   UNL     1      -1.065 -12.429  13.820  0.00  0.00    +0.209 HD
ENDBRANCH  20   3
ENDBRANCH  12  20
BRANCH  13  23
ATOM     23  C   UNL     1      -8.396 -10.378  14.234  0.00  0.00    +0.106 C 
BRANCH  23  24
ATOM      4  O   UNL     1      -8.976  -8.511  15.641  0.00  0.00    -0.275 OA
ATOM      8  N   UNL     1      -9.490 -10.698  16.325  0.00  0.00    -0.285 N 
ATOM     24  C   UNL     1      -8.980  -9.726  15.471  0.00  0.00    +0.218 C 
ATOM     39  H   UNL     1      -9.407 -11.672  16.041  0.00  0.00    +0.155 HD
BRANCH   8  26
ATOM     26  C   UNL     1     -10.117 -10.503  17.579  0.00  0.00    +0.033 A 
ATOM     28  C   UNL     1      -9.465 -10.882  18.752  0.00  0.00    +0.023 A 
ATOM     29  C   UNL     1     -11.388  -9.931  17.642  0.00  0.00    +0.023 A 
ATOM     31  C   UNL     1     -10.083 -10.690  19.988  0.00  0.00    +0.002 A 
ATOM     32  C   UNL     1     -12.006  -9.739  18.877  0.00  0.00    +0.002 A 
ATOM     34  C   UNL     1     -11.354 -10.118  20.050  0.00  0.00    +0.000 A 
ENDBRANCH   8  26
ENDBRANCH  23  24
ENDBRANCH  13  23
TORSDOF 7
ENDMDL
MODEL 10
REMARK VINA RESULT:      -6.1     15.008     17.950
REMARK  Name = 40586258
REMARK  9 active torsions:
REMARK  status: ('A' for Active; 'I' for Inactive)
REMARK    1  A    between atoms: O_2  and  C_15
REMARK    2  A    between atoms: O_3  and  C_20
REMARK    3  A    between atoms: N_8  and  C_26
REMARK    4  A    between atoms: C_10  and  C_18
REMARK    5  A    between atoms: C_12  and  C_20
REMARK    6  A    between atoms: C_12  and  C_21
REMARK    7  A    between atoms: C_13  and  C_23
REMARK    8  A    between atoms: C_23  and  C_24
REMARK    9  A    between atoms: C_27  and  C_30
REMARK                            x       y       z     vdW  Elec       q    Type
REMARK                         _______ _______ _______ _____ _____    ______ ____
ROOT
ATOM      1  S   UNL     1      10.074  -4.298  35.999  0.00  0.00    -0.057 S 
ATOM      5  O   UNL     1      10.255  -7.549  32.636  0.00  0.00    -0.266 OA
ATOM      7  N   UNL     1       8.914  -6.422  35.087  0.00  0.00    -0.229 NA
ATOM      9  N   UNL     1      10.860  -5.648  33.894  0.00  0.00    -0.258 N 
ATOM     10  C   UNL     1       6.610  -6.333  38.177  0.00  0.00    -0.019 C 
ATOM     11  C   UNL     1       6.673  -4.744  38.276  0.00  0.00    +0.011 C 
ATOM     12  C   UNL     1       5.959  -4.075  39.512  0.00  0.00    +0.021 C 
ATOM     13  C   UNL     1       6.987  -6.750  36.682  0.00  0.00    +0.054 C 
ATOM     14  C   UNL     1       5.163  -6.809  38.467  0.00  0.00    +0.010 C 
ATOM     15  C   UNL     1       4.545  -4.699  39.688  0.00  0.00    +0.123 C 
ATOM     16  C   UNL     1       8.115  -4.216  38.023  0.00  0.00    +0.049 C 
ATOM     17  C   UNL     1       4.562  -6.222  39.736  0.00  0.00    +0.032 C 
ATOM     18  C   UNL     1       7.571  -7.035  39.167  0.00  0.00    +0.012 C 
ATOM     19  C   UNL     1       8.214  -6.014  36.207  0.00  0.00    +0.058 A 
ATOM     21  C   UNL     1       5.763  -2.559  39.225  0.00  0.00    +0.016 C 
ATOM     22  C   UNL     1       8.692  -4.870  36.812  0.00  0.00    +0.015 A 
ATOM     25  C   UNL     1       9.919  -5.598  34.888  0.00  0.00    +0.165 A 
ATOM     27  C   UNL     1      10.990  -6.589  32.841  0.00  0.00    +0.285 C 
ATOM     40  H   UNL     1      11.548  -4.900  33.929  0.00  0.00    +0.157 HD
ENDROOT
BRANCH  27  30
ATOM      6  O   UNL     1      13.129  -5.555  32.294  0.00  0.00    -0.458 OA
ATOM     30  C   UNL     1      12.111  -6.360  31.892  0.00  0.00    +0.189 A 
ATOM     33  C   UNL     1      12.337  -6.827  30.618  0.00  0.00    +0.054 A 
ATOM     35  C   UNL     1      13.574  -6.274  30.211  0.00  0.00    +0.042 A 
ATOM     36  C   UNL     1      14.017  -5.508  31.265  0.00  0.00    +0.196 A 
ENDBRANCH  27  30
BRANCH  15   2
ATOM      2  O   UNL     1       3.923  -4.208  40.875  0.00  0.00    -0.391 OA
ATOM     37  H   UNL     1       4.616  -4.096  41.547  0.00  0.00    +0.210 HD
ENDBRANCH  15   2
BRANCH  12  20
ATOM     20  C   UNL     1       6.759  -4.147  40.831  0.00  0.00    +0.165 C 
BRANCH  20   3
ATOM      3  O   UNL     1       6.489  -2.975  41.567  0.00  0.00    -0.394 OA
ATOM     38  H   UNL     1       7.132  -2.302  41.286  0.00  0.00    +0.209 HD
ENDBRANCH  20   3
ENDBRANCH  12  20
BRANCH  13  23
ATOM     23  C   UNL     1       7.117  -8.262  36.455  0.00  0.00    +0.106 C 
BRANCH  23  24
ATOM      4  O   UNL     1       5.221  -8.826  35.081  0.00  0.00    -0.275 OA
ATOM      8  N   UNL     1       7.391  -8.948  34.191  0.00  0.00    -0.285 N 
ATOM     24  C   UNL     1       6.438  -8.709  35.177  0.00  0.00    +0.218 C 
ATOM     39  H   UNL     1       8.370  -8.811  34.433  0.00  0.00    +0.155 HD
BRANCH   8  26
ATOM     26  C   UNL     1       7.168  -9.378  32.861  0.00  0.00    +0.033 A 
ATOM     28  C   UNL     1       6.950  -8.441  31.852  0.00  0.00    +0.023 A 
ATOM     29  C   UNL     1       7.167 -10.740  32.560  0.00  0.00    +0.023 A 
ATOM     31  C   UNL     1       6.730  -8.865  30.541  0.00  0.00    +0.002 A 
ATOM     32  C   UNL     1       6.948 -11.165  31.250  0.00  0.00    +0.002 A 
ATOM     34  C   UNL     1       6.729 -10.228  30.240  0.00  0.00    +0.000 A 
ENDBRANCH   8  26
ENDBRANCH  23  24
ENDBRANCH  13  23
TORSDOF 7
ENDMDL
