MODEL 1
REMARK VINA RESULT:      -5.7      0.000      0.000
REMARK  Name = 75537071
REMARK  3 active torsions:
REMARK  status: ('A' for Active; 'I' for Inactive)
REMARK    1  A    between atoms: N_3  and  C_12
REMARK    2  A    between atoms: N_4  and  C_13
REMARK    3  A    between atoms: C_12  and  C_14
REMARK                            x       y       z     vdW  Elec       q    Type
REMARK                         _______ _______ _______ _____ _____    ______ ____
ROOT
ATOM      1  O   UNL     1      15.965   9.746  20.518  0.00  0.00    -0.252 OA
ATOM      2  N   UNL     1      17.395   7.922  20.902  0.00  0.00    -0.278 N 
ATOM      3  N   UNL     1      15.622   7.618  19.558  0.00  0.00    -0.278 N 
ATOM      4  N   UNL     1      19.795   6.487  21.206  0.00  0.00    -0.302 NA
ATOM      6  C   UNL     1      17.411   6.508  20.594  0.00  0.00    +0.109 C 
ATOM      7  C   UNL     1      16.348   6.362  19.507  0.00  0.00    +0.133 C 
ATOM      8  C   UNL     1      18.816   6.068  20.183  0.00  0.00    +0.108 C 
ATOM      9  C   UNL     1      18.408   8.468  21.783  0.00  0.00    +0.125 C 
ATOM     10  C   UNL     1      19.790   7.955  21.371  0.00  0.00    +0.103 C 
ATOM     11  C   UNL     1      16.285   8.576  20.351  0.00  0.00    +0.306 C 
ATOM     13  C   UNL     1      21.134   6.019  20.851  0.00  0.00    +0.105 C 
ENDROOT
BRANCH   3  12
ATOM     12  C   UNL     1      14.445   7.857  18.752  0.00  0.00    +0.164 C 
BRANCH  12  14
ATOM      5  N   UNL     1      13.126   6.850  20.526  0.00  0.00    -0.258 NA
ATOM     14  C   UNL     1      13.185   7.800  19.565  0.00  0.00    +0.059 A 
ATOM     15  C   UNL     1      12.165   8.700  19.301  0.00  0.00    +0.025 A 
ATOM     16  C   UNL     1      11.011   8.621  20.074  0.00  0.00    +0.003 A 
ATOM     17  C   UNL     1      11.989   6.804  21.255  0.00  0.00    +0.111 A 
ATOM     18  C   UNL     1      10.913   7.658  21.071  0.00  0.00    +0.020 A 
ENDBRANCH  12  14
ENDBRANCH   3  12
TORSDOF 2
ENDMDL
MODEL 2
REMARK VINA RESULT:      -5.4      1.901      6.396
REMARK  Name = 75537071
REMARK  3 active torsions:
REMARK  status: ('A' for Active; 'I' for Inactive)
REMARK    1  A    between atoms: N_3  and  C_12
REMARK    2  A    between atoms: N_4  and  C_13
REMARK    3  A    between atoms: C_12  and  C_14
REMARK                            x       y       z     vdW  Elec       q    Type
REMARK                         _______ _______ _______ _____ _____    ______ ____
ROOT
ATOM      1  O   UNL     1      15.954  10.240  19.528  0.00  0.00    -0.252 OA
ATOM      2  N   UNL     1      14.385   9.033  18.263  0.00  0.00    -0.278 N 
ATOM      3  N   UNL     1      15.142   8.120  20.170  0.00  0.00    -0.278 N 
ATOM      4  N   UNL     1      12.093   8.528  16.714  0.00  0.00    -0.302 NA
ATOM      6  C   UNL     1      13.795   7.711  18.291  0.00  0.00    +0.109 C 
ATOM      7  C   UNL     1      14.130   7.196  19.690  0.00  0.00    +0.133 C 
ATOM      8  C   UNL     1      12.303   7.787  17.974  0.00  0.00    +0.108 C 
ATOM      9  C   UNL     1      14.120   9.903  17.136  0.00  0.00    +0.125 C 
ATOM     10  C   UNL     1      12.623   9.903  16.816  0.00  0.00    +0.103 C 
ATOM     11  C   UNL     1      15.252   9.254  19.341  0.00  0.00    +0.306 C 
ATOM     13  C   UNL     1      10.671   8.554  16.369  0.00  0.00    +0.105 C 
ENDROOT
BRANCH   3  12
ATOM     12  C   UNL     1      15.818   7.928  21.434  0.00  0.00    +0.164 C 
BRANCH  12  14
ATOM      5  N   UNL     1      18.174   8.310  21.888  0.00  0.00    -0.258 NA
ATOM     14  C   UNL     1      17.258   7.548  21.249  0.00  0.00    +0.059 A 
ATOM     15  C   UNL     1      17.576   6.461  20.450  0.00  0.00    +0.025 A 
ATOM     16  C   UNL     1      18.919   6.133  20.299  0.00  0.00    +0.003 A 
ATOM     17  C   UNL     1      19.469   7.962  21.717  0.00  0.00    +0.111 A 
ATOM     18  C   UNL     1      19.890   6.894  20.941  0.00  0.00    +0.020 A 
ENDBRANCH  12  14
ENDBRANCH   3  12
TORSDOF 2
ENDMDL
MODEL 3
REMARK VINA RESULT:      -5.2     31.449     32.498
REMARK  Name = 75537071
REMARK  3 active torsions:
REMARK  status: ('A' for Active; 'I' for Inactive)
REMARK    1  A    between atoms: N_3  and  C_12
REMARK    2  A    between atoms: N_4  and  C_13
REMARK    3  A    between atoms: C_12  and  C_14
REMARK                            x       y       z     vdW  Elec       q    Type
REMARK                         _______ _______ _______ _____ _____    ______ ____
ROOT
ATOM      1  O   UNL     1     -16.251   5.671  30.953  0.00  0.00    -0.252 OA
ATOM      2  N   UNL     1     -14.775   3.867  30.656  0.00  0.00    -0.278 N 
ATOM      3  N   UNL     1     -14.674   5.016  32.582  0.00  0.00    -0.278 N 
ATOM      4  N   UNL     1     -13.883   1.295  29.949  0.00  0.00    -0.302 NA
ATOM      6  C   UNL     1     -13.645   3.298  31.359  0.00  0.00    +0.109 C 
ATOM      7  C   UNL     1     -13.730   3.925  32.749  0.00  0.00    +0.133 C 
ATOM      8  C   UNL     1     -13.717   1.772  31.337  0.00  0.00    +0.108 C 
ATOM      9  C   UNL     1     -15.118   3.365  29.341  0.00  0.00    +0.125 C 
ATOM     10  C   UNL     1     -15.121   1.834  29.350  0.00  0.00    +0.103 C 
ATOM     11  C   UNL     1     -15.345   4.946  31.345  0.00  0.00    +0.306 C 
ATOM     13  C   UNL     1     -13.893  -0.167  29.910  0.00  0.00    +0.105 C 
ENDROOT
BRANCH   3  12
ATOM     12  C   UNL     1     -14.964   5.949  33.649  0.00  0.00    +0.164 C 
BRANCH  12  14
ATOM      5  N   UNL     1     -13.411   7.248  34.991  0.00  0.00    -0.258 NA
ATOM     14  C   UNL     1     -13.919   7.021  33.759  0.00  0.00    +0.059 A 
ATOM     15  C   UNL     1     -13.532   7.711  32.621  0.00  0.00    +0.025 A 
ATOM     16  C   UNL     1     -12.560   8.696  32.756  0.00  0.00    +0.003 A 
ATOM     17  C   UNL     1     -12.469   8.214  35.083  0.00  0.00    +0.111 A 
ATOM     18  C   UNL     1     -12.014   8.959  34.007  0.00  0.00    +0.020 A 
ENDBRANCH  12  14
ENDBRANCH   3  12
TORSDOF 2
ENDMDL
MODEL 4
REMARK VINA RESULT:      -5.1     15.410     17.387
REMARK  Name = 75537071
REMARK  3 active torsions:
REMARK  status: ('A' for Active; 'I' for Inactive)
REMARK    1  A    between atoms: N_3  and  C_12
REMARK    2  A    between atoms: N_4  and  C_13
REMARK    3  A    between atoms: C_12  and  C_14
REMARK                            x       y       z     vdW  Elec       q    Type
REMARK                         _______ _______ _______ _____ _____    ______ ____
ROOT
ATOM      1  O   UNL     1      12.407   7.943   4.630  0.00  0.00    -0.252 OA
ATOM      2  N   UNL     1      10.786   6.759   5.850  0.00  0.00    -0.278 N 
ATOM      3  N   UNL     1      10.955   6.365   3.646  0.00  0.00    -0.278 N 
ATOM      4  N   UNL     1       9.650   5.269   7.948  0.00  0.00    -0.302 NA
ATOM      6  C   UNL     1       9.693   5.856   5.558  0.00  0.00    +0.109 C 
ATOM      7  C   UNL     1       9.958   5.421   4.118  0.00  0.00    +0.133 C 
ATOM      8  C   UNL     1       9.655   4.718   6.577  0.00  0.00    +0.108 C 
ATOM      9  C   UNL     1      10.962   7.244   7.204  0.00  0.00    +0.125 C 
ATOM     10  C   UNL     1      10.858   6.082   8.194  0.00  0.00    +0.103 C 
ATOM     11  C   UNL     1      11.495   7.129   4.700  0.00  0.00    +0.306 C 
ATOM     13  C   UNL     1       9.553   4.189   8.930  0.00  0.00    +0.105 C 
ENDROOT
BRANCH   3  12
ATOM     12  C   UNL     1      11.414   6.374   2.274  0.00  0.00    +0.164 C 
BRANCH  12  14
ATOM      5  N   UNL     1      13.789   5.896   2.098  0.00  0.00    -0.258 NA
ATOM     14  C   UNL     1      12.533   5.400   2.049  0.00  0.00    +0.059 A 
ATOM     15  C   UNL     1      12.234   4.068   1.805  0.00  0.00    +0.025 A 
ATOM     16  C   UNL     1      13.293   3.190   1.602  0.00  0.00    +0.003 A 
ATOM     17  C   UNL     1      14.792   5.013   1.895  0.00  0.00    +0.111 A 
ATOM     18  C   UNL     1      14.599   3.664   1.645  0.00  0.00    +0.020 A 
ENDBRANCH  12  14
ENDBRANCH   3  12
TORSDOF 2
ENDMDL
MODEL 5
REMARK VINA RESULT:      -5.1     32.448     33.604
REMARK  Name = 75537071
REMARK  3 active torsions:
REMARK  status: ('A' for Active; 'I' for Inactive)
REMARK    1  A    between atoms: N_3  and  C_12
REMARK    2  A    between atoms: N_4  and  C_13
REMARK    3  A    between atoms: C_12  and  C_14
REMARK                            x       y       z     vdW  Elec       q    Type
REMARK                         _______ _______ _______ _____ _____    ______ ____
ROOT
ATOM      1  O   UNL     1     -15.991  -0.084  29.823  0.00  0.00    -0.252 OA
ATOM      2  N   UNL     1     -16.528   1.506  28.179  0.00  0.00    -0.278 N 
ATOM      3  N   UNL     1     -15.205   2.140  29.879  0.00  0.00    -0.278 N 
ATOM      4  N   UNL     1     -16.959   2.594  25.622  0.00  0.00    -0.302 NA
ATOM      6  C   UNL     1     -16.336   2.927  27.979  0.00  0.00    +0.109 C 
ATOM      7  C   UNL     1     -15.259   3.294  28.999  0.00  0.00    +0.133 C 
ATOM      8  C   UNL     1     -15.968   3.215  26.524  0.00  0.00    +0.108 C 
ATOM      9  C   UNL     1     -17.367   0.768  27.257  0.00  0.00    +0.125 C 
ATOM     10  C   UNL     1     -17.005   1.131  25.815  0.00  0.00    +0.103 C 
ATOM     11  C   UNL     1     -15.921   1.045  29.355  0.00  0.00    +0.306 C 
ATOM     13  C   UNL     1     -16.649   2.915  24.229  0.00  0.00    +0.105 C 
ENDROOT
BRANCH   3  12
ATOM     12  C   UNL     1     -14.376   2.118  31.065  0.00  0.00    +0.164 C 
BRANCH  12  14
ATOM      5  N   UNL     1     -15.898   3.255  32.578  0.00  0.00    -0.258 NA
ATOM     14  C   UNL     1     -14.683   3.262  31.986  0.00  0.00    +0.059 A 
ATOM     15  C   UNL     1     -13.730   4.249  32.183  0.00  0.00    +0.025 A 
ATOM     16  C   UNL     1     -14.044   5.295  33.044  0.00  0.00    +0.003 A 
ATOM     17  C   UNL     1     -16.168   4.288  33.407  0.00  0.00    +0.111 A 
ATOM     18  C   UNL     1     -15.284   5.323  33.671  0.00  0.00    +0.020 A 
ENDBRANCH  12  14
ENDBRANCH   3  12
TORSDOF 2
ENDMDL
MODEL 6
REMARK VINA RESULT:      -5.1     26.943     28.392
REMARK  Name = 75537071
REMARK  3 active torsions:
REMARK  status: ('A' for Active; 'I' for Inactive)
REMARK    1  A    between atoms: N_3  and  C_12
REMARK    2  A    between atoms: N_4  and  C_13
REMARK    3  A    between atoms: C_12  and  C_14
REMARK                            x       y       z     vdW  Elec       q    Type
REMARK                         _______ _______ _______ _____ _____    ______ ____
ROOT
ATOM      1  O   UNL     1      -3.666 -14.108  14.521  0.00  0.00    -0.252 OA
ATOM      2  N   UNL     1      -4.252 -12.412  16.038  0.00  0.00    -0.278 N 
ATOM      3  N   UNL     1      -2.803 -11.915  14.396  0.00  0.00    -0.278 N 
ATOM      4  N   UNL     1      -5.877 -10.796  17.668  0.00  0.00    -0.302 NA
ATOM      6  C   UNL     1      -3.833 -11.056  16.321  0.00  0.00    +0.109 C 
ATOM      7  C   UNL     1      -3.035 -10.656  15.081  0.00  0.00    +0.133 C 
ATOM      8  C   UNL     1      -5.046 -10.174  16.616  0.00  0.00    +0.108 C 
ATOM      9  C   UNL     1      -5.187 -13.067  16.930  0.00  0.00    +0.125 C 
ATOM     10  C   UNL     1      -6.354 -12.128  17.245  0.00  0.00    +0.103 C 
ATOM     11  C   UNL     1      -3.582 -12.959  14.935  0.00  0.00    +0.306 C 
ATOM     13  C   UNL     1      -7.009  -9.931  18.000  0.00  0.00    +0.105 C 
ENDROOT
BRANCH   3  12
ATOM     12  C   UNL     1      -1.979 -12.002  13.210  0.00  0.00    +0.164 C 
BRANCH  12  14
ATOM      5  N   UNL     1      -3.666 -11.310  11.606  0.00  0.00    -0.258 NA
ATOM     14  C   UNL     1      -2.445 -11.068  12.132  0.00  0.00    +0.059 A 
ATOM     15  C   UNL     1      -1.621 -10.027  11.733  0.00  0.00    +0.025 A 
ATOM     16  C   UNL     1      -2.083  -9.178  10.733  0.00  0.00    +0.003 A 
ATOM     17  C   UNL     1      -4.080 -10.465  10.636  0.00  0.00    +0.111 A 
ATOM     18  C   UNL     1      -3.334  -9.395  10.168  0.00  0.00    +0.020 A 
ENDBRANCH  12  14
ENDBRANCH   3  12
TORSDOF 2
ENDMDL
MODEL 7
REMARK VINA RESULT:      -5.1      2.968      6.475
REMARK  Name = 75537071
REMARK  3 active torsions:
REMARK  status: ('A' for Active; 'I' for Inactive)
REMARK    1  A    between atoms: N_3  and  C_12
REMARK    2  A    between atoms: N_4  and  C_13
REMARK    3  A    between atoms: C_12  and  C_14
REMARK                            x       y       z     vdW  Elec       q    Type
REMARK                         _______ _______ _______ _____ _____    ______ ____
ROOT
ATOM      1  O   UNL     1      13.484  11.426  18.886  0.00  0.00    -0.252 OA
ATOM      2  N   UNL     1      12.114  10.999  20.746  0.00  0.00    -0.278 N 
ATOM      3  N   UNL     1      13.013   9.249  19.664  0.00  0.00    -0.278 N 
ATOM      4  N   UNL     1      11.044  11.265  23.333  0.00  0.00    -0.302 NA
ATOM      6  C   UNL     1      11.535   9.839  21.389  0.00  0.00    +0.109 C 
ATOM      7  C   UNL     1      12.322   8.669  20.802  0.00  0.00    +0.133 C 
ATOM      8  C   UNL     1      11.620   9.973  22.909  0.00  0.00    +0.108 C 
ATOM      9  C   UNL     1      11.727  12.323  21.191  0.00  0.00    +0.125 C 
ATOM     10  C   UNL     1      11.770  12.395  22.719  0.00  0.00    +0.103 C 
ATOM     11  C   UNL     1      12.936  10.656  19.664  0.00  0.00    +0.306 C 
ATOM     13  C   UNL     1      11.066  11.378  24.792  0.00  0.00    +0.105 C 
ENDROOT
BRANCH   3  12
ATOM     12  C   UNL     1      13.798   8.446  18.752  0.00  0.00    +0.164 C 
BRANCH  12  14
ATOM      5  N   UNL     1      15.728   8.917  20.150  0.00  0.00    -0.258 NA
ATOM     14  C   UNL     1      15.101   8.016  19.361  0.00  0.00    +0.059 A 
ATOM     15  C   UNL     1      15.589   6.747  19.092  0.00  0.00    +0.025 A 
ATOM     16  C   UNL     1      16.798   6.378  19.673  0.00  0.00    +0.003 A 
ATOM     17  C   UNL     1      16.900   8.523  20.696  0.00  0.00    +0.111 A 
ATOM     18  C   UNL     1      17.473   7.278  20.491  0.00  0.00    +0.020 A 
ENDBRANCH  12  14
ENDBRANCH   3  12
TORSDOF 2
ENDMDL
MODEL 8
REMARK VINA RESULT:      -5.0     26.935     28.278
REMARK  Name = 75537071
REMARK  3 active torsions:
REMARK  status: ('A' for Active; 'I' for Inactive)
REMARK    1  A    between atoms: N_3  and  C_12
REMARK    2  A    between atoms: N_4  and  C_13
REMARK    3  A    between atoms: C_12  and  C_14
REMARK                            x       y       z     vdW  Elec       q    Type
REMARK                         _______ _______ _______ _____ _____    ______ ____
ROOT
ATOM      1  O   UNL     1     -13.684  10.344  18.053  0.00  0.00    -0.252 OA
ATOM      2  N   UNL     1     -12.073   9.728  16.458  0.00  0.00    -0.278 N 
ATOM      3  N   UNL     1     -11.493   9.684  18.627  0.00  0.00    -0.278 N 
ATOM      4  N   UNL     1     -10.966   8.490  14.188  0.00  0.00    -0.302 NA
ATOM      6  C   UNL     1     -10.661   9.410  16.450  0.00  0.00    +0.109 C 
ATOM      7  C   UNL     1     -10.337   9.159  17.922  0.00  0.00    +0.133 C 
ATOM      8  C   UNL     1     -10.386   8.229  15.521  0.00  0.00    +0.108 C 
ATOM      9  C   UNL     1     -12.777   9.860  15.199  0.00  0.00    +0.125 C 
ATOM     10  C   UNL     1     -12.427   8.688  14.279  0.00  0.00    +0.103 C 
ATOM     11  C   UNL     1     -12.558   9.970  17.750  0.00  0.00    +0.306 C 
ATOM     13  C   UNL     1     -10.657   7.391  13.274  0.00  0.00    +0.105 C 
ENDROOT
BRANCH   3  12
ATOM     12  C   UNL     1     -11.549   9.742  20.072  0.00  0.00    +0.164 C 
BRANCH  12  14
ATOM      5  N   UNL     1     -13.485   8.763  21.164  0.00  0.00    -0.258 NA
ATOM     14  C   UNL     1     -12.250   8.551  20.656  0.00  0.00    +0.059 A 
ATOM     15  C   UNL     1     -11.616   7.319  20.648  0.00  0.00    +0.025 A 
ATOM     16  C   UNL     1     -12.293   6.234  21.196  0.00  0.00    +0.003 A 
ATOM     17  C   UNL     1     -14.111   7.686  21.688  0.00  0.00    +0.111 A 
ATOM     18  C   UNL     1     -13.565   6.413  21.728  0.00  0.00    +0.020 A 
ENDBRANCH  12  14
ENDBRANCH   3  12
TORSDOF 2
ENDMDL
MODEL 9
REMARK VINA RESULT:      -4.9      3.260      8.469
REMARK  Name = 75537071
REMARK  3 active torsions:
REMARK  status: ('A' for Active; 'I' for Inactive)
REMARK    1  A    between atoms: N_3  and  C_12
REMARK    2  A    between atoms: N_4  and  C_13
REMARK    3  A    between atoms: C_12  and  C_14
REMARK                            x       y       z     vdW  Elec       q    Type
REMARK                         _______ _______ _______ _____ _____    ______ ____
ROOT
ATOM      1  O   UNL     1      20.769   6.899  23.679  0.00  0.00    -0.252 OA
ATOM      2  N   UNL     1      19.592   6.849  21.646  0.00  0.00    -0.278 N 
ATOM      3  N   UNL     1      21.217   5.334  21.971  0.00  0.00    -0.278 N 
ATOM      4  N   UNL     1      17.408   6.916  19.876  0.00  0.00    -0.302 NA
ATOM      6  C   UNL     1      19.688   6.143  20.386  0.00  0.00    +0.109 C 
ATOM      7  C   UNL     1      20.626   4.977  20.694  0.00  0.00    +0.133 C 
ATOM      8  C   UNL     1      18.298   5.738  19.896  0.00  0.00    +0.108 C 
ATOM      9  C   UNL     1      18.638   7.931  21.782  0.00  0.00    +0.125 C 
ATOM     10  C   UNL     1      17.279   7.502  21.225  0.00  0.00    +0.103 C 
ATOM     11  C   UNL     1      20.556   6.424  22.571  0.00  0.00    +0.306 C 
ATOM     13  C   UNL     1      16.092   6.551  19.351  0.00  0.00    +0.105 C 
ENDROOT
BRANCH   3  12
ATOM     12  C   UNL     1      22.260   4.539  22.582  0.00  0.00    +0.164 C 
BRANCH  12  14
ATOM      5  N   UNL     1      23.946   4.922  20.875  0.00  0.00    -0.258 NA
ATOM     14  C   UNL     1      23.230   4.007  21.567  0.00  0.00    +0.059 A 
ATOM     15  C   UNL     1      23.343   2.638  21.389  0.00  0.00    +0.025 A 
ATOM     16  C   UNL     1      24.251   2.177  20.442  0.00  0.00    +0.003 A 
ATOM     17  C   UNL     1      24.817   4.437  19.963  0.00  0.00    +0.111 A 
ATOM     18  C   UNL     1      25.006   3.088  19.711  0.00  0.00    +0.020 A 
ENDBRANCH  12  14
ENDBRANCH   3  12
TORSDOF 2
ENDMDL
MODEL 10
REMARK VINA RESULT:      -4.9     30.581     32.469
REMARK  Name = 75537071
REMARK  3 active torsions:
REMARK  status: ('A' for Active; 'I' for Inactive)
REMARK    1  A    between atoms: N_3  and  C_12
REMARK    2  A    between atoms: N_4  and  C_13
REMARK    3  A    between atoms: C_12  and  C_14
REMARK                            x       y       z     vdW  Elec       q    Type
REMARK                         _______ _______ _______ _____ _____    ______ ____
ROOT
ATOM      1  O   UNL     1     -14.210   5.171  35.141  0.00  0.00    -0.252 OA
ATOM      2  N   UNL     1     -14.728   3.974  33.186  0.00  0.00    -0.278 N 
ATOM      3  N   UNL     1     -14.789   6.218  33.107  0.00  0.00    -0.278 N 
ATOM      4  N   UNL     1     -14.521   2.025  31.170  0.00  0.00    -0.302 NA
ATOM      6  C   UNL     1     -15.229   4.278  31.862  0.00  0.00    +0.109 C 
ATOM      7  C   UNL     1     -15.048   5.790  31.744  0.00  0.00    +0.133 C 
ATOM      8  C   UNL     1     -14.485   3.457  30.810  0.00  0.00    +0.108 C 
ATOM      9  C   UNL     1     -14.582   2.591  33.589  0.00  0.00    +0.125 C 
ATOM     10  C   UNL     1     -13.886   1.795  32.483  0.00  0.00    +0.103 C 
ATOM     11  C   UNL     1     -14.539   5.126  33.962  0.00  0.00    +0.306 C 
ATOM     13  C   UNL     1     -13.862   1.224  30.138  0.00  0.00    +0.105 C 
ENDROOT
BRANCH   3  12
ATOM     12  C   UNL     1     -14.664   7.615  33.462  0.00  0.00    +0.164 C 
BRANCH  12  14
ATOM      5  N   UNL     1     -14.209   9.205  31.683  0.00  0.00    -0.258 NA
ATOM     14  C   UNL     1     -13.689   8.334  32.576  0.00  0.00    +0.059 A 
ATOM     15  C   UNL     1     -12.334   8.079  32.712  0.00  0.00    +0.025 A 
ATOM     16  C   UNL     1     -11.456   8.763  31.878  0.00  0.00    +0.003 A 
ATOM     17  C   UNL     1     -13.326   9.850  30.889  0.00  0.00    +0.111 A 
ATOM     18  C   UNL     1     -11.953   9.667  30.946  0.00  0.00    +0.020 A 
ENDBRANCH  12  14
ENDBRANCH   3  12
TORSDOF 2
ENDMDL
