MODEL 1
REMARK VINA RESULT:      -6.9      0.000      0.000
REMARK  Name = 11883286
REMARK  7 active torsions:
REMARK  status: ('A' for Active; 'I' for Inactive)
REMARK    1  A    between atoms: S_1  and  N_8
REMARK    2  A    between atoms: S_1  and  C_17
REMARK    3  A    between atoms: O_4  and  C_13
REMARK    4  A    between atoms: O_4  and  C_16
REMARK    5  A    between atoms: N_8  and  C_12
REMARK    6  A    between atoms: C_16  and  C_18
REMARK    7  A    between atoms: C_23  and  C_24
REMARK                            x       y       z     vdW  Elec       q    Type
REMARK                         _______ _______ _______ _____ _____    ______ ____
ROOT
ATOM      2  O   UNL     1      16.171   8.336  20.617  0.00  0.00    -0.370 OA
ATOM      3  O   UNL     1      16.564   5.581  19.331  0.00  0.00    -0.370 OA
ATOM     10  C   UNL     1      15.765   6.006  20.454  0.00  0.00    +0.170 C 
ATOM     11  C   UNL     1      16.560   7.073  21.180  0.00  0.00    +0.179 C 
ATOM     12  C   UNL     1      14.535   6.739  19.969  0.00  0.00    +0.133 C 
ATOM     13  C   UNL     1      17.984   6.717  20.826  0.00  0.00    +0.176 C 
ATOM     14  C   UNL     1      15.072   8.137  19.715  0.00  0.00    +0.183 C 
ATOM     15  C   UNL     1      17.845   6.225  19.402  0.00  0.00    +0.194 C 
ENDROOT
BRANCH  12   8
ATOM      8  N   UNL     1      13.501   6.747  20.974  0.00  0.00    -0.182 NA
ATOM     25  H   UNL     1      13.678   6.211  21.833  0.00  0.00    +0.148 HD
BRANCH   8   1
ATOM      1  S   UNL     1      11.893   7.069  20.532  0.00  0.00    +0.059 S 
ATOM      5  O   UNL     1      11.012   6.137  21.209  0.00  0.00    -0.153 OA
ATOM      6  O   UNL     1      11.827   7.221  19.091  0.00  0.00    -0.153 OA
BRANCH   1  17
ATOM     17  C   UNL     1      11.636   8.671  21.232  0.00  0.00    +0.105 A 
ATOM     19  C   UNL     1      12.036   9.790  20.523  0.00  0.00    +0.029 A 
ATOM     20  C   UNL     1      11.038   8.776  22.477  0.00  0.00    +0.029 A 
ATOM     21  C   UNL     1      11.833  11.055  21.075  0.00  0.00    +0.005 A 
ATOM     22  C   UNL     1      10.836  10.042  23.029  0.00  0.00    +0.005 A 
ATOM     23  C   UNL     1      11.233  11.180  22.329  0.00  0.00    -0.050 A 
ATOM     24  C   UNL     1      11.016  12.532  22.919  0.00  0.00    +0.044 C 
ENDBRANCH   1  17
ENDBRANCH   8   1
ENDBRANCH  12   8
BRANCH  13   4
ATOM      4  O   UNL     1      18.878   7.802  20.927  0.00  0.00    -0.362 OA
BRANCH   4  16
ATOM     16  C   UNL     1      20.158   7.395  21.405  0.00  0.00    +0.255 C 
BRANCH  16  18
ATOM      7  O   UNL     1      20.316   6.071  23.422  0.00  0.00    -0.274 OA
ATOM      9  N   UNL     1      19.741   8.292  23.592  0.00  0.00    -0.327 N 
ATOM     18  C   UNL     1      20.088   7.156  22.895  0.00  0.00    +0.236 C 
ATOM     26  H   UNL     1      19.656   8.279  24.603  0.00  0.00    +0.145 HD
ATOM     27  H   UNL     1      19.557   9.177  23.131  0.00  0.00    +0.145 HD
ENDBRANCH  16  18
ENDBRANCH   4  16
ENDBRANCH  13   4
TORSDOF 6
ENDMDL
MODEL 2
REMARK VINA RESULT:      -6.5     16.665     19.101
REMARK  Name = 11883286
REMARK  7 active torsions:
REMARK  status: ('A' for Active; 'I' for Inactive)
REMARK    1  A    between atoms: S_1  and  N_8
REMARK    2  A    between atoms: S_1  and  C_17
REMARK    3  A    between atoms: O_4  and  C_13
REMARK    4  A    between atoms: O_4  and  C_16
REMARK    5  A    between atoms: N_8  and  C_12
REMARK    6  A    between atoms: C_16  and  C_18
REMARK    7  A    between atoms: C_23  and  C_24
REMARK                            x       y       z     vdW  Elec       q    Type
REMARK                         _______ _______ _______ _____ _____    ______ ____
ROOT
ATOM      2  O   UNL     1      10.819   5.366   5.709  0.00  0.00    -0.370 OA
ATOM      3  O   UNL     1       8.255   6.899   5.019  0.00  0.00    -0.370 OA
ATOM     10  C   UNL     1       9.571   6.921   4.427  0.00  0.00    +0.170 C 
ATOM     11  C   UNL     1      10.565   6.772   5.561  0.00  0.00    +0.179 C 
ATOM     12  C   UNL     1       9.784   5.678   3.592  0.00  0.00    +0.133 C 
ATOM     13  C   UNL     1       9.804   7.331   6.738  0.00  0.00    +0.176 C 
ATOM     14  C   UNL     1      10.182   4.652   4.639  0.00  0.00    +0.183 C 
ATOM     15  C   UNL     1       8.389   6.879   6.447  0.00  0.00    +0.194 C 
ENDROOT
BRANCH  12   8
ATOM      8  N   UNL     1      10.835   5.874   2.624  0.00  0.00    -0.182 NA
ATOM     25  H   UNL     1      11.455   6.682   2.762  0.00  0.00    +0.148 HD
BRANCH   8   1
ATOM      1  S   UNL     1      10.676   5.228   1.061  0.00  0.00    +0.059 S 
ATOM      5  O   UNL     1      10.245   6.271   0.150  0.00  0.00    -0.153 OA
ATOM      6  O   UNL     1       9.939   3.981   1.144  0.00  0.00    -0.153 OA
BRANCH   1  17
ATOM     17  C   UNL     1      12.348   4.814   0.666  0.00  0.00    +0.105 A 
ATOM     19  C   UNL     1      12.905   5.297  -0.506  0.00  0.00    +0.029 A 
ATOM     20  C   UNL     1      13.070   4.015   1.536  0.00  0.00    +0.029 A 
ATOM     21  C   UNL     1      14.225   4.972  -0.817  0.00  0.00    +0.005 A 
ATOM     22  C   UNL     1      14.390   3.689   1.223  0.00  0.00    +0.005 A 
ATOM     23  C   UNL     1      14.967   4.167   0.047  0.00  0.00    -0.050 A 
ATOM     24  C   UNL     1      16.378   3.819  -0.287  0.00  0.00    +0.044 C 
ENDBRANCH   1  17
ENDBRANCH   8   1
ENDBRANCH  12   8
BRANCH  13   4
ATOM      4  O   UNL     1      10.266   6.859   7.983  0.00  0.00    -0.362 OA
BRANCH   4  16
ATOM     16  C   UNL     1       9.270   6.104   8.670  0.00  0.00    +0.255 C 
BRANCH  16  18
ATOM      7  O   UNL     1      10.086   4.705  10.465  0.00  0.00    -0.274 OA
ATOM      9  N   UNL     1      10.230   3.934   8.302  0.00  0.00    -0.327 N 
ATOM     18  C   UNL     1       9.897   4.864   9.262  0.00  0.00    +0.236 C 
ATOM     26  H   UNL     1      10.660   3.051   8.556  0.00  0.00    +0.145 HD
ATOM     27  H   UNL     1      10.063   4.091   7.313  0.00  0.00    +0.145 HD
ENDBRANCH  16  18
ENDBRANCH   4  16
ENDBRANCH  13   4
TORSDOF 6
ENDMDL
MODEL 3
REMARK VINA RESULT:      -6.4     26.651     28.942
REMARK  Name = 11883286
REMARK  7 active torsions:
REMARK  status: ('A' for Active; 'I' for Inactive)
REMARK    1  A    between atoms: S_1  and  N_8
REMARK    2  A    between atoms: S_1  and  C_17
REMARK    3  A    between atoms: O_4  and  C_13
REMARK    4  A    between atoms: O_4  and  C_16
REMARK    5  A    between atoms: N_8  and  C_12
REMARK    6  A    between atoms: C_16  and  C_18
REMARK    7  A    between atoms: C_23  and  C_24
REMARK                            x       y       z     vdW  Elec       q    Type
REMARK                         _______ _______ _______ _____ _____    ______ ____
ROOT
ATOM      2  O   UNL     1      -6.038 -10.274  16.859  0.00  0.00    -0.370 OA
ATOM      3  O   UNL     1      -4.569 -11.795  19.079  0.00  0.00    -0.370 OA
ATOM     10  C   UNL     1      -4.803 -12.118  17.693  0.00  0.00    +0.170 C 
ATOM     11  C   UNL     1      -6.192 -11.614  17.353  0.00  0.00    +0.179 C 
ATOM     12  C   UNL     1      -3.894 -11.298  16.808  0.00  0.00    +0.133 C 
ATOM     13  C   UNL     1      -6.886 -11.641  18.693  0.00  0.00    +0.176 C 
ATOM     14  C   UNL     1      -4.641  -9.979  16.713  0.00  0.00    +0.183 C 
ATOM     15  C   UNL     1      -5.772 -11.246  19.638  0.00  0.00    +0.194 C 
ENDROOT
BRANCH  12   8
ATOM      8  N   UNL     1      -3.738 -11.908  15.510  0.00  0.00    -0.182 NA
ATOM     25  H   UNL     1      -4.344 -12.709  15.293  0.00  0.00    +0.148 HD
BRANCH   8   1
ATOM      1  S   UNL     1      -2.271 -11.745  14.670  0.00  0.00    +0.059 S 
ATOM      5  O   UNL     1      -1.779 -13.059  14.301  0.00  0.00    -0.153 OA
ATOM      6  O   UNL     1      -1.417 -10.824  15.394  0.00  0.00    -0.153 OA
BRANCH   1  17
ATOM     17  C   UNL     1      -2.785 -10.921  13.194  0.00  0.00    +0.105 A 
ATOM     19  C   UNL     1      -1.833 -10.546  12.262  0.00  0.00    +0.029 A 
ATOM     20  C   UNL     1      -4.132 -10.665  12.997  0.00  0.00    +0.029 A 
ATOM     21  C   UNL     1      -2.239  -9.896  11.097  0.00  0.00    +0.005 A 
ATOM     22  C   UNL     1      -4.537 -10.014  11.831  0.00  0.00    +0.005 A 
ATOM     23  C   UNL     1      -3.591  -9.630  10.882  0.00  0.00    -0.050 A 
ATOM     24  C   UNL     1      -4.025  -8.934   9.636  0.00  0.00    +0.044 C 
ENDBRANCH   1  17
ENDBRANCH   8   1
ENDBRANCH  12   8
BRANCH  13   4
ATOM      4  O   UNL     1      -7.986 -10.764  18.775  0.00  0.00    -0.362 OA
BRANCH   4  16
ATOM     16  C   UNL     1      -9.226 -11.446  18.601  0.00  0.00    +0.255 C 
BRANCH  16  18
ATOM      7  O   UNL     1     -10.250 -12.597  20.464  0.00  0.00    -0.274 OA
ATOM      9  N   UNL     1     -10.212 -10.297  20.464  0.00  0.00    -0.327 N 
ATOM     18  C   UNL     1      -9.943 -11.537  19.927  0.00  0.00    +0.236 C 
ATOM     26  H   UNL     1     -10.691 -10.205  21.353  0.00  0.00    +0.145 HD
ATOM     27  H   UNL     1      -9.947  -9.434  19.998  0.00  0.00    +0.145 HD
ENDBRANCH  16  18
ENDBRANCH   4  16
ENDBRANCH  13   4
TORSDOF 6
ENDMDL
MODEL 4
REMARK VINA RESULT:      -6.3     30.044     31.393
REMARK  Name = 11883286
REMARK  7 active torsions:
REMARK  status: ('A' for Active; 'I' for Inactive)
REMARK    1  A    between atoms: S_1  and  N_8
REMARK    2  A    between atoms: S_1  and  C_17
REMARK    3  A    between atoms: O_4  and  C_13
REMARK    4  A    between atoms: O_4  and  C_16
REMARK    5  A    between atoms: N_8  and  C_12
REMARK    6  A    between atoms: C_16  and  C_18
REMARK    7  A    between atoms: C_23  and  C_24
REMARK                            x       y       z     vdW  Elec       q    Type
REMARK                         _______ _______ _______ _____ _____    ______ ____
ROOT
ATOM      2  O   UNL     1     -14.835   4.279  30.991  0.00  0.00    -0.370 OA
ATOM      3  O   UNL     1     -14.811   3.373  33.920  0.00  0.00    -0.370 OA
ATOM     10  C   UNL     1     -13.913   4.222  33.174  0.00  0.00    +0.170 C 
ATOM     11  C   UNL     1     -13.817   3.640  31.778  0.00  0.00    +0.179 C 
ATOM     12  C   UNL     1     -14.542   5.579  32.959  0.00  0.00    +0.133 C 
ATOM     13  C   UNL     1     -14.123   2.180  32.011  0.00  0.00    +0.176 C 
ATOM     14  C   UNL     1     -15.438   5.332  31.757  0.00  0.00    +0.183 C 
ATOM     15  C   UNL     1     -15.163   2.243  33.108  0.00  0.00    +0.194 C 
ENDROOT
BRANCH  12   8
ATOM      8  N   UNL     1     -13.542   6.578  32.671  0.00  0.00    -0.182 NA
ATOM     25  H   UNL     1     -12.579   6.249  32.530  0.00  0.00    +0.148 HD
BRANCH   8   1
ATOM      1  S   UNL     1     -13.792   8.188  33.151  0.00  0.00    +0.059 S 
ATOM      5  O   UNL     1     -15.142   8.334  33.662  0.00  0.00    -0.153 OA
ATOM      6  O   UNL     1     -13.308   9.068  32.104  0.00  0.00    -0.153 OA
BRANCH   1  17
ATOM     17  C   UNL     1     -12.674   8.340  34.511  0.00  0.00    +0.105 A 
ATOM     19  C   UNL     1     -11.653   9.273  34.445  0.00  0.00    +0.029 A 
ATOM     20  C   UNL     1     -12.840   7.524  35.617  0.00  0.00    +0.029 A 
ATOM     21  C   UNL     1     -10.771   9.394  35.518  0.00  0.00    +0.005 A 
ATOM     22  C   UNL     1     -11.956   7.645  36.690  0.00  0.00    +0.005 A 
ATOM     23  C   UNL     1     -10.923   8.580  36.641  0.00  0.00    -0.050 A 
ATOM     24  C   UNL     1      -9.978   8.709  37.788  0.00  0.00    +0.044 C 
ENDBRANCH   1  17
ENDBRANCH   8   1
ENDBRANCH  12   8
BRANCH  13   4
ATOM      4  O   UNL     1     -14.602   1.515  30.864  0.00  0.00    -0.362 OA
BRANCH   4  16
ATOM     16  C   UNL     1     -13.544   0.942  30.099  0.00  0.00    +0.255 C 
BRANCH  16  18
ATOM      7  O   UNL     1     -14.952  -1.019  29.966  0.00  0.00    -0.274 OA
ATOM      9  N   UNL     1     -12.714  -1.221  29.470  0.00  0.00    -0.327 N 
ATOM     18  C   UNL     1     -13.837  -0.518  29.848  0.00  0.00    +0.236 C 
ATOM     26  H   UNL     1     -12.762  -2.214  29.269  0.00  0.00    +0.145 HD
ATOM     27  H   UNL     1     -11.803  -0.782  29.380  0.00  0.00    +0.145 HD
ENDBRANCH  16  18
ENDBRANCH   4  16
ENDBRANCH  13   4
TORSDOF 6
ENDMDL
MODEL 5
REMARK VINA RESULT:      -6.2     16.842     19.245
REMARK  Name = 11883286
REMARK  7 active torsions:
REMARK  status: ('A' for Active; 'I' for Inactive)
REMARK    1  A    between atoms: S_1  and  N_8
REMARK    2  A    between atoms: S_1  and  C_17
REMARK    3  A    between atoms: O_4  and  C_13
REMARK    4  A    between atoms: O_4  and  C_16
REMARK    5  A    between atoms: N_8  and  C_12
REMARK    6  A    between atoms: C_16  and  C_18
REMARK    7  A    between atoms: C_23  and  C_24
REMARK                            x       y       z     vdW  Elec       q    Type
REMARK                         _______ _______ _______ _____ _____    ______ ____
ROOT
ATOM      2  O   UNL     1      10.547   5.126   5.381  0.00  0.00    -0.370 OA
ATOM      3  O   UNL     1       9.668   7.816   4.201  0.00  0.00    -0.370 OA
ATOM     10  C   UNL     1      10.975   7.290   4.512  0.00  0.00    +0.170 C 
ATOM     11  C   UNL     1      10.830   6.475   5.783  0.00  0.00    +0.179 C 
ATOM     12  C   UNL     1      11.385   6.271   3.474  0.00  0.00    +0.133 C 
ATOM     13  C   UNL     1       9.640   7.122   6.451  0.00  0.00    +0.176 C 
ATOM     14  C   UNL     1      10.674   5.017   3.955  0.00  0.00    +0.183 C 
ATOM     15  C   UNL     1       8.768   7.483   5.268  0.00  0.00    +0.194 C 
ENDROOT
BRANCH  12   8
ATOM      8  N   UNL     1      12.815   6.089   3.456  0.00  0.00    -0.182 NA
ATOM     25  H   UNL     1      13.288   5.999   4.364  0.00  0.00    +0.148 HD
BRANCH   8   1
ATOM      1  S   UNL     1      13.718   6.616   2.117  0.00  0.00    +0.059 S 
ATOM      5  O   UNL     1      15.133   6.487   2.410  0.00  0.00    -0.153 OA
ATOM      6  O   UNL     1      13.180   7.883   1.660  0.00  0.00    -0.153 OA
BRANCH   1  17
ATOM     17  C   UNL     1      13.300   5.407   0.898  0.00  0.00    +0.105 A 
ATOM     19  C   UNL     1      13.398   4.064   1.217  0.00  0.00    +0.029 A 
ATOM     20  C   UNL     1      12.882   5.827  -0.354  0.00  0.00    +0.029 A 
ATOM     21  C   UNL     1      13.068   3.109   0.255  0.00  0.00    +0.005 A 
ATOM     22  C   UNL     1      12.553   4.871  -1.316  0.00  0.00    +0.005 A 
ATOM     23  C   UNL     1      12.645   3.514  -1.012  0.00  0.00    -0.050 A 
ATOM     24  C   UNL     1      12.293   2.493  -2.040  0.00  0.00    +0.044 C 
ENDBRANCH   1  17
ENDBRANCH   8   1
ENDBRANCH  12   8
BRANCH  13   4
ATOM      4  O   UNL     1       8.976   6.275   7.360  0.00  0.00    -0.362 OA
BRANCH   4  16
ATOM     16  C   UNL     1       9.683   6.158   8.593  0.00  0.00    +0.255 C 
BRANCH  16  18
ATOM      7  O   UNL     1       8.889   4.445  10.102  0.00  0.00    -0.274 OA
ATOM      9  N   UNL     1      10.267   3.841   8.361  0.00  0.00    -0.327 N 
ATOM     18  C   UNL     1       9.555   4.747   9.116  0.00  0.00    +0.236 C 
ATOM     26  H   UNL     1      10.271   2.854   8.597  0.00  0.00    +0.145 HD
ATOM     27  H   UNL     1      10.810   4.118   7.549  0.00  0.00    +0.145 HD
ENDBRANCH  16  18
ENDBRANCH   4  16
ENDBRANCH  13   4
TORSDOF 6
ENDMDL
MODEL 6
REMARK VINA RESULT:      -6.0     27.338     28.950
REMARK  Name = 11883286
REMARK  7 active torsions:
REMARK  status: ('A' for Active; 'I' for Inactive)
REMARK    1  A    between atoms: S_1  and  N_8
REMARK    2  A    between atoms: S_1  and  C_17
REMARK    3  A    between atoms: O_4  and  C_13
REMARK    4  A    between atoms: O_4  and  C_16
REMARK    5  A    between atoms: N_8  and  C_12
REMARK    6  A    between atoms: C_16  and  C_18
REMARK    7  A    between atoms: C_23  and  C_24
REMARK                            x       y       z     vdW  Elec       q    Type
REMARK                         _______ _______ _______ _____ _____    ______ ____
ROOT
ATOM      2  O   UNL     1      -6.090 -11.267  16.042  0.00  0.00    -0.370 OA
ATOM      3  O   UNL     1      -3.251 -11.286  17.199  0.00  0.00    -0.370 OA
ATOM     10  C   UNL     1      -3.790 -11.841  15.981  0.00  0.00    +0.170 C 
ATOM     11  C   UNL     1      -5.181 -12.347  16.308  0.00  0.00    +0.179 C 
ATOM     12  C   UNL     1      -4.033 -10.741  14.973  0.00  0.00    +0.133 C 
ATOM     13  C   UNL     1      -5.082 -12.644  17.785  0.00  0.00    +0.176 C 
ATOM     14  C   UNL     1      -5.377 -10.190  15.415  0.00  0.00    +0.183 C 
ATOM     15  C   UNL     1      -4.169 -11.540  18.272  0.00  0.00    +0.194 C 
ENDROOT
BRANCH  12   8
ATOM      8  N   UNL     1      -4.096 -11.268  13.632  0.00  0.00    -0.182 NA
ATOM     25  H   UNL     1      -4.817 -11.976  13.440  0.00  0.00    +0.148 HD
BRANCH   8   1
ATOM      1  S   UNL     1      -2.722 -11.213  12.635  0.00  0.00    +0.059 S 
ATOM      5  O   UNL     1      -2.094 -12.520  12.609  0.00  0.00    -0.153 OA
ATOM      6  O   UNL     1      -1.946 -10.036  12.974  0.00  0.00    -0.153 OA
BRANCH   1  17
ATOM     17  C   UNL     1      -3.436 -10.919  11.046  0.00  0.00    +0.105 A 
ATOM     19  C   UNL     1      -3.537  -9.620  10.580  0.00  0.00    +0.029 A 
ATOM     20  C   UNL     1      -3.882 -11.995  10.296  0.00  0.00    +0.029 A 
ATOM     21  C   UNL     1      -4.100  -9.388   9.325  0.00  0.00    +0.005 A 
ATOM     22  C   UNL     1      -4.446 -11.762   9.041  0.00  0.00    +0.005 A 
ATOM     23  C   UNL     1      -4.554 -10.459   8.556  0.00  0.00    -0.050 A 
ATOM     24  C   UNL     1      -5.157 -10.211   7.214  0.00  0.00    +0.044 C 
ENDBRANCH   1  17
ENDBRANCH   8   1
ENDBRANCH  12   8
BRANCH  13   4
ATOM      4  O   UNL     1      -6.326 -12.634  18.447  0.00  0.00    -0.362 OA
BRANCH   4  16
ATOM     16  C   UNL     1      -6.372 -11.652  19.480  0.00  0.00    +0.255 C 
BRANCH  16  18
ATOM      7  O   UNL     1      -8.655 -11.024  19.970  0.00  0.00    -0.274 OA
ATOM      9  N   UNL     1      -7.481  -9.816  18.402  0.00  0.00    -0.327 N 
ATOM     18  C   UNL     1      -7.625 -10.822  19.332  0.00  0.00    +0.236 C 
ATOM     26  H   UNL     1      -8.244  -9.179  18.199  0.00  0.00    +0.145 HD
ATOM     27  H   UNL     1      -6.618  -9.672  17.888  0.00  0.00    +0.145 HD
ENDBRANCH  16  18
ENDBRANCH   4  16
ENDBRANCH  13   4
TORSDOF 6
ENDMDL
MODEL 7
REMARK VINA RESULT:      -6.0     27.026     28.933
REMARK  Name = 11883286
REMARK  7 active torsions:
REMARK  status: ('A' for Active; 'I' for Inactive)
REMARK    1  A    between atoms: S_1  and  N_8
REMARK    2  A    between atoms: S_1  and  C_17
REMARK    3  A    between atoms: O_4  and  C_13
REMARK    4  A    between atoms: O_4  and  C_16
REMARK    5  A    between atoms: N_8  and  C_12
REMARK    6  A    between atoms: C_16  and  C_18
REMARK    7  A    between atoms: C_23  and  C_24
REMARK                            x       y       z     vdW  Elec       q    Type
REMARK                         _______ _______ _______ _____ _____    ______ ____
ROOT
ATOM      2  O   UNL     1      -4.642 -10.814  16.369  0.00  0.00    -0.370 OA
ATOM      3  O   UNL     1      -6.797 -11.113  14.208  0.00  0.00    -0.370 OA
ATOM     10  C   UNL     1      -5.634 -10.263  14.287  0.00  0.00    +0.170 C 
ATOM     11  C   UNL     1      -5.493  -9.844  15.737  0.00  0.00    +0.179 C 
ATOM     12  C   UNL     1      -4.383 -11.068  14.020  0.00  0.00    +0.133 C 
ATOM     13  C   UNL     1      -6.914  -9.933  16.242  0.00  0.00    +0.176 C 
ATOM     14  C   UNL     1      -4.113 -11.703  15.373  0.00  0.00    +0.183 C 
ATOM     15  C   UNL     1      -7.446 -11.132  15.488  0.00  0.00    +0.194 C 
ENDROOT
BRANCH  12   8
ATOM      8  N   UNL     1      -3.292 -10.218  13.612  0.00  0.00    -0.182 NA
ATOM     25  H   UNL     1      -3.406  -9.207  13.757  0.00  0.00    +0.148 HD
BRANCH   8   1
ATOM      1  S   UNL     1      -2.201 -10.752  12.425  0.00  0.00    +0.059 S 
ATOM      5  O   UNL     1      -1.954 -12.170  12.601  0.00  0.00    -0.153 OA
ATOM      6  O   UNL     1      -1.091  -9.821  12.356  0.00  0.00    -0.153 OA
BRANCH   1  17
ATOM     17  C   UNL     1      -3.142 -10.542  10.944  0.00  0.00    +0.105 A 
ATOM     19  C   UNL     1      -3.283  -9.274  10.407  0.00  0.00    +0.029 A 
ATOM     20  C   UNL     1      -3.722 -11.651  10.348  0.00  0.00    +0.029 A 
ATOM     21  C   UNL     1      -4.026  -9.109   9.238  0.00  0.00    +0.005 A 
ATOM     22  C   UNL     1      -4.465 -11.483   9.179  0.00  0.00    +0.005 A 
ATOM     23  C   UNL     1      -4.617 -10.214   8.625  0.00  0.00    -0.050 A 
ATOM     24  C   UNL     1      -5.411 -10.036   7.375  0.00  0.00    +0.044 C 
ENDBRANCH   1  17
ENDBRANCH   8   1
ENDBRANCH  12   8
BRANCH  13   4
ATOM      4  O   UNL     1      -7.006 -10.101  17.638  0.00  0.00    -0.362 OA
BRANCH   4  16
ATOM     16  C   UNL     1      -7.566 -11.365  17.987  0.00  0.00    +0.255 C 
BRANCH  16  18
ATOM      7  O   UNL     1      -6.843 -11.779  20.256  0.00  0.00    -0.274 OA
ATOM      9  N   UNL     1      -5.799 -12.894  18.536  0.00  0.00    -0.327 N 
ATOM     18  C   UNL     1      -6.720 -12.013  19.057  0.00  0.00    +0.236 C 
ATOM     26  H   UNL     1      -5.162 -13.403  19.140  0.00  0.00    +0.145 HD
ATOM     27  H   UNL     1      -5.718 -13.069  17.539  0.00  0.00    +0.145 HD
ENDBRANCH  16  18
ENDBRANCH   4  16
ENDBRANCH  13   4
TORSDOF 6
ENDMDL
MODEL 8
REMARK VINA RESULT:      -6.0     26.562     29.189
REMARK  Name = 11883286
REMARK  7 active torsions:
REMARK  status: ('A' for Active; 'I' for Inactive)
REMARK    1  A    between atoms: S_1  and  N_8
REMARK    2  A    between atoms: S_1  and  C_17
REMARK    3  A    between atoms: O_4  and  C_13
REMARK    4  A    between atoms: O_4  and  C_16
REMARK    5  A    between atoms: N_8  and  C_12
REMARK    6  A    between atoms: C_16  and  C_18
REMARK    7  A    between atoms: C_23  and  C_24
REMARK                            x       y       z     vdW  Elec       q    Type
REMARK                         _______ _______ _______ _____ _____    ______ ____
ROOT
ATOM      2  O   UNL     1      -6.546 -10.191  17.790  0.00  0.00    -0.370 OA
ATOM      3  O   UNL     1      -7.762 -11.314  15.210  0.00  0.00    -0.370 OA
ATOM     10  C   UNL     1      -6.685 -10.380  15.431  0.00  0.00    +0.170 C 
ATOM     11  C   UNL     1      -7.075  -9.535  16.628  0.00  0.00    +0.179 C 
ATOM     12  C   UNL     1      -5.448 -11.114  15.896  0.00  0.00    +0.133 C 
ATOM     13  C   UNL     1      -8.584  -9.593  16.590  0.00  0.00    +0.176 C 
ATOM     14  C   UNL     1      -5.715 -11.287  17.381  0.00  0.00    +0.183 C 
ATOM     15  C   UNL     1      -8.836 -11.005  16.109  0.00  0.00    +0.194 C 
ENDROOT
BRANCH  12   8
ATOM      8  N   UNL     1      -4.258 -10.333  15.663  0.00  0.00    -0.182 NA
ATOM     25  H   UNL     1      -4.363  -9.311  15.657  0.00  0.00    +0.148 HD
BRANCH   8   1
ATOM      1  S   UNL     1      -2.941 -11.022  14.842  0.00  0.00    +0.059 S 
ATOM      5  O   UNL     1      -3.070 -12.467  14.850  0.00  0.00    -0.153 OA
ATOM      6  O   UNL     1      -1.719 -10.397  15.311  0.00  0.00    -0.153 OA
BRANCH   1  17
ATOM     17  C   UNL     1      -3.207 -10.460  13.188  0.00  0.00    +0.105 A 
ATOM     19  C   UNL     1      -4.503 -10.263  12.742  0.00  0.00    +0.029 A 
ATOM     20  C   UNL     1      -2.115 -10.226  12.370  0.00  0.00    +0.029 A 
ATOM     21  C   UNL     1      -4.713  -9.819  11.437  0.00  0.00    +0.005 A 
ATOM     22  C   UNL     1      -2.327  -9.782  11.064  0.00  0.00    +0.005 A 
ATOM     23  C   UNL     1      -3.625  -9.579  10.598  0.00  0.00    -0.050 A 
ATOM     24  C   UNL     1      -3.851  -9.104   9.202  0.00  0.00    +0.044 C 
ENDBRANCH   1  17
ENDBRANCH   8   1
ENDBRANCH  12   8
BRANCH  13   4
ATOM      4  O   UNL     1      -9.189  -9.341  17.837  0.00  0.00    -0.362 OA
BRANCH   4  16
ATOM     16  C   UNL     1      -9.972 -10.446  18.282  0.00  0.00    +0.255 C 
BRANCH  16  18
ATOM      7  O   UNL     1      -8.747 -11.518  20.069  0.00  0.00    -0.274 OA
ATOM      9  N   UNL     1     -10.456 -10.073  20.604  0.00  0.00    -0.327 N 
ATOM     18  C   UNL     1      -9.642 -10.751  19.724  0.00  0.00    +0.236 C 
ATOM     26  H   UNL     1     -10.348 -10.182  21.607  0.00  0.00    +0.145 HD
ATOM     27  H   UNL     1     -11.190  -9.445  20.291  0.00  0.00    +0.145 HD
ENDBRANCH  16  18
ENDBRANCH   4  16
ENDBRANCH  13   4
TORSDOF 6
ENDMDL
MODEL 9
REMARK VINA RESULT:      -5.8     26.764     29.200
REMARK  Name = 11883286
REMARK  7 active torsions:
REMARK  status: ('A' for Active; 'I' for Inactive)
REMARK    1  A    between atoms: S_1  and  N_8
REMARK    2  A    between atoms: S_1  and  C_17
REMARK    3  A    between atoms: O_4  and  C_13
REMARK    4  A    between atoms: O_4  and  C_16
REMARK    5  A    between atoms: N_8  and  C_12
REMARK    6  A    between atoms: C_16  and  C_18
REMARK    7  A    between atoms: C_23  and  C_24
REMARK                            x       y       z     vdW  Elec       q    Type
REMARK                         _______ _______ _______ _____ _____    ______ ____
ROOT
ATOM      2  O   UNL     1      -6.505 -11.625  16.945  0.00  0.00    -0.370 OA
ATOM      3  O   UNL     1      -5.429 -11.632  19.815  0.00  0.00    -0.370 OA
ATOM     10  C   UNL     1      -6.237 -10.674  19.100  0.00  0.00    +0.170 C 
ATOM     11  C   UNL     1      -5.733 -10.655  17.671  0.00  0.00    +0.179 C 
ATOM     12  C   UNL     1      -7.655 -11.183  18.977  0.00  0.00    +0.133 C 
ATOM     13  C   UNL     1      -4.295 -11.086  17.826  0.00  0.00    +0.176 C 
ATOM     14  C   UNL     1      -7.560 -12.118  17.784  0.00  0.00    +0.183 C 
ATOM     15  C   UNL     1      -4.384 -12.097  18.948  0.00  0.00    +0.194 C 
ENDROOT
BRANCH  12   8
ATOM      8  N   UNL     1      -8.577 -10.103  18.725  0.00  0.00    -0.182 NA
ATOM     25  H   UNL     1      -8.210  -9.146  18.801  0.00  0.00    +0.148 HD
BRANCH   8   1
ATOM      1  S   UNL     1     -10.246 -10.353  18.919  0.00  0.00    +0.059 S 
ATOM      5  O   UNL     1     -10.627 -10.029  20.280  0.00  0.00    -0.153 OA
ATOM      6  O   UNL     1     -10.595 -11.641  18.350  0.00  0.00    -0.153 OA
BRANCH   1  17
ATOM     17  C   UNL     1     -10.926  -9.117  17.854  0.00  0.00    +0.105 A 
ATOM     19  C   UNL     1     -12.247  -9.223  17.453  0.00  0.00    +0.029 A 
ATOM     20  C   UNL     1     -10.124  -8.066  17.440  0.00  0.00    +0.029 A 
ATOM     21  C   UNL     1     -12.783  -8.247  16.613  0.00  0.00    +0.005 A 
ATOM     22  C   UNL     1     -10.662  -7.092  16.598  0.00  0.00    +0.005 A 
ATOM     23  C   UNL     1     -11.990  -7.182  16.185  0.00  0.00    -0.050 A 
ATOM     24  C   UNL     1     -12.565  -6.140  15.287  0.00  0.00    +0.044 C 
ENDBRANCH   1  17
ENDBRANCH   8   1
ENDBRANCH  12   8
BRANCH  13   4
ATOM      4  O   UNL     1      -3.744 -11.642  16.654  0.00  0.00    -0.362 OA
BRANCH   4  16
ATOM     16  C   UNL     1      -3.440 -10.644  15.682  0.00  0.00    +0.255 C 
BRANCH  16  18
ATOM      7  O   UNL     1      -1.457 -11.824  14.961  0.00  0.00    -0.274 OA
ATOM      9  N   UNL     1      -1.340  -9.550  15.287  0.00  0.00    -0.327 N 
ATOM     18  C   UNL     1      -1.991 -10.764  15.273  0.00  0.00    +0.236 C 
ATOM     26  H   UNL     1      -0.360  -9.479  15.034  0.00  0.00    +0.145 HD
ATOM     27  H   UNL     1      -1.806  -8.687  15.549  0.00  0.00    +0.145 HD
ENDBRANCH  16  18
ENDBRANCH   4  16
ENDBRANCH  13   4
TORSDOF 6
ENDMDL
MODEL 10
REMARK VINA RESULT:      -5.8     14.161     15.512
REMARK  Name = 11883286
REMARK  7 active torsions:
REMARK  status: ('A' for Active; 'I' for Inactive)
REMARK    1  A    between atoms: S_1  and  N_8
REMARK    2  A    between atoms: S_1  and  C_17
REMARK    3  A    between atoms: O_4  and  C_13
REMARK    4  A    between atoms: O_4  and  C_16
REMARK    5  A    between atoms: N_8  and  C_12
REMARK    6  A    between atoms: C_16  and  C_18
REMARK    7  A    between atoms: C_23  and  C_24
REMARK                            x       y       z     vdW  Elec       q    Type
REMARK                         _______ _______ _______ _____ _____    ______ ____
ROOT
ATOM      2  O   UNL     1      14.318   7.720   6.733  0.00  0.00    -0.370 OA
ATOM      3  O   UNL     1      14.256   8.917   3.911  0.00  0.00    -0.370 OA
ATOM     10  C   UNL     1      13.985   7.583   4.390  0.00  0.00    +0.170 C 
ATOM     11  C   UNL     1      14.963   7.313   5.516  0.00  0.00    +0.179 C 
ATOM     12  C   UNL     1      12.634   7.540   5.066  0.00  0.00    +0.133 C 
ATOM     13  C   UNL     1      16.121   8.217   5.166  0.00  0.00    +0.176 C 
ATOM     14  C   UNL     1      12.952   8.063   6.456  0.00  0.00    +0.183 C 
ATOM     15  C   UNL     1      15.419   9.423   4.583  0.00  0.00    +0.194 C 
ENDROOT
BRANCH  12   8
ATOM      8  N   UNL     1      12.118   6.194   5.117  0.00  0.00    -0.182 NA
ATOM     25  H   UNL     1      12.773   5.433   4.897  0.00  0.00    +0.148 HD
BRANCH   8   1
ATOM      1  S   UNL     1      10.454   5.917   4.925  0.00  0.00    +0.059 S 
ATOM      5  O   UNL     1      10.253   4.728   4.119  0.00  0.00    -0.153 OA
ATOM      6  O   UNL     1       9.812   7.165   4.556  0.00  0.00    -0.153 OA
BRANCH   1  17
ATOM     17  C   UNL     1       9.952   5.548   6.578  0.00  0.00    +0.105 A 
ATOM     19  C   UNL     1       9.501   6.573   7.392  0.00  0.00    +0.029 A 
ATOM     20  C   UNL     1      10.019   4.240   7.029  0.00  0.00    +0.029 A 
ATOM     21  C   UNL     1       9.104   6.282   8.697  0.00  0.00    +0.005 A 
ATOM     22  C   UNL     1       9.623   3.950   8.336  0.00  0.00    +0.005 A 
ATOM     23  C   UNL     1       9.166   4.970   9.168  0.00  0.00    -0.050 A 
ATOM     24  C   UNL     1       8.742   4.660  10.564  0.00  0.00    +0.044 C 
ENDBRANCH   1  17
ENDBRANCH   8   1
ENDBRANCH  12   8
BRANCH  13   4
ATOM      4  O   UNL     1      16.926   8.554   6.272  0.00  0.00    -0.362 OA
BRANCH   4  16
ATOM     16  C   UNL     1      18.037   9.365   5.895  0.00  0.00    +0.255 C 
BRANCH  16  18
ATOM      7  O   UNL     1      19.753   7.820   5.181  0.00  0.00    -0.274 OA
ATOM      9  N   UNL     1      19.928   8.792   7.259  0.00  0.00    -0.327 N 
ATOM     18  C   UNL     1      19.314   8.573   6.045  0.00  0.00    +0.236 C 
ATOM     26  H   UNL     1      20.796   8.325   7.497  0.00  0.00    +0.145 HD
ATOM     27  H   UNL     1      19.542   9.421   7.957  0.00  0.00    +0.145 HD
ENDBRANCH  16  18
ENDBRANCH   4  16
ENDBRANCH  13   4
TORSDOF 6
ENDMDL
