MODEL 1
REMARK VINA RESULT:      -6.6      0.000      0.000
REMARK  Name = 11882989
REMARK  15 active torsions:
REMARK  status: ('A' for Active; 'I' for Inactive)
REMARK    1  A    between atoms: O_2  and  C_14
REMARK    2  A    between atoms: O_3  and  C_19
REMARK    3  A    between atoms: N_7  and  C_25
REMARK    4  A    between atoms: N_7  and  C_26
REMARK    5  A    between atoms: C_9  and  C_17
REMARK    6  A    between atoms: C_11  and  C_19
REMARK    7  A    between atoms: C_11  and  C_20
REMARK    8  A    between atoms: C_12  and  C_22
REMARK    9  A    between atoms: C_22  and  C_23
REMARK   10  A    between atoms: C_25  and  C_28
REMARK   11  A    between atoms: C_27  and  C_29
REMARK   12  A    between atoms: C_33  and  C_36
REMARK   13  A    between atoms: C_36  and  C_37
REMARK   14  A    between atoms: C_36  and  C_38
REMARK   15  A    between atoms: C_36  and  C_39
REMARK                            x       y       z     vdW  Elec       q    Type
REMARK                         _______ _______ _______ _____ _____    ______ ____
ROOT
ATOM      1  S   UNL     1      -9.700  -9.419  13.811  0.00  0.00    -0.057 S 
ATOM      5  O   UNL     1      -9.389 -10.583  18.308  0.00  0.00    -0.270 OA
ATOM      6  N   UNL     1      -8.104 -10.269  15.663  0.00  0.00    -0.229 NA
ATOM      8  N   UNL     1     -10.390  -9.850  16.304  0.00  0.00    -0.261 N 
ATOM      9  C   UNL     1      -5.403 -10.718  12.948  0.00  0.00    -0.019 C 
ATOM     10  C   UNL     1      -5.966  -9.510  12.077  0.00  0.00    +0.011 C 
ATOM     11  C   UNL     1      -5.286  -9.260  10.675  0.00  0.00    +0.021 C 
ATOM     12  C   UNL     1      -5.905 -10.517  14.452  0.00  0.00    +0.054 C 
ATOM     13  C   UNL     1      -3.852 -10.679  12.942  0.00  0.00    +0.010 C 
ATOM     14  C   UNL     1      -3.741  -9.299  10.841  0.00  0.00    +0.123 C 
ATOM     15  C   UNL     1      -7.521  -9.522  12.026  0.00  0.00    +0.049 C 
ATOM     16  C   UNL     1      -3.244 -10.554  11.553  0.00  0.00    +0.032 C 
ATOM     17  C   UNL     1      -5.868 -12.101  12.431  0.00  0.00    +0.012 C 
ATOM     18  C   UNL     1      -7.374 -10.181  14.493  0.00  0.00    +0.058 A 
ATOM     20  C   UNL     1      -5.662  -7.837  10.176  0.00  0.00    +0.016 C 
ATOM     21  C   UNL     1      -8.075  -9.718  13.397  0.00  0.00    +0.015 A 
ATOM     24  C   UNL     1      -9.344  -9.900  15.421  0.00  0.00    +0.165 A 
ATOM     27  C   UNL     1     -10.356 -10.187  17.667  0.00  0.00    +0.250 C 
ATOM     42  H   UNL     1     -11.247  -9.490  15.897  0.00  0.00    +0.157 HD
ENDROOT
BRANCH  27  29
ATOM     29  C   UNL     1     -11.638 -10.008  18.399  0.00  0.00    +0.037 A 
ATOM     31  C   UNL     1     -12.818  -9.776  17.692  0.00  0.00    +0.013 A 
ATOM     32  C   UNL     1     -11.661 -10.071  19.793  0.00  0.00    +0.013 A 
ATOM     33  C   UNL     1     -14.043  -9.671  19.771  0.00  0.00    -0.042 A 
ATOM     34  C   UNL     1     -14.021  -9.608  18.378  0.00  0.00    +0.005 A 
ATOM     35  C   UNL     1     -12.864  -9.902  20.478  0.00  0.00    +0.005 A 
BRANCH  33  36
ATOM     36  C   UNL     1     -15.329  -9.492  20.504  0.00  0.00    -0.013 C 
ATOM     37  C   UNL     1     -15.394  -8.097  21.202  0.00  0.00    +0.015 C 
ATOM     38  C   UNL     1     -15.506 -10.579  21.610  0.00  0.00    +0.015 C 
ATOM     39  C   UNL     1     -16.622  -9.577  19.626  0.00  0.00    +0.015 C 
ENDBRANCH  33  36
ENDBRANCH  27  29
BRANCH  14   2
ATOM      2  O   UNL     1      -3.095  -9.207   9.572  0.00  0.00    -0.391 OA
ATOM     40  H   UNL     1      -2.803  -8.287   9.456  0.00  0.00    +0.210 HD
ENDBRANCH  14   2
BRANCH  11  19
ATOM     19  C   UNL     1      -5.745 -10.226   9.560  0.00  0.00    +0.165 C 
BRANCH  19   3
ATOM      3  O   UNL     1      -5.717  -9.520   8.340  0.00  0.00    -0.394 OA
ATOM     41  H   UNL     1      -5.354 -10.119   7.666  0.00  0.00    +0.209 HD
ENDBRANCH  19   3
ENDBRANCH  11  19
BRANCH  12  22
ATOM     22  C   UNL     1      -5.569 -11.678  15.398  0.00  0.00    +0.106 C 
BRANCH  22  23
ATOM      4  O   UNL     1      -4.355 -10.095  16.726  0.00  0.00    -0.276 OA
ATOM      7  N   UNL     1      -4.928 -12.098  17.744  0.00  0.00    -0.301 N 
ATOM     23  C   UNL     1      -4.893 -11.204  16.670  0.00  0.00    +0.216 C 
ATOM     26  C   UNL     1      -5.571 -13.404  17.654  0.00  0.00    +0.132 C 
BRANCH   7  25
ATOM     25  C   UNL     1      -4.324 -11.792  19.039  0.00  0.00    +0.134 C 
BRANCH  25  28
ATOM     28  C   UNL     1      -5.401 -11.427  20.006  0.00  0.00    -0.016 C 
ATOM     30  C   UNL     1      -6.254 -10.413  19.825  0.00  0.00    +0.005 C 
ENDBRANCH  25  28
ENDBRANCH   7  25
ENDBRANCH  22  23
ENDBRANCH  12  22
TORSDOF 9
ENDMDL
MODEL 2
REMARK VINA RESULT:      -6.5     30.393     33.889
REMARK  Name = 11882989
REMARK  15 active torsions:
REMARK  status: ('A' for Active; 'I' for Inactive)
REMARK    1  A    between atoms: O_2  and  C_14
REMARK    2  A    between atoms: O_3  and  C_19
REMARK    3  A    between atoms: N_7  and  C_25
REMARK    4  A    between atoms: N_7  and  C_26
REMARK    5  A    between atoms: C_9  and  C_17
REMARK    6  A    between atoms: C_11  and  C_19
REMARK    7  A    between atoms: C_11  and  C_20
REMARK    8  A    between atoms: C_12  and  C_22
REMARK    9  A    between atoms: C_22  and  C_23
REMARK   10  A    between atoms: C_25  and  C_28
REMARK   11  A    between atoms: C_27  and  C_29
REMARK   12  A    between atoms: C_33  and  C_36
REMARK   13  A    between atoms: C_36  and  C_37
REMARK   14  A    between atoms: C_36  and  C_38
REMARK   15  A    between atoms: C_36  and  C_39
REMARK                            x       y       z     vdW  Elec       q    Type
REMARK                         _______ _______ _______ _____ _____    ______ ____
ROOT
ATOM      1  S   UNL     1      16.647   6.217  20.676  0.00  0.00    -0.057 S 
ATOM      5  O   UNL     1      20.868   7.976  21.546  0.00  0.00    -0.270 OA
ATOM      6  N   UNL     1      17.940   8.347  21.374  0.00  0.00    -0.229 NA
ATOM      8  N   UNL     1      19.249   6.367  20.956  0.00  0.00    -0.261 N 
ATOM      9  C   UNL     1      14.608  10.278  21.172  0.00  0.00    -0.019 C 
ATOM     10  C   UNL     1      13.752   9.001  21.586  0.00  0.00    +0.011 C 
ATOM     11  C   UNL     1      12.182   9.153  21.562  0.00  0.00    +0.021 C 
ATOM     12  C   UNL     1      16.106  10.054  21.679  0.00  0.00    +0.054 C 
ATOM     13  C   UNL     1      14.036  11.534  21.879  0.00  0.00    +0.010 C 
ATOM     14  C   UNL     1      11.785  10.480  22.268  0.00  0.00    +0.123 C 
ATOM     15  C   UNL     1      14.269   7.716  20.876  0.00  0.00    +0.049 C 
ATOM     16  C   UNL     1      12.531  11.695  21.727  0.00  0.00    +0.032 C 
ATOM     17  C   UNL     1      14.615  10.528  19.643  0.00  0.00    +0.012 C 
ATOM     18  C   UNL     1      16.597   8.672  21.327  0.00  0.00    +0.058 A 
ATOM     20  C   UNL     1      11.548   7.989  22.374  0.00  0.00    +0.016 C 
ATOM     21  C   UNL     1      15.753   7.633  20.987  0.00  0.00    +0.015 A 
ATOM     24  C   UNL     1      18.085   7.082  21.043  0.00  0.00    +0.165 A 
ATOM     27  C   UNL     1      20.548   6.843  21.207  0.00  0.00    +0.250 C 
ATOM     42  H   UNL     1      19.109   5.390  20.723  0.00  0.00    +0.157 HD
ENDROOT
BRANCH  27  29
ATOM     29  C   UNL     1      21.632   5.835  21.067  0.00  0.00    +0.037 A 
ATOM     31  C   UNL     1      22.943   6.249  20.832  0.00  0.00    +0.013 A 
ATOM     32  C   UNL     1      21.339   4.474  21.170  0.00  0.00    +0.013 A 
ATOM     33  C   UNL     1      23.667   3.944  20.803  0.00  0.00    -0.042 A 
ATOM     34  C   UNL     1      23.961   5.304  20.700  0.00  0.00    +0.005 A 
ATOM     35  C   UNL     1      22.356   3.530  21.037  0.00  0.00    +0.005 A 
BRANCH  33  36
ATOM     36  C   UNL     1      24.754   2.934  20.663  0.00  0.00    -0.013 C 
ATOM     37  C   UNL     1      25.965   3.275  21.587  0.00  0.00    +0.015 C 
ATOM     38  C   UNL     1      25.284   2.873  19.196  0.00  0.00    +0.015 C 
ATOM     39  C   UNL     1      24.358   1.464  21.024  0.00  0.00    +0.015 C 
ENDBRANCH  33  36
ENDBRANCH  27  29
BRANCH  14   2
ATOM      2  O   UNL     1      10.382  10.712  22.150  0.00  0.00    -0.391 OA
ATOM     40  H   UNL     1      10.130  11.351  22.839  0.00  0.00    +0.210 HD
ENDBRANCH  14   2
BRANCH  11  19
ATOM     19  C   UNL     1      11.552   9.069  20.153  0.00  0.00    +0.165 C 
BRANCH  19   3
ATOM      3  O   UNL     1      10.358   8.327  20.259  0.00  0.00    -0.394 OA
ATOM     41  H   UNL     1       9.629   8.910  19.987  0.00  0.00    +0.209 HD
ENDBRANCH  19   3
ENDBRANCH  11  19
BRANCH  12  22
ATOM     22  C   UNL     1      17.101  11.133  21.232  0.00  0.00    +0.106 C 
BRANCH  22  23
ATOM      4  O   UNL     1      17.401  11.989  23.450  0.00  0.00    -0.276 OA
ATOM      7  N   UNL     1      19.308  11.741  22.154  0.00  0.00    -0.301 N 
ATOM     23  C   UNL     1      17.932  11.661  22.386  0.00  0.00    +0.216 C 
ATOM     26  C   UNL     1      19.913  11.347  20.887  0.00  0.00    +0.132 C 
BRANCH   7  25
ATOM     25  C   UNL     1      20.246  12.227  23.164  0.00  0.00    +0.134 C 
BRANCH  25  28
ATOM     28  C   UNL     1      21.077  11.085  23.647  0.00  0.00    -0.016 C 
ATOM     30  C   UNL     1      20.658  10.182  24.539  0.00  0.00    +0.005 C 
ENDBRANCH  25  28
ENDBRANCH   7  25
ENDBRANCH  22  23
ENDBRANCH  12  22
TORSDOF 9
ENDMDL
MODEL 3
REMARK VINA RESULT:      -6.4     20.406     25.029
REMARK  Name = 11882989
REMARK  15 active torsions:
REMARK  status: ('A' for Active; 'I' for Inactive)
REMARK    1  A    between atoms: O_2  and  C_14
REMARK    2  A    between atoms: O_3  and  C_19
REMARK    3  A    between atoms: N_7  and  C_25
REMARK    4  A    between atoms: N_7  and  C_26
REMARK    5  A    between atoms: C_9  and  C_17
REMARK    6  A    between atoms: C_11  and  C_19
REMARK    7  A    between atoms: C_11  and  C_20
REMARK    8  A    between atoms: C_12  and  C_22
REMARK    9  A    between atoms: C_22  and  C_23
REMARK   10  A    between atoms: C_25  and  C_28
REMARK   11  A    between atoms: C_27  and  C_29
REMARK   12  A    between atoms: C_33  and  C_36
REMARK   13  A    between atoms: C_36  and  C_37
REMARK   14  A    between atoms: C_36  and  C_38
REMARK   15  A    between atoms: C_36  and  C_39
REMARK                            x       y       z     vdW  Elec       q    Type
REMARK                         _______ _______ _______ _____ _____    ______ ____
ROOT
ATOM      1  S   UNL     1      -6.333  -9.481  38.528  0.00  0.00    -0.057 S 
ATOM      5  O   UNL     1     -10.964  -9.079  38.769  0.00  0.00    -0.270 OA
ATOM      6  N   UNL     1      -8.283  -8.242  39.693  0.00  0.00    -0.229 NA
ATOM      8  N   UNL     1      -8.876  -9.891  38.037  0.00  0.00    -0.261 N 
ATOM      9  C   UNL     1      -5.677  -6.579  41.998  0.00  0.00    -0.019 C 
ATOM     10  C   UNL     1      -4.551  -6.604  40.873  0.00  0.00    +0.011 C 
ATOM     11  C   UNL     1      -3.108  -6.120  41.294  0.00  0.00    +0.021 C 
ATOM     12  C   UNL     1      -7.099  -6.673  41.274  0.00  0.00    +0.054 C 
ATOM     13  C   UNL     1      -5.609  -5.234  42.767  0.00  0.00    +0.010 C 
ATOM     14  C   UNL     1      -3.226  -4.791  42.091  0.00  0.00    +0.123 C 
ATOM     15  C   UNL     1      -4.557  -7.949  40.091  0.00  0.00    +0.049 C 
ATOM     16  C   UNL     1      -4.213  -4.871  43.252  0.00  0.00    +0.032 C 
ATOM     17  C   UNL     1      -5.539  -7.741  43.013  0.00  0.00    +0.012 C 
ATOM     18  C   UNL     1      -7.104  -7.758  40.228  0.00  0.00    +0.058 A 
ATOM     20  C   UNL     1      -2.282  -5.819  40.012  0.00  0.00    +0.016 C 
ATOM     21  C   UNL     1      -5.951  -8.303  39.697  0.00  0.00    +0.015 A 
ATOM     24  C   UNL     1      -7.999  -9.159  38.793  0.00  0.00    +0.165 A 
ATOM     27  C   UNL     1     -10.278  -9.812  38.066  0.00  0.00    +0.250 C 
ATOM     42  H   UNL     1      -8.421 -10.511  37.376  0.00  0.00    +0.157 HD
ENDROOT
BRANCH  27  29
ATOM     29  C   UNL     1     -10.985 -10.706  37.110  0.00  0.00    +0.037 A 
ATOM     31  C   UNL     1     -10.379 -11.887  36.682  0.00  0.00    +0.013 A 
ATOM     32  C   UNL     1     -12.254 -10.363  36.642  0.00  0.00    +0.013 A 
ATOM     33  C   UNL     1     -12.310 -12.382  35.317  0.00  0.00    -0.042 A 
ATOM     34  C   UNL     1     -11.042 -12.725  35.785  0.00  0.00    +0.005 A 
ATOM     35  C   UNL     1     -12.916 -11.201  35.745  0.00  0.00    +0.005 A 
BRANCH  33  36
ATOM     36  C   UNL     1     -13.018 -13.278  34.359  0.00  0.00    -0.013 C 
ATOM     37  C   UNL     1     -13.976 -12.470  33.429  0.00  0.00    +0.015 C 
ATOM     38  C   UNL     1     -13.880 -14.341  35.110  0.00  0.00    +0.015 C 
ATOM     39  C   UNL     1     -12.096 -14.096  33.395  0.00  0.00    +0.015 C 
ENDBRANCH  33  36
ENDBRANCH  27  29
BRANCH  14   2
ATOM      2  O   UNL     1      -1.953  -4.393  42.598  0.00  0.00    -0.391 OA
ATOM     40  H   UNL     1      -1.682  -3.592  42.120  0.00  0.00    +0.210 HD
ENDBRANCH  14   2
BRANCH  11  19
ATOM     19  C   UNL     1      -2.287  -7.165  42.082  0.00  0.00    +0.165 C 
BRANCH  19   3
ATOM      3  O   UNL     1      -0.922  -6.866  41.900  0.00  0.00    -0.394 OA
ATOM     41  H   UNL     1      -0.517  -7.624  41.445  0.00  0.00    +0.209 HD
ENDBRANCH  19   3
ENDBRANCH  11  19
BRANCH  12  22
ATOM     22  C   UNL     1      -8.293  -6.808  42.228  0.00  0.00    +0.106 C 
BRANCH  22  23
ATOM      4  O   UNL     1      -8.889  -4.490  42.106  0.00  0.00    -0.276 OA
ATOM      7  N   UNL     1     -10.615  -6.028  41.924  0.00  0.00    -0.301 N 
ATOM     23  C   UNL     1      -9.275  -5.662  42.083  0.00  0.00    +0.216 C 
ATOM     26  C   UNL     1     -11.048  -7.420  41.900  0.00  0.00    +0.132 C 
BRANCH   7  25
ATOM     25  C   UNL     1     -11.684  -5.043  41.770  0.00  0.00    +0.134 C 
BRANCH  25  28
ATOM     28  C   UNL     1     -12.006  -4.896  40.320  0.00  0.00    -0.016 C 
ATOM     30  C   UNL     1     -11.280  -4.168  39.465  0.00  0.00    +0.005 C 
ENDBRANCH  25  28
ENDBRANCH   7  25
ENDBRANCH  22  23
ENDBRANCH  12  22
TORSDOF 9
ENDMDL
MODEL 4
REMARK VINA RESULT:      -6.2      1.571      2.109
REMARK  Name = 11882989
REMARK  15 active torsions:
REMARK  status: ('A' for Active; 'I' for Inactive)
REMARK    1  A    between atoms: O_2  and  C_14
REMARK    2  A    between atoms: O_3  and  C_19
REMARK    3  A    between atoms: N_7  and  C_25
REMARK    4  A    between atoms: N_7  and  C_26
REMARK    5  A    between atoms: C_9  and  C_17
REMARK    6  A    between atoms: C_11  and  C_19
REMARK    7  A    between atoms: C_11  and  C_20
REMARK    8  A    between atoms: C_12  and  C_22
REMARK    9  A    between atoms: C_22  and  C_23
REMARK   10  A    between atoms: C_25  and  C_28
REMARK   11  A    between atoms: C_27  and  C_29
REMARK   12  A    between atoms: C_33  and  C_36
REMARK   13  A    between atoms: C_36  and  C_37
REMARK   14  A    between atoms: C_36  and  C_38
REMARK   15  A    between atoms: C_36  and  C_39
REMARK                            x       y       z     vdW  Elec       q    Type
REMARK                         _______ _______ _______ _____ _____    ______ ____
ROOT
ATOM      1  S   UNL     1     -10.656  -9.518  13.350  0.00  0.00    -0.057 S 
ATOM      5  O   UNL     1      -9.805 -10.126  17.886  0.00  0.00    -0.270 OA
ATOM      6  N   UNL     1      -8.811  -9.978  15.105  0.00  0.00    -0.229 NA
ATOM      8  N   UNL     1     -11.062  -9.734  15.931  0.00  0.00    -0.261 N 
ATOM      9  C   UNL     1      -6.334 -10.443  12.186  0.00  0.00    -0.019 C 
ATOM     10  C   UNL     1      -7.111  -9.408  11.259  0.00  0.00    +0.011 C 
ATOM     11  C   UNL     1      -6.595  -9.248   9.776  0.00  0.00    +0.021 C 
ATOM     12  C   UNL     1      -6.717 -10.128  13.705  0.00  0.00    +0.054 C 
ATOM     13  C   UNL     1      -4.806 -10.241  12.017  0.00  0.00    +0.010 C 
ATOM     14  C   UNL     1      -5.047  -9.104   9.785  0.00  0.00    +0.123 C 
ATOM     15  C   UNL     1      -8.652  -9.591  11.370  0.00  0.00    +0.049 C 
ATOM     16  C   UNL     1      -4.345 -10.210  10.567  0.00  0.00    +0.032 C 
ATOM     17  C   UNL     1      -6.680 -11.918  11.864  0.00  0.00    +0.012 C 
ATOM     18  C   UNL     1      -8.205  -9.947  13.862  0.00  0.00    +0.058 A 
ATOM     20  C   UNL     1      -7.177  -7.938   9.176  0.00  0.00    +0.016 C 
ATOM     21  C   UNL     1      -9.052  -9.688  12.803  0.00  0.00    +0.015 A 
ATOM     24  C   UNL     1     -10.102  -9.772  14.955  0.00  0.00    +0.165 A 
ATOM     27  C   UNL     1     -10.865  -9.909  17.311  0.00  0.00    +0.250 C 
ATOM     42  H   UNL     1     -11.989  -9.516  15.580  0.00  0.00    +0.157 HD
ENDROOT
BRANCH  27  29
ATOM     29  C   UNL     1     -12.087  -9.785  18.149  0.00  0.00    +0.037 A 
ATOM     31  C   UNL     1     -13.323  -9.544  17.548  0.00  0.00    +0.013 A 
ATOM     32  C   UNL     1     -11.999  -9.910  19.536  0.00  0.00    +0.013 A 
ATOM     33  C   UNL     1     -14.381  -9.551  19.721  0.00  0.00    -0.042 A 
ATOM     34  C   UNL     1     -14.470  -9.427  18.334  0.00  0.00    +0.005 A 
ATOM     35  C   UNL     1     -13.145  -9.793  20.321  0.00  0.00    +0.005 A 
BRANCH  33  36
ATOM     36  C   UNL     1     -15.606  -9.428  20.560  0.00  0.00    -0.013 C 
ATOM     37  C   UNL     1     -16.899  -9.576  19.699  0.00  0.00    +0.015 C 
ATOM     38  C   UNL     1     -15.670  -8.039  21.268  0.00  0.00    +0.015 C 
ATOM     39  C   UNL     1     -15.747 -10.485  21.705  0.00  0.00    +0.015 C 
ENDBRANCH  33  36
ENDBRANCH  27  29
BRANCH  14   2
ATOM      2  O   UNL     1      -4.535  -9.088   8.453  0.00  0.00    -0.391 OA
ATOM     40  H   UNL     1      -4.598  -8.176   8.124  0.00  0.00    +0.210 HD
ENDBRANCH  14   2
BRANCH  11  19
ATOM     19  C   UNL     1      -7.038 -10.377   8.819  0.00  0.00    +0.165 C 
BRANCH  19   3
ATOM      3  O   UNL     1      -7.892  -9.811   7.851  0.00  0.00    -0.394 OA
ATOM     41  H   UNL     1      -7.582 -10.110   6.979  0.00  0.00    +0.209 HD
ENDBRANCH  19   3
ENDBRANCH  11  19
BRANCH  12  22
ATOM     22  C   UNL     1      -6.164 -11.133  14.725  0.00  0.00    +0.106 C 
BRANCH  22  23
ATOM      4  O   UNL     1      -5.270  -9.438  16.165  0.00  0.00    -0.276 OA
ATOM      7  N   UNL     1      -3.914 -11.268  15.731  0.00  0.00    -0.301 N 
ATOM     23  C   UNL     1      -5.090 -10.523  15.606  0.00  0.00    +0.216 C 
ATOM     26  C   UNL     1      -3.725 -12.549  15.060  0.00  0.00    +0.132 C 
BRANCH   7  25
ATOM     25  C   UNL     1      -2.785 -10.821  16.544  0.00  0.00    +0.134 C 
BRANCH  25  28
ATOM     28  C   UNL     1      -1.565 -10.747  15.687  0.00  0.00    -0.016 C 
ATOM     30  C   UNL     1      -1.448  -9.944  14.624  0.00  0.00    +0.005 C 
ENDBRANCH  25  28
ENDBRANCH   7  25
ENDBRANCH  22  23
ENDBRANCH  12  22
TORSDOF 9
ENDMDL
MODEL 5
REMARK VINA RESULT:      -6.1      7.109     11.330
REMARK  Name = 11882989
REMARK  15 active torsions:
REMARK  status: ('A' for Active; 'I' for Inactive)
REMARK    1  A    between atoms: O_2  and  C_14
REMARK    2  A    between atoms: O_3  and  C_19
REMARK    3  A    between atoms: N_7  and  C_25
REMARK    4  A    between atoms: N_7  and  C_26
REMARK    5  A    between atoms: C_9  and  C_17
REMARK    6  A    between atoms: C_11  and  C_19
REMARK    7  A    between atoms: C_11  and  C_20
REMARK    8  A    between atoms: C_12  and  C_22
REMARK    9  A    between atoms: C_22  and  C_23
REMARK   10  A    between atoms: C_25  and  C_28
REMARK   11  A    between atoms: C_27  and  C_29
REMARK   12  A    between atoms: C_33  and  C_36
REMARK   13  A    between atoms: C_36  and  C_37
REMARK   14  A    between atoms: C_36  and  C_38
REMARK   15  A    between atoms: C_36  and  C_39
REMARK                            x       y       z     vdW  Elec       q    Type
REMARK                         _______ _______ _______ _____ _____    ______ ____
ROOT
ATOM      1  S   UNL     1      -6.137 -11.429   6.286  0.00  0.00    -0.057 S 
ATOM      5  O   UNL     1      -6.545  -8.565   9.933  0.00  0.00    -0.270 OA
ATOM      6  N   UNL     1      -7.367  -9.345   7.201  0.00  0.00    -0.229 NA
ATOM      8  N   UNL     1      -5.738 -10.372   8.651  0.00  0.00    -0.261 N 
ATOM      9  C   UNL     1      -8.998  -8.944   3.730  0.00  0.00    -0.019 C 
ATOM     10  C   UNL     1      -8.984 -10.512   3.455  0.00  0.00    +0.011 C 
ATOM     11  C   UNL     1      -9.460 -10.994   2.030  0.00  0.00    +0.021 C 
ATOM     12  C   UNL     1      -8.915  -8.719   5.309  0.00  0.00    +0.054 C 
ATOM     13  C   UNL     1     -10.334  -8.343   3.220  0.00  0.00    +0.010 C 
ATOM     14  C   UNL     1     -10.780 -10.263   1.657  0.00  0.00    +0.123 C 
ATOM     15  C   UNL     1      -7.647 -11.159   3.922  0.00  0.00    +0.049 C 
ATOM     16  C   UNL     1     -10.688  -8.747   1.797  0.00  0.00    +0.032 C 
ATOM     17  C   UNL     1      -7.825  -8.202   3.043  0.00  0.00    +0.012 C 
ATOM     18  C   UNL     1      -7.842  -9.581   5.924  0.00  0.00    +0.058 A 
ATOM     20  C   UNL     1      -9.773 -12.515   2.088  0.00  0.00    +0.016 C 
ATOM     21  C   UNL     1      -7.301 -10.683   5.291  0.00  0.00    +0.015 A 
ATOM     24  C   UNL     1      -6.460 -10.251   7.493  0.00  0.00    +0.165 A 
ATOM     27  C   UNL     1      -5.819  -9.541   9.782  0.00  0.00    +0.250 C 
ATOM     42  H   UNL     1      -5.124 -11.179   8.665  0.00  0.00    +0.157 HD
ENDROOT
BRANCH  27  29
ATOM     29  C   UNL     1      -4.938  -9.923  10.916  0.00  0.00    +0.037 A 
ATOM     31  C   UNL     1      -5.471 -10.059  12.198  0.00  0.00    +0.013 A 
ATOM     32  C   UNL     1      -3.578 -10.147  10.700  0.00  0.00    +0.013 A 
ATOM     33  C   UNL     1      -3.285 -10.641  13.046  0.00  0.00    -0.042 A 
ATOM     34  C   UNL     1      -4.645 -10.418  13.263  0.00  0.00    +0.005 A 
ATOM     35  C   UNL     1      -2.752 -10.505  11.765  0.00  0.00    +0.005 A 
BRANCH  33  36
ATOM     36  C   UNL     1      -2.402 -11.025  14.185  0.00  0.00    -0.013 C 
ATOM     37  C   UNL     1      -1.353  -9.911  14.488  0.00  0.00    +0.015 C 
ATOM     38  C   UNL     1      -1.618 -12.338  13.874  0.00  0.00    +0.015 C 
ATOM     39  C   UNL     1      -3.133 -11.289  15.543  0.00  0.00    +0.015 C 
ENDBRANCH  33  36
ENDBRANCH  27  29
BRANCH  14   2
ATOM      2  O   UNL     1     -11.169 -10.577   0.320  0.00  0.00    -0.391 OA
ATOM     40  H   UNL     1     -10.696  -9.972  -0.275  0.00  0.00    +0.210 HD
ENDBRANCH  14   2
BRANCH  11  19
ATOM     19  C   UNL     1      -8.404 -10.829   0.913  0.00  0.00    +0.165 C 
BRANCH  19   3
ATOM      3  O   UNL     1      -8.558 -11.903   0.013  0.00  0.00    -0.394 OA
ATOM     41  H   UNL     1      -9.254 -12.482   0.368  0.00  0.00    +0.209 HD
ENDBRANCH  19   3
ENDBRANCH  11  19
BRANCH  12  22
ATOM     22  C   UNL     1      -8.771  -7.253   5.739  0.00  0.00    +0.106 C 
BRANCH  22  23
ATOM      4  O   UNL     1     -11.076  -7.001   6.345  0.00  0.00    -0.276 OA
ATOM      7  N   UNL     1      -9.503  -6.190   7.843  0.00  0.00    -0.301 N 
ATOM     23  C   UNL     1      -9.897  -6.811   6.654  0.00  0.00    +0.216 C 
ATOM     26  C   UNL     1      -8.102  -5.977   8.187  0.00  0.00    +0.132 C 
BRANCH   7  25
ATOM     25  C   UNL     1     -10.465  -5.708   8.832  0.00  0.00    +0.134 C 
BRANCH  25  28
ATOM     28  C   UNL     1     -10.302  -4.233   8.993  0.00  0.00    -0.016 C 
ATOM     30  C   UNL     1     -11.293  -3.407   9.347  0.00  0.00    +0.005 C 
ENDBRANCH  25  28
ENDBRANCH   7  25
ENDBRANCH  22  23
ENDBRANCH  12  22
TORSDOF 9
ENDMDL
MODEL 6
REMARK VINA RESULT:      -6.1     19.583     22.768
REMARK  Name = 11882989
REMARK  15 active torsions:
REMARK  status: ('A' for Active; 'I' for Inactive)
REMARK    1  A    between atoms: O_2  and  C_14
REMARK    2  A    between atoms: O_3  and  C_19
REMARK    3  A    between atoms: N_7  and  C_25
REMARK    4  A    between atoms: N_7  and  C_26
REMARK    5  A    between atoms: C_9  and  C_17
REMARK    6  A    between atoms: C_11  and  C_19
REMARK    7  A    between atoms: C_11  and  C_20
REMARK    8  A    between atoms: C_12  and  C_22
REMARK    9  A    between atoms: C_22  and  C_23
REMARK   10  A    between atoms: C_25  and  C_28
REMARK   11  A    between atoms: C_27  and  C_29
REMARK   12  A    between atoms: C_33  and  C_36
REMARK   13  A    between atoms: C_36  and  C_37
REMARK   14  A    between atoms: C_36  and  C_38
REMARK   15  A    between atoms: C_36  and  C_39
REMARK                            x       y       z     vdW  Elec       q    Type
REMARK                         _______ _______ _______ _____ _____    ______ ____
ROOT
ATOM      1  S   UNL     1     -10.442 -10.147  37.598  0.00  0.00    -0.057 S 
ATOM      5  O   UNL     1      -5.902 -11.086  38.017  0.00  0.00    -0.270 OA
ATOM      6  N   UNL     1      -8.559 -11.791  36.927  0.00  0.00    -0.229 NA
ATOM      8  N   UNL     1      -7.933  -9.931  38.328  0.00  0.00    -0.261 N 
ATOM      9  C   UNL     1     -11.256 -14.012  35.296  0.00  0.00    -0.019 C 
ATOM     10  C   UNL     1     -12.176 -12.764  34.932  0.00  0.00    +0.011 C 
ATOM     11  C   UNL     1     -13.588 -13.075  34.300  0.00  0.00    +0.021 C 
ATOM     12  C   UNL     1      -9.761 -13.482  35.493  0.00  0.00    +0.054 C 
ATOM     13  C   UNL     1     -11.266 -15.020  34.118  0.00  0.00    +0.010 C 
ATOM     14  C   UNL     1     -13.422 -14.133  33.173  0.00  0.00    +0.123 C 
ATOM     15  C   UNL     1     -12.224 -11.734  36.098  0.00  0.00    +0.049 C 
ATOM     16  C   UNL     1     -12.660 -15.376  33.622  0.00  0.00    +0.032 C 
ATOM     17  C   UNL     1     -11.716 -14.743  36.581  0.00  0.00    +0.012 C 
ATOM     18  C   UNL     1      -9.733 -12.249  36.359  0.00  0.00    +0.058 A 
ATOM     20  C   UNL     1     -14.144 -11.782  33.642  0.00  0.00    +0.016 C 
ATOM     21  C   UNL     1     -10.846 -11.469  36.602  0.00  0.00    +0.015 A 
ATOM     24  C   UNL     1      -8.814 -10.695  37.608  0.00  0.00    +0.165 A 
ATOM     27  C   UNL     1      -6.557 -10.164  38.489  0.00  0.00    +0.250 C 
ATOM     42  H   UNL     1      -8.353  -9.103  38.736  0.00  0.00    +0.157 HD
ENDROOT
BRANCH  27  29
ATOM     29  C   UNL     1      -5.831  -9.152  39.301  0.00  0.00    +0.037 A 
ATOM     31  C   UNL     1      -4.849  -9.556  40.204  0.00  0.00    +0.013 A 
ATOM     32  C   UNL     1      -6.133  -7.796  39.160  0.00  0.00    +0.013 A 
ATOM     33  C   UNL     1      -4.471  -7.252  40.826  0.00  0.00    -0.042 A 
ATOM     34  C   UNL     1      -4.168  -8.606  40.967  0.00  0.00    +0.005 A 
ATOM     35  C   UNL     1      -5.453  -6.848  39.922  0.00  0.00    +0.005 A 
BRANCH  33  36
ATOM     36  C   UNL     1      -3.743  -6.237  41.640  0.00  0.00    -0.013 C 
ATOM     37  C   UNL     1      -2.894  -5.290  40.736  0.00  0.00    +0.015 C 
ATOM     38  C   UNL     1      -2.769  -6.917  42.653  0.00  0.00    +0.015 C 
ATOM     39  C   UNL     1      -4.645  -5.292  42.500  0.00  0.00    +0.015 C 
ENDBRANCH  33  36
ENDBRANCH  27  29
BRANCH  14   2
ATOM      2  O   UNL     1     -14.695 -14.534  32.668  0.00  0.00    -0.391 OA
ATOM     40  H   UNL     1     -14.892 -15.414  33.030  0.00  0.00    +0.210 HD
ENDBRANCH  14   2
BRANCH  11  19
ATOM     19  C   UNL     1     -14.662 -13.519  35.319  0.00  0.00    +0.165 C 
BRANCH  19   3
ATOM      3  O   UNL     1     -15.619 -12.489  35.411  0.00  0.00    -0.394 OA
ATOM     41  H   UNL     1     -15.182 -11.721  35.818  0.00  0.00    +0.209 HD
ENDBRANCH  19   3
ENDBRANCH  11  19
BRANCH  12  22
ATOM     22  C   UNL     1      -8.769 -14.541  35.992  0.00  0.00    +0.106 C 
BRANCH  22  23
ATOM      4  O   UNL     1      -7.384 -14.310  34.050  0.00  0.00    -0.276 OA
ATOM      7  N   UNL     1      -6.303 -14.569  36.085  0.00  0.00    -0.301 N 
ATOM     23  C   UNL     1      -7.436 -14.462  35.273  0.00  0.00    +0.216 C 
ATOM     26  C   UNL     1      -6.390 -14.747  37.530  0.00  0.00    +0.132 C 
BRANCH   7  25
ATOM     25  C   UNL     1      -4.945 -14.510  35.548  0.00  0.00    +0.134 C 
BRANCH  25  28
ATOM     28  C   UNL     1      -4.240 -13.331  36.130  0.00  0.00    -0.016 C 
ATOM     30  C   UNL     1      -2.983 -13.362  36.583  0.00  0.00    +0.005 C 
ENDBRANCH  25  28
ENDBRANCH   7  25
ENDBRANCH  22  23
ENDBRANCH  12  22
TORSDOF 9
ENDMDL
MODEL 7
REMARK VINA RESULT:      -6.0     17.677     22.366
REMARK  Name = 11882989
REMARK  15 active torsions:
REMARK  status: ('A' for Active; 'I' for Inactive)
REMARK    1  A    between atoms: O_2  and  C_14
REMARK    2  A    between atoms: O_3  and  C_19
REMARK    3  A    between atoms: N_7  and  C_25
REMARK    4  A    between atoms: N_7  and  C_26
REMARK    5  A    between atoms: C_9  and  C_17
REMARK    6  A    between atoms: C_11  and  C_19
REMARK    7  A    between atoms: C_11  and  C_20
REMARK    8  A    between atoms: C_12  and  C_22
REMARK    9  A    between atoms: C_22  and  C_23
REMARK   10  A    between atoms: C_25  and  C_28
REMARK   11  A    between atoms: C_27  and  C_29
REMARK   12  A    between atoms: C_33  and  C_36
REMARK   13  A    between atoms: C_36  and  C_37
REMARK   14  A    between atoms: C_36  and  C_38
REMARK   15  A    between atoms: C_36  and  C_39
REMARK                            x       y       z     vdW  Elec       q    Type
REMARK                         _______ _______ _______ _____ _____    ______ ____
ROOT
ATOM      1  S   UNL     1     -10.571 -10.321  37.621  0.00  0.00    -0.057 S 
ATOM      5  O   UNL     1      -5.963 -10.964  37.740  0.00  0.00    -0.270 OA
ATOM      6  N   UNL     1      -8.619 -11.754  36.709  0.00  0.00    -0.229 NA
ATOM      8  N   UNL     1      -8.048  -9.993  38.254  0.00  0.00    -0.261 N 
ATOM      9  C   UNL     1     -11.242 -14.003  34.997  0.00  0.00    -0.019 C 
ATOM     10  C   UNL     1     -12.261 -12.796  34.797  0.00  0.00    +0.011 C 
ATOM     11  C   UNL     1     -13.680 -13.148  34.203  0.00  0.00    +0.021 C 
ATOM     12  C   UNL     1      -9.778 -13.387  35.175  0.00  0.00    +0.054 C 
ATOM     13  C   UNL     1     -11.245 -14.895  33.728  0.00  0.00    +0.010 C 
ATOM     14  C   UNL     1     -13.502 -14.082  32.973  0.00  0.00    +0.123 C 
ATOM     15  C   UNL     1     -12.318 -11.886  36.059  0.00  0.00    +0.049 C 
ATOM     16  C   UNL     1     -12.635 -15.302  33.264  0.00  0.00    +0.032 C 
ATOM     17  C   UNL     1     -11.583 -14.882  36.225  0.00  0.00    +0.012 C 
ATOM     18  C   UNL     1      -9.788 -12.241  36.154  0.00  0.00    +0.058 A 
ATOM     20  C   UNL     1     -14.357 -11.843  33.700  0.00  0.00    +0.016 C 
ATOM     21  C   UNL     1     -10.937 -11.569  36.522  0.00  0.00    +0.015 A 
ATOM     24  C   UNL     1      -8.912 -10.747  37.505  0.00  0.00    +0.165 A 
ATOM     27  C   UNL     1      -6.653 -10.139  38.328  0.00  0.00    +0.250 C 
ATOM     42  H   UNL     1      -8.502  -9.239  38.759  0.00  0.00    +0.157 HD
ENDROOT
BRANCH  27  29
ATOM     29  C   UNL     1      -5.956  -9.157  39.201  0.00  0.00    +0.037 A 
ATOM     31  C   UNL     1      -4.984  -9.591  40.101  0.00  0.00    +0.013 A 
ATOM     32  C   UNL     1      -6.275  -7.801  39.119  0.00  0.00    +0.013 A 
ATOM     33  C   UNL     1      -4.649  -7.315  40.838  0.00  0.00    -0.042 A 
ATOM     34  C   UNL     1      -4.330  -8.670  40.920  0.00  0.00    +0.005 A 
ATOM     35  C   UNL     1      -5.622  -6.881  39.938  0.00  0.00    +0.005 A 
BRANCH  33  36
ATOM     36  C   UNL     1      -3.950  -6.330  41.713  0.00  0.00    -0.013 C 
ATOM     37  C   UNL     1      -3.101  -7.049  42.807  0.00  0.00    +0.015 C 
ATOM     38  C   UNL     1      -4.967  -5.399  42.443  0.00  0.00    +0.015 C 
ATOM     39  C   UNL     1      -2.956  -5.368  40.981  0.00  0.00    +0.015 C 
ENDBRANCH  33  36
ENDBRANCH  27  29
BRANCH  14   2
ATOM      2  O   UNL     1     -14.771 -14.524  32.490  0.00  0.00    -0.391 OA
ATOM     40  H   UNL     1     -14.934 -14.080  31.641  0.00  0.00    +0.210 HD
ENDBRANCH  14   2
BRANCH  11  19
ATOM     19  C   UNL     1     -14.667 -13.761  35.222  0.00  0.00    +0.165 C 
BRANCH  19   3
ATOM      3  O   UNL     1     -15.965 -13.337  34.874  0.00  0.00    -0.394 OA
ATOM     41  H   UNL     1     -15.910 -12.925  33.995  0.00  0.00    +0.209 HD
ENDBRANCH  19   3
ENDBRANCH  11  19
BRANCH  12  22
ATOM     22  C   UNL     1      -8.691 -14.413  35.524  0.00  0.00    +0.106 C 
BRANCH  22  23
ATOM      4  O   UNL     1      -7.072 -13.641  33.935  0.00  0.00    -0.276 OA
ATOM      7  N   UNL     1      -7.546 -15.911  33.932  0.00  0.00    -0.301 N 
ATOM     23  C   UNL     1      -7.697 -14.601  34.395  0.00  0.00    +0.216 C 
ATOM     26  C   UNL     1      -8.295 -17.030  34.492  0.00  0.00    +0.132 C 
BRANCH   7  25
ATOM     25  C   UNL     1      -6.626 -16.260  32.851  0.00  0.00    +0.134 C 
BRANCH  25  28
ATOM     28  C   UNL     1      -7.415 -16.661  31.649  0.00  0.00    -0.016 C 
ATOM     30  C   UNL     1      -8.173 -15.819  30.939  0.00  0.00    +0.005 C 
ENDBRANCH  25  28
ENDBRANCH   7  25
ENDBRANCH  22  23
ENDBRANCH  12  22
TORSDOF 9
ENDMDL
MODEL 8
REMARK VINA RESULT:      -6.0     31.475     34.236
REMARK  Name = 11882989
REMARK  15 active torsions:
REMARK  status: ('A' for Active; 'I' for Inactive)
REMARK    1  A    between atoms: O_2  and  C_14
REMARK    2  A    between atoms: O_3  and  C_19
REMARK    3  A    between atoms: N_7  and  C_25
REMARK    4  A    between atoms: N_7  and  C_26
REMARK    5  A    between atoms: C_9  and  C_17
REMARK    6  A    between atoms: C_11  and  C_19
REMARK    7  A    between atoms: C_11  and  C_20
REMARK    8  A    between atoms: C_12  and  C_22
REMARK    9  A    between atoms: C_22  and  C_23
REMARK   10  A    between atoms: C_25  and  C_28
REMARK   11  A    between atoms: C_27  and  C_29
REMARK   12  A    between atoms: C_33  and  C_36
REMARK   13  A    between atoms: C_36  and  C_37
REMARK   14  A    between atoms: C_36  and  C_38
REMARK   15  A    between atoms: C_36  and  C_39
REMARK                            x       y       z     vdW  Elec       q    Type
REMARK                         _______ _______ _______ _____ _____    ______ ____
ROOT
ATOM      1  S   UNL     1      20.070   4.875  20.925  0.00  0.00    -0.057 S 
ATOM      5  O   UNL     1      18.069   9.077  20.852  0.00  0.00    -0.270 OA
ATOM      6  N   UNL     1      20.516   7.419  20.761  0.00  0.00    -0.229 NA
ATOM      8  N   UNL     1      18.215   6.727  20.965  0.00  0.00    -0.261 N 
ATOM      9  C   UNL     1      24.288   6.637  20.930  0.00  0.00    -0.019 C 
ATOM     10  C   UNL     1      24.109   5.232  20.205  0.00  0.00    +0.011 C 
ATOM     11  C   UNL     1      25.392   4.321  20.081  0.00  0.00    +0.021 C 
ATOM     12  C   UNL     1      23.027   7.547  20.560  0.00  0.00    +0.054 C 
ATOM     13  C   UNL     1      25.566   7.335  20.396  0.00  0.00    +0.010 C 
ATOM     14  C   UNL     1      26.585   5.184  19.580  0.00  0.00    +0.123 C 
ATOM     15  C   UNL     1      22.853   4.476  20.730  0.00  0.00    +0.049 C 
ATOM     16  C   UNL     1      26.802   6.447  20.406  0.00  0.00    +0.032 C 
ATOM     17  C   UNL     1      24.396   6.511  22.470  0.00  0.00    +0.012 C 
ATOM     18  C   UNL     1      21.740   6.778  20.716  0.00  0.00    +0.058 A 
ATOM     20  C   UNL     1      25.134   3.224  19.012  0.00  0.00    +0.016 C 
ATOM     21  C   UNL     1      21.683   5.400  20.771  0.00  0.00    +0.015 A 
ATOM     24  C   UNL     1      19.566   6.516  20.878  0.00  0.00    +0.165 A 
ATOM     27  C   UNL     1      17.556   7.968  20.948  0.00  0.00    +0.250 C 
ATOM     42  H   UNL     1      17.672   5.871  21.006  0.00  0.00    +0.157 HD
ENDROOT
BRANCH  27  29
ATOM     29  C   UNL     1      16.073   7.902  21.028  0.00  0.00    +0.037 A 
ATOM     31  C   UNL     1      15.382   8.752  21.891  0.00  0.00    +0.013 A 
ATOM     32  C   UNL     1      15.371   6.988  20.239  0.00  0.00    +0.013 A 
ATOM     33  C   UNL     1      13.290   7.776  21.178  0.00  0.00    -0.042 A 
ATOM     34  C   UNL     1      13.990   8.689  21.966  0.00  0.00    +0.005 A 
ATOM     35  C   UNL     1      13.981   6.926  20.315  0.00  0.00    +0.005 A 
BRANCH  33  36
ATOM     36  C   UNL     1      11.803   7.711  21.257  0.00  0.00    -0.013 C 
ATOM     37  C   UNL     1      11.263   8.545  22.460  0.00  0.00    +0.015 C 
ATOM     38  C   UNL     1      11.310   6.242  21.446  0.00  0.00    +0.015 C 
ATOM     39  C   UNL     1      11.037   8.248  20.003  0.00  0.00    +0.015 C 
ENDBRANCH  33  36
ENDBRANCH  27  29
BRANCH  14   2
ATOM      2  O   UNL     1      27.792   4.422  19.581  0.00  0.00    -0.391 OA
ATOM     40  H   UNL     1      27.740   3.787  20.315  0.00  0.00    +0.210 HD
ENDBRANCH  14   2
BRANCH  11  19
ATOM     19  C   UNL     1      25.766   3.562  21.374  0.00  0.00    +0.165 C 
BRANCH  19   3
ATOM      3  O   UNL     1      26.147   2.255  21.011  0.00  0.00    -0.394 OA
ATOM     41  H   UNL     1      26.192   2.224  20.040  0.00  0.00    +0.209 HD
ENDBRANCH  19   3
ENDBRANCH  11  19
BRANCH  12  22
ATOM     22  C   UNL     1      22.970   8.891  21.298  0.00  0.00    +0.106 C 
BRANCH  22  23
ATOM      4  O   UNL     1      23.233  10.145  19.273  0.00  0.00    -0.276 OA
ATOM      7  N   UNL     1      21.715  10.962  20.824  0.00  0.00    -0.301 N 
ATOM     23  C   UNL     1      22.665  10.046  20.364  0.00  0.00    +0.216 C 
ATOM     26  C   UNL     1      21.057  10.824  22.118  0.00  0.00    +0.132 C 
BRANCH   7  25
ATOM     25  C   UNL     1      21.308  12.129  20.043  0.00  0.00    +0.134 C 
BRANCH  25  28
ATOM     28  C   UNL     1      19.959  11.877  19.456  0.00  0.00    -0.016 C 
ATOM     30  C   UNL     1      18.960  12.765  19.476  0.00  0.00    +0.005 C 
ENDBRANCH  25  28
ENDBRANCH   7  25
ENDBRANCH  22  23
ENDBRANCH  12  22
TORSDOF 9
ENDMDL
MODEL 9
REMARK VINA RESULT:      -5.9      4.381      9.833
REMARK  Name = 11882989
REMARK  15 active torsions:
REMARK  status: ('A' for Active; 'I' for Inactive)
REMARK    1  A    between atoms: O_2  and  C_14
REMARK    2  A    between atoms: O_3  and  C_19
REMARK    3  A    between atoms: N_7  and  C_25
REMARK    4  A    between atoms: N_7  and  C_26
REMARK    5  A    between atoms: C_9  and  C_17
REMARK    6  A    between atoms: C_11  and  C_19
REMARK    7  A    between atoms: C_11  and  C_20
REMARK    8  A    between atoms: C_12  and  C_22
REMARK    9  A    between atoms: C_22  and  C_23
REMARK   10  A    between atoms: C_25  and  C_28
REMARK   11  A    between atoms: C_27  and  C_29
REMARK   12  A    between atoms: C_33  and  C_36
REMARK   13  A    between atoms: C_36  and  C_37
REMARK   14  A    between atoms: C_36  and  C_38
REMARK   15  A    between atoms: C_36  and  C_39
REMARK                            x       y       z     vdW  Elec       q    Type
REMARK                         _______ _______ _______ _____ _____    ______ ____
ROOT
ATOM      1  S   UNL     1      -4.331  -9.890   9.472  0.00  0.00    -0.057 S 
ATOM      5  O   UNL     1      -8.876  -9.118   8.826  0.00  0.00    -0.270 OA
ATOM      6  N   UNL     1      -6.646  -9.848  10.627  0.00  0.00    -0.229 NA
ATOM      8  N   UNL     1      -6.591  -9.303   8.279  0.00  0.00    -0.261 N 
ATOM      9  C   UNL     1      -4.947 -11.243  13.795  0.00  0.00    -0.019 C 
ATOM     10  C   UNL     1      -3.568 -10.517  13.470  0.00  0.00    +0.011 C 
ATOM     11  C   UNL     1      -2.352 -10.828  14.426  0.00  0.00    +0.021 C 
ATOM     12  C   UNL     1      -6.107 -10.472  13.011  0.00  0.00    +0.054 C 
ATOM     13  C   UNL     1      -5.236 -11.144  15.315  0.00  0.00    +0.010 C 
ATOM     14  C   UNL     1      -2.825 -10.731  15.904  0.00  0.00    +0.123 C 
ATOM     15  C   UNL     1      -3.216 -10.615  11.957  0.00  0.00    +0.049 C 
ATOM     16  C   UNL     1      -4.068 -11.566  16.194  0.00  0.00    +0.032 C 
ATOM     17  C   UNL     1      -4.953 -12.736  13.383  0.00  0.00    +0.012 C 
ATOM     18  C   UNL     1      -5.713 -10.211  11.580  0.00  0.00    +0.058 A 
ATOM     20  C   UNL     1      -1.255  -9.747  14.220  0.00  0.00    +0.016 C 
ATOM     21  C   UNL     1      -4.407 -10.262  11.132  0.00  0.00    +0.015 A 
ATOM     24  C   UNL     1      -6.033  -9.662   9.478  0.00  0.00    +0.165 A 
ATOM     27  C   UNL     1      -7.951  -9.057   8.025  0.00  0.00    +0.250 C 
ATOM     42  H   UNL     1      -5.911  -9.176   7.537  0.00  0.00    +0.157 HD
ENDROOT
BRANCH  27  29
ATOM     29  C   UNL     1      -8.274  -8.651   6.632  0.00  0.00    +0.037 A 
ATOM     31  C   UNL     1      -9.506  -8.063   6.345  0.00  0.00    +0.013 A 
ATOM     32  C   UNL     1      -7.346  -8.859   5.611  0.00  0.00    +0.013 A 
ATOM     33  C   UNL     1      -8.882  -7.891   4.017  0.00  0.00    -0.042 A 
ATOM     34  C   UNL     1      -9.810  -7.683   5.037  0.00  0.00    +0.005 A 
ATOM     35  C   UNL     1      -7.650  -8.479   4.304  0.00  0.00    +0.005 A 
BRANCH  33  36
ATOM     36  C   UNL     1      -9.207  -7.483   2.620  0.00  0.00    -0.013 C 
ATOM     37  C   UNL     1      -8.060  -7.873   1.636  0.00  0.00    +0.015 C 
ATOM     38  C   UNL     1      -9.413  -5.940   2.515  0.00  0.00    +0.015 C 
ATOM     39  C   UNL     1     -10.504  -8.119   2.018  0.00  0.00    +0.015 C 
ENDBRANCH  33  36
ENDBRANCH  27  29
BRANCH  14   2
ATOM      2  O   UNL     1      -1.784 -11.133  16.793  0.00  0.00    -0.391 OA
ATOM     40  H   UNL     1      -0.948 -10.778  16.449  0.00  0.00    +0.210 HD
ENDBRANCH  14   2
BRANCH  11  19
ATOM     19  C   UNL     1      -1.657 -12.182  14.158  0.00  0.00    +0.165 C 
BRANCH  19   3
ATOM      3  O   UNL     1      -2.247 -13.144  15.002  0.00  0.00    -0.394 OA
ATOM     41  H   UNL     1      -2.206 -13.999  14.541  0.00  0.00    +0.209 HD
ENDBRANCH  19   3
ENDBRANCH  11  19
BRANCH  12  22
ATOM     22  C   UNL     1      -7.488 -11.134  13.101  0.00  0.00    +0.106 C 
BRANCH  22  23
ATOM      4  O   UNL     1      -8.723  -9.223  13.852  0.00  0.00    -0.276 OA
ATOM      7  N   UNL     1      -8.881 -11.146  15.138  0.00  0.00    -0.301 N 
ATOM     23  C   UNL     1      -8.415 -10.401  14.050  0.00  0.00    +0.216 C 
ATOM     26  C   UNL     1      -8.503 -12.538  15.351  0.00  0.00    +0.132 C 
BRANCH   7  25
ATOM     25  C   UNL     1      -9.783 -10.587  16.143  0.00  0.00    +0.134 C 
BRANCH  25  28
ATOM     28  C   UNL     1      -9.007 -10.288  17.382  0.00  0.00    -0.016 C 
ATOM     30  C   UNL     1      -8.027  -9.380  17.448  0.00  0.00    +0.005 C 
ENDBRANCH  25  28
ENDBRANCH   7  25
ENDBRANCH  22  23
ENDBRANCH  12  22
TORSDOF 9
ENDMDL
MODEL 10
REMARK VINA RESULT:      -5.9     31.780     34.915
REMARK  Name = 11882989
REMARK  15 active torsions:
REMARK  status: ('A' for Active; 'I' for Inactive)
REMARK    1  A    between atoms: O_2  and  C_14
REMARK    2  A    between atoms: O_3  and  C_19
REMARK    3  A    between atoms: N_7  and  C_25
REMARK    4  A    between atoms: N_7  and  C_26
REMARK    5  A    between atoms: C_9  and  C_17
REMARK    6  A    between atoms: C_11  and  C_19
REMARK    7  A    between atoms: C_11  and  C_20
REMARK    8  A    between atoms: C_12  and  C_22
REMARK    9  A    between atoms: C_22  and  C_23
REMARK   10  A    between atoms: C_25  and  C_28
REMARK   11  A    between atoms: C_27  and  C_29
REMARK   12  A    between atoms: C_33  and  C_36
REMARK   13  A    between atoms: C_36  and  C_37
REMARK   14  A    between atoms: C_36  and  C_38
REMARK   15  A    between atoms: C_36  and  C_39
REMARK                            x       y       z     vdW  Elec       q    Type
REMARK                         _______ _______ _______ _____ _____    ______ ____
ROOT
ATOM      1  S   UNL     1      20.293   8.508  23.864  0.00  0.00    -0.057 S 
ATOM      5  O   UNL     1      18.619   5.827  20.447  0.00  0.00    -0.270 OA
ATOM      6  N   UNL     1      20.710   6.371  22.466  0.00  0.00    -0.229 NA
ATOM      8  N   UNL     1      18.716   7.630  21.962  0.00  0.00    -0.261 N 
ATOM      9  C   UNL     1      24.135   6.056  24.209  0.00  0.00    -0.019 C 
ATOM     10  C   UNL     1      23.603   6.730  25.550  0.00  0.00    +0.011 C 
ATOM     11  C   UNL     1      24.664   7.000  26.686  0.00  0.00    +0.021 C 
ATOM     12  C   UNL     1      22.874   5.484  23.411  0.00  0.00    +0.054 C 
ATOM     13  C   UNL     1      25.067   4.868  24.564  0.00  0.00    +0.010 C 
ATOM     14  C   UNL     1      25.541   5.731  26.880  0.00  0.00    +0.123 C 
ATOM     15  C   UNL     1      22.684   7.950  25.247  0.00  0.00    +0.049 C 
ATOM     16  C   UNL     1      26.147   5.214  25.579  0.00  0.00    +0.032 C 
ATOM     17  C   UNL     1      24.911   7.045  23.305  0.00  0.00    +0.012 C 
ATOM     18  C   UNL     1      21.763   6.501  23.352  0.00  0.00    +0.058 A 
ATOM     20  C   UNL     1      23.919   7.257  28.025  0.00  0.00    +0.016 C 
ATOM     21  C   UNL     1      21.688   7.590  24.198  0.00  0.00    +0.015 A 
ATOM     24  C   UNL     1      19.879   7.376  22.641  0.00  0.00    +0.165 A 
ATOM     27  C   UNL     1      18.163   6.858  20.926  0.00  0.00    +0.250 C 
ATOM     42  H   UNL     1      18.218   8.445  22.303  0.00  0.00    +0.157 HD
ENDROOT
BRANCH  27  29
ATOM     29  C   UNL     1      16.868   7.352  20.388  0.00  0.00    +0.037 A 
ATOM     31  C   UNL     1      16.486   8.677  20.598  0.00  0.00    +0.013 A 
ATOM     32  C   UNL     1      16.035   6.490  19.673  0.00  0.00    +0.013 A 
ATOM     33  C   UNL     1      14.438   8.279  19.379  0.00  0.00    -0.042 A 
ATOM     34  C   UNL     1      15.270   9.141  20.093  0.00  0.00    +0.005 A 
ATOM     35  C   UNL     1      14.820   6.954  19.170  0.00  0.00    +0.005 A 
BRANCH  33  36
ATOM     36  C   UNL     1      13.139   8.775  18.839  0.00  0.00    -0.013 C 
ATOM     37  C   UNL     1      13.325  10.115  18.063  0.00  0.00    +0.015 C 
ATOM     38  C   UNL     1      12.111   9.033  19.984  0.00  0.00    +0.015 C 
ATOM     39  C   UNL     1      12.415   7.813  17.839  0.00  0.00    +0.015 C 
ENDBRANCH  33  36
ENDBRANCH  27  29
BRANCH  14   2
ATOM      2  O   UNL     1      26.594   5.985  27.808  0.00  0.00    -0.391 OA
ATOM     40  H   UNL     1      27.437   5.857  27.341  0.00  0.00    +0.210 HD
ENDBRANCH  14   2
BRANCH  11  19
ATOM     19  C   UNL     1      25.545   8.249  26.455  0.00  0.00    +0.165 C 
BRANCH  19   3
ATOM      3  O   UNL     1      25.818   8.822  27.713  0.00  0.00    -0.394 OA
ATOM     41  H   UNL     1      26.765   9.042  27.733  0.00  0.00    +0.209 HD
ENDBRANCH  19   3
ENDBRANCH  11  19
BRANCH  12  22
ATOM     22  C   UNL     1      23.199   4.927  22.018  0.00  0.00    +0.106 C 
BRANCH  22  23
ATOM      4  O   UNL     1      22.144   2.834  22.518  0.00  0.00    -0.276 OA
ATOM      7  N   UNL     1      24.085   2.754  21.252  0.00  0.00    -0.301 N 
ATOM     23  C   UNL     1      23.080   3.416  21.963  0.00  0.00    +0.216 C 
ATOM     26  C   UNL     1      25.182   3.465  20.604  0.00  0.00    +0.132 C 
BRANCH   7  25
ATOM     25  C   UNL     1      24.114   1.301  21.103  0.00  0.00    +0.134 C 
BRANCH  25  28
ATOM     28  C   UNL     1      25.181   0.741  21.985  0.00  0.00    -0.016 C 
ATOM     30  C   UNL     1      25.049   0.581  23.306  0.00  0.00    +0.005 C 
ENDBRANCH  25  28
ENDBRANCH   7  25
ENDBRANCH  22  23
ENDBRANCH  12  22
TORSDOF 9
ENDMDL
