MODEL 1
REMARK VINA RESULT:      -8.3      0.000      0.000
REMARK  Name = 11886183
REMARK  5 active torsions:
REMARK  status: ('A' for Active; 'I' for Inactive)
REMARK    1  A    between atoms: O_3  and  C_17
REMARK    2  A    between atoms: O_3  and  C_20
REMARK    3  A    between atoms: N_5  and  C_13
REMARK    4  A    between atoms: N_6  and  C_14
REMARK    5  A    between atoms: N_10  and  C_19
REMARK                            x       y       z     vdW  Elec       q    Type
REMARK                         _______ _______ _______ _____ _____    ______ ____
ROOT
ATOM      1  O   UNL     1      13.933   8.493  19.852  0.00  0.00    -0.370 OA
ATOM      2  O   UNL     1      11.275   6.997  20.619  0.00  0.00    -0.370 OA
ATOM     11  C   UNL     1      11.601   8.030  19.672  0.00  0.00    +0.176 C 
ATOM     12  C   UNL     1      12.644   8.919  20.321  0.00  0.00    +0.172 C 
ATOM     13  C   UNL     1      12.303   7.426  18.471  0.00  0.00    +0.171 C 
ATOM     14  C   UNL     1      12.505   8.640  21.800  0.00  0.00    +0.131 C 
ATOM     15  C   UNL     1      13.771   7.447  18.885  0.00  0.00    +0.190 C 
ATOM     16  C   UNL     1      12.043   7.194  21.814  0.00  0.00    +0.185 C 
ENDROOT
BRANCH  14   6
ATOM      4  O   UNL     1      12.965  11.256  22.874  0.00  0.00    -0.252 OA
ATOM      6  N   UNL     1      11.525   9.508  22.407  0.00  0.00    -0.292 N 
ATOM     10  N   UNL     1      10.690  11.385  23.434  0.00  0.00    -0.269 N 
ATOM     18  C   UNL     1      11.834  10.779  22.909  0.00  0.00    +0.304 C 
ATOM     31  H   UNL     1      10.554   9.212  22.411  0.00  0.00    +0.151 HD
ATOM     32  H   UNL     1       9.827  10.849  23.385  0.00  0.00    +0.156 HD
BRANCH  10  19
ATOM     19  C   UNL     1      10.581  12.662  24.031  0.00  0.00    +0.035 A 
ATOM     21  C   UNL     1      10.296  13.761  23.237  0.00  0.00    +0.023 A 
ATOM     22  C   UNL     1      10.759  12.789  25.399  0.00  0.00    +0.023 A 
ATOM     25  C   UNL     1      10.188  15.021  23.825  0.00  0.00    +0.002 A 
ATOM     26  C   UNL     1      10.651  14.048  25.989  0.00  0.00    +0.002 A 
ATOM     29  C   UNL     1      10.365  15.165  25.202  0.00  0.00    +0.000 A 
ENDBRANCH  10  19
ENDBRANCH  14   6
BRANCH  13   5
ATOM      5  N   UNL     1      12.001   8.139  17.226  0.00  0.00    -0.187 N 
ATOM      7  N   UNL     1      10.776   8.101  16.694  0.00  0.00    -0.041 NA
ATOM      8  N   UNL     1      12.136   9.341  15.436  0.00  0.00    -0.071 NA
ATOM      9  N   UNL     1      10.863   8.840  15.596  0.00  0.00    -0.020 NA
ATOM     17  C   UNL     1      12.824   8.893  16.460  0.00  0.00    +0.342 A 
BRANCH  17   3
ATOM      3  O   UNL     1      14.098   9.124  16.716  0.00  0.00    -0.423 OA
BRANCH   3  20
ATOM     20  C   UNL     1      14.651  10.397  16.670  0.00  0.00    +0.132 A 
ATOM     23  C   UNL     1      14.577  11.200  17.791  0.00  0.00    +0.046 A 
ATOM     24  C   UNL     1      15.258  10.821  15.504  0.00  0.00    +0.046 A 
ATOM     27  C   UNL     1      15.133  12.479  17.744  0.00  0.00    +0.004 A 
ATOM     28  C   UNL     1      15.813  12.099  15.457  0.00  0.00    +0.004 A 
ATOM     30  C   UNL     1      15.750  12.929  16.576  0.00  0.00    +0.000 A 
ENDBRANCH   3  20
ENDBRANCH  17   3
ENDBRANCH  13   5
TORSDOF 5
ENDMDL
MODEL 2
REMARK VINA RESULT:      -7.6     27.899     30.482
REMARK  Name = 11886183
REMARK  5 active torsions:
REMARK  status: ('A' for Active; 'I' for Inactive)
REMARK    1  A    between atoms: O_3  and  C_17
REMARK    2  A    between atoms: O_3  and  C_20
REMARK    3  A    between atoms: N_5  and  C_13
REMARK    4  A    between atoms: N_6  and  C_14
REMARK    5  A    between atoms: N_10  and  C_19
REMARK                            x       y       z     vdW  Elec       q    Type
REMARK                         _______ _______ _______ _____ _____    ______ ____
ROOT
ATOM      1  O   UNL     1     -17.063   3.327  27.914  0.00  0.00    -0.370 OA
ATOM      2  O   UNL     1     -17.134   0.850  25.976  0.00  0.00    -0.370 OA
ATOM     11  C   UNL     1     -16.144   1.390  26.871  0.00  0.00    +0.176 C 
ATOM     12  C   UNL     1     -16.257   2.901  26.804  0.00  0.00    +0.172 C 
ATOM     13  C   UNL     1     -16.497   1.040  28.303  0.00  0.00    +0.171 C 
ATOM     14  C   UNL     1     -16.977   3.165  25.501  0.00  0.00    +0.131 C 
ATOM     15  C   UNL     1     -17.400   2.194  28.726  0.00  0.00    +0.190 C 
ATOM     16  C   UNL     1     -17.846   1.930  25.356  0.00  0.00    +0.185 C 
ENDROOT
BRANCH  14   6
ATOM      4  O   UNL     1     -16.146   5.584  24.210  0.00  0.00    -0.252 OA
ATOM      6  N   UNL     1     -16.046   3.282  24.404  0.00  0.00    -0.292 N 
ATOM     10  N   UNL     1     -14.777   4.311  22.791  0.00  0.00    -0.269 N 
ATOM     18  C   UNL     1     -15.692   4.508  23.828  0.00  0.00    +0.304 C 
ATOM     31  H   UNL     1     -15.577   2.443  24.078  0.00  0.00    +0.151 HD
ATOM     32  H   UNL     1     -14.503   3.350  22.601  0.00  0.00    +0.156 HD
BRANCH  10  19
ATOM     19  C   UNL     1     -14.178   5.289  21.964  0.00  0.00    +0.035 A 
ATOM     21  C   UNL     1     -12.798   5.413  21.949  0.00  0.00    +0.023 A 
ATOM     22  C   UNL     1     -14.983   6.104  21.184  0.00  0.00    +0.023 A 
ATOM     25  C   UNL     1     -12.207   6.378  21.133  0.00  0.00    +0.002 A 
ATOM     26  C   UNL     1     -14.393   7.069  20.368  0.00  0.00    +0.002 A 
ATOM     29  C   UNL     1     -13.004   7.206  20.342  0.00  0.00    +0.000 A 
ENDBRANCH  10  19
ENDBRANCH  14   6
BRANCH  13   5
ATOM      5  N   UNL     1     -15.312   0.841  29.142  0.00  0.00    -0.187 N 
ATOM      7  N   UNL     1     -14.722  -0.355  29.224  0.00  0.00    -0.041 NA
ATOM      8  N   UNL     1     -13.650   1.133  30.492  0.00  0.00    -0.071 NA
ATOM      9  N   UNL     1     -13.703  -0.171  30.053  0.00  0.00    -0.020 NA
ATOM     17  C   UNL     1     -14.658   1.743  29.912  0.00  0.00    +0.342 A 
BRANCH  17   3
ATOM      3  O   UNL     1     -14.994   3.012  30.045  0.00  0.00    -0.423 OA
BRANCH   3  20
ATOM     20  C   UNL     1     -15.125   3.624  31.284  0.00  0.00    +0.132 A 
ATOM     23  C   UNL     1     -14.077   4.381  31.772  0.00  0.00    +0.046 A 
ATOM     24  C   UNL     1     -16.300   3.459  31.992  0.00  0.00    +0.046 A 
ATOM     27  C   UNL     1     -14.209   4.996  33.017  0.00  0.00    +0.004 A 
ATOM     28  C   UNL     1     -16.432   4.074  33.237  0.00  0.00    +0.004 A 
ATOM     30  C   UNL     1     -15.387   4.842  33.749  0.00  0.00    +0.000 A 
ENDBRANCH   3  20
ENDBRANCH  17   3
ENDBRANCH  13   5
TORSDOF 5
ENDMDL
MODEL 3
REMARK VINA RESULT:      -7.6     26.710     28.311
REMARK  Name = 11886183
REMARK  5 active torsions:
REMARK  status: ('A' for Active; 'I' for Inactive)
REMARK    1  A    between atoms: O_3  and  C_17
REMARK    2  A    between atoms: O_3  and  C_20
REMARK    3  A    between atoms: N_5  and  C_13
REMARK    4  A    between atoms: N_6  and  C_14
REMARK    5  A    between atoms: N_10  and  C_19
REMARK                            x       y       z     vdW  Elec       q    Type
REMARK                         _______ _______ _______ _____ _____    ______ ____
ROOT
ATOM      1  O   UNL     1      -4.919 -10.473  18.001  0.00  0.00    -0.370 OA
ATOM      2  O   UNL     1      -6.459 -11.720  15.558  0.00  0.00    -0.370 OA
ATOM     11  C   UNL     1      -5.351 -10.810  15.681  0.00  0.00    +0.176 C 
ATOM     12  C   UNL     1      -5.629  -9.924  16.880  0.00  0.00    +0.172 C 
ATOM     13  C   UNL     1      -4.094 -11.574  16.049  0.00  0.00    +0.171 C 
ATOM     14  C   UNL     1      -7.120 -10.044  17.094  0.00  0.00    +0.131 C 
ATOM     15  C   UNL     1      -4.143 -11.601  17.573  0.00  0.00    +0.190 C 
ATOM     16  C   UNL     1      -7.407 -11.449  16.599  0.00  0.00    +0.185 C 
ENDROOT
BRANCH  14   6
ATOM      4  O   UNL     1      -9.962  -9.689  16.992  0.00  0.00    -0.252 OA
ATOM      6  N   UNL     1      -7.840  -9.060  16.321  0.00  0.00    -0.292 N 
ATOM     10  N   UNL     1      -9.648  -7.915  15.488  0.00  0.00    -0.269 N 
ATOM     18  C   UNL     1      -9.236  -8.953  16.328  0.00  0.00    +0.304 C 
ATOM     31  H   UNL     1      -7.307  -8.372  15.799  0.00  0.00    +0.151 HD
ATOM     32  H   UNL     1      -8.915  -7.400  15.007  0.00  0.00    +0.156 HD
BRANCH  10  19
ATOM     19  C   UNL     1     -10.969  -7.486  15.222  0.00  0.00    +0.035 A 
ATOM     21  C   UNL     1     -11.548  -6.524  16.033  0.00  0.00    +0.023 A 
ATOM     22  C   UNL     1     -11.658  -8.036  14.152  0.00  0.00    +0.023 A 
ATOM     25  C   UNL     1     -12.851  -6.101  15.770  0.00  0.00    +0.002 A 
ATOM     26  C   UNL     1     -12.960  -7.613  13.888  0.00  0.00    +0.002 A 
ATOM     29  C   UNL     1     -13.558  -6.645  14.697  0.00  0.00    +0.000 A 
ENDBRANCH  10  19
ENDBRANCH  14   6
BRANCH  13   5
ATOM      5  N   UNL     1      -2.884 -10.975  15.479  0.00  0.00    -0.187 N 
ATOM      7  N   UNL     1      -1.930 -10.471  16.267  0.00  0.00    -0.041 NA
ATOM      8  N   UNL     1      -1.372 -10.241  14.121  0.00  0.00    -0.071 NA
ATOM      9  N   UNL     1      -1.004 -10.022  15.430  0.00  0.00    -0.020 NA
ATOM     17  C   UNL     1      -2.542 -10.834  14.176  0.00  0.00    +0.342 A 
BRANCH  17   3
ATOM      3  O   UNL     1      -3.274 -11.230  13.153  0.00  0.00    -0.423 OA
BRANCH   3  20
ATOM     20  C   UNL     1      -3.671 -10.368  12.139  0.00  0.00    +0.132 A 
ATOM     23  C   UNL     1      -2.780 -10.070  11.127  0.00  0.00    +0.046 A 
ATOM     24  C   UNL     1      -4.945  -9.835  12.173  0.00  0.00    +0.046 A 
ATOM     27  C   UNL     1      -3.179  -9.204  10.108  0.00  0.00    +0.004 A 
ATOM     28  C   UNL     1      -5.344  -8.969  11.156  0.00  0.00    +0.004 A 
ATOM     30  C   UNL     1      -4.461  -8.653  10.124  0.00  0.00    +0.000 A 
ENDBRANCH   3  20
ENDBRANCH  17   3
ENDBRANCH  13   5
TORSDOF 5
ENDMDL
MODEL 4
REMARK VINA RESULT:      -7.3      4.761      7.645
REMARK  Name = 11886183
REMARK  5 active torsions:
REMARK  status: ('A' for Active; 'I' for Inactive)
REMARK    1  A    between atoms: O_3  and  C_17
REMARK    2  A    between atoms: O_3  and  C_20
REMARK    3  A    between atoms: N_5  and  C_13
REMARK    4  A    between atoms: N_6  and  C_14
REMARK    5  A    between atoms: N_10  and  C_19
REMARK                            x       y       z     vdW  Elec       q    Type
REMARK                         _______ _______ _______ _____ _____    ______ ____
ROOT
ATOM      1  O   UNL     1      13.563   6.925  21.042  0.00  0.00    -0.370 OA
ATOM      2  O   UNL     1      15.538   9.298  20.438  0.00  0.00    -0.370 OA
ATOM     11  C   UNL     1      14.749   8.421  19.614  0.00  0.00    +0.176 C 
ATOM     12  C   UNL     1      14.767   7.054  20.268  0.00  0.00    +0.172 C 
ATOM     13  C   UNL     1      13.294   8.848  19.651  0.00  0.00    +0.171 C 
ATOM     14  C   UNL     1      15.973   7.091  21.178  0.00  0.00    +0.131 C 
ATOM     15  C   UNL     1      12.745   8.088  20.854  0.00  0.00    +0.190 C 
ATOM     16  C   UNL     1      16.049   8.558  21.556  0.00  0.00    +0.185 C 
ENDROOT
BRANCH  14   6
ATOM      4  O   UNL     1      18.571   6.693  22.319  0.00  0.00    -0.252 OA
ATOM      6  N   UNL     1      17.165   6.668  20.483  0.00  0.00    -0.292 N 
ATOM     10  N   UNL     1      19.368   6.083  20.198  0.00  0.00    -0.269 N 
ATOM     18  C   UNL     1      18.402   6.496  21.119  0.00  0.00    +0.304 C 
ATOM     31  H   UNL     1      17.090   6.420  19.502  0.00  0.00    +0.151 HD
ATOM     32  H   UNL     1      19.061   5.968  19.236  0.00  0.00    +0.156 HD
BRANCH  10  19
ATOM     19  C   UNL     1      20.733   5.802  20.439  0.00  0.00    +0.035 A 
ATOM     21  C   UNL     1      21.125   4.496  20.684  0.00  0.00    +0.023 A 
ATOM     22  C   UNL     1      21.652   6.839  20.423  0.00  0.00    +0.023 A 
ATOM     25  C   UNL     1      22.471   4.219  20.921  0.00  0.00    +0.002 A 
ATOM     26  C   UNL     1      22.998   6.563  20.660  0.00  0.00    +0.002 A 
ATOM     29  C   UNL     1      23.409   5.253  20.909  0.00  0.00    +0.000 A 
ENDBRANCH  10  19
ENDBRANCH  14   6
BRANCH  13   5
ATOM      5  N   UNL     1      12.600   8.592  18.386  0.00  0.00    -0.187 N 
ATOM      7  N   UNL     1      11.354   8.110  18.372  0.00  0.00    -0.041 NA
ATOM      8  N   UNL     1      12.096   8.415  16.292  0.00  0.00    -0.071 NA
ATOM      9  N   UNL     1      11.049   8.005  17.086  0.00  0.00    -0.020 NA
ATOM     17  C   UNL     1      13.048   8.776  17.122  0.00  0.00    +0.342 A 
BRANCH  17   3
ATOM      3  O   UNL     1      14.241   9.239  16.800  0.00  0.00    -0.423 OA
BRANCH   3  20
ATOM     20  C   UNL     1      14.441  10.533  16.337  0.00  0.00    +0.132 A 
ATOM     23  C   UNL     1      14.895  10.720  15.046  0.00  0.00    +0.046 A 
ATOM     24  C   UNL     1      14.181  11.594  17.182  0.00  0.00    +0.046 A 
ATOM     27  C   UNL     1      15.096  12.020  14.582  0.00  0.00    +0.004 A 
ATOM     28  C   UNL     1      14.381  12.893  16.718  0.00  0.00    +0.004 A 
ATOM     30  C   UNL     1      14.840  13.107  15.418  0.00  0.00    +0.000 A 
ENDBRANCH   3  20
ENDBRANCH  17   3
ENDBRANCH  13   5
TORSDOF 5
ENDMDL
MODEL 5
REMARK VINA RESULT:      -7.2     27.476     29.966
REMARK  Name = 11886183
REMARK  5 active torsions:
REMARK  status: ('A' for Active; 'I' for Inactive)
REMARK    1  A    between atoms: O_3  and  C_17
REMARK    2  A    between atoms: O_3  and  C_20
REMARK    3  A    between atoms: N_5  and  C_13
REMARK    4  A    between atoms: N_6  and  C_14
REMARK    5  A    between atoms: N_10  and  C_19
REMARK                            x       y       z     vdW  Elec       q    Type
REMARK                         _______ _______ _______ _____ _____    ______ ____
ROOT
ATOM      1  O   UNL     1     -18.193   4.719  24.700  0.00  0.00    -0.370 OA
ATOM      2  O   UNL     1     -16.092   2.379  24.790  0.00  0.00    -0.370 OA
ATOM     11  C   UNL     1     -16.247   3.610  25.519  0.00  0.00    +0.176 C 
ATOM     12  C   UNL     1     -16.767   4.647  24.542  0.00  0.00    +0.172 C 
ATOM     13  C   UNL     1     -17.350   3.465  26.549  0.00  0.00    +0.171 C 
ATOM     14  C   UNL     1     -16.418   4.087  23.182  0.00  0.00    +0.131 C 
ATOM     15  C   UNL     1     -18.601   3.856  25.770  0.00  0.00    +0.190 C 
ATOM     16  C   UNL     1     -16.476   2.590  23.424  0.00  0.00    +0.185 C 
ENDROOT
BRANCH  14   6
ATOM      4  O   UNL     1     -15.719   6.541  21.879  0.00  0.00    -0.252 OA
ATOM      6  N   UNL     1     -15.098   4.500  22.770  0.00  0.00    -0.292 N 
ATOM     10  N   UNL     1     -13.477   5.847  21.856  0.00  0.00    -0.269 N 
ATOM     18  C   UNL     1     -14.840   5.722  22.136  0.00  0.00    +0.304 C 
ATOM     31  H   UNL     1     -14.310   3.906  23.008  0.00  0.00    +0.151 HD
ATOM     32  H   UNL     1     -12.882   5.071  22.135  0.00  0.00    +0.156 HD
BRANCH  10  19
ATOM     19  C   UNL     1     -12.815   6.926  21.227  0.00  0.00    +0.035 A 
ATOM     21  C   UNL     1     -11.894   6.667  20.226  0.00  0.00    +0.023 A 
ATOM     22  C   UNL     1     -13.103   8.223  21.623  0.00  0.00    +0.023 A 
ATOM     25  C   UNL     1     -11.241   7.732  19.604  0.00  0.00    +0.002 A 
ATOM     26  C   UNL     1     -12.451   9.288  21.002  0.00  0.00    +0.002 A 
ATOM     29  C   UNL     1     -11.520   9.043  19.992  0.00  0.00    +0.000 A 
ENDBRANCH  10  19
ENDBRANCH  14   6
BRANCH  13   5
ATOM      5  N   UNL     1     -17.099   4.256  27.757  0.00  0.00    -0.187 N 
ATOM      7  N   UNL     1     -17.916   5.255  28.106  0.00  0.00    -0.041 NA
ATOM      8  N   UNL     1     -16.256   5.052  29.581  0.00  0.00    -0.071 NA
ATOM      9  N   UNL     1     -17.395   5.739  29.226  0.00  0.00    -0.020 NA
ATOM     17  C   UNL     1     -16.092   4.135  28.655  0.00  0.00    +0.342 A 
BRANCH  17   3
ATOM      3  O   UNL     1     -15.122   3.243  28.591  0.00  0.00    -0.423 OA
BRANCH   3  20
ATOM     20  C   UNL     1     -15.004   2.201  29.500  0.00  0.00    +0.132 A 
ATOM     23  C   UNL     1     -15.880   1.136  29.415  0.00  0.00    +0.046 A 
ATOM     24  C   UNL     1     -14.015   2.259  30.463  0.00  0.00    +0.046 A 
ATOM     27  C   UNL     1     -15.761   0.088  30.329  0.00  0.00    +0.004 A 
ATOM     28  C   UNL     1     -13.896   1.212  31.376  0.00  0.00    +0.004 A 
ATOM     30  C   UNL     1     -14.770   0.127  31.309  0.00  0.00    +0.000 A 
ENDBRANCH   3  20
ENDBRANCH  17   3
ENDBRANCH  13   5
TORSDOF 5
ENDMDL
MODEL 6
REMARK VINA RESULT:      -7.1     26.484     28.415
REMARK  Name = 11886183
REMARK  5 active torsions:
REMARK  status: ('A' for Active; 'I' for Inactive)
REMARK    1  A    between atoms: O_3  and  C_17
REMARK    2  A    between atoms: O_3  and  C_20
REMARK    3  A    between atoms: N_5  and  C_13
REMARK    4  A    between atoms: N_6  and  C_14
REMARK    5  A    between atoms: N_10  and  C_19
REMARK                            x       y       z     vdW  Elec       q    Type
REMARK                         _______ _______ _______ _____ _____    ______ ____
ROOT
ATOM      1  O   UNL     1     -15.780   4.340  22.116  0.00  0.00    -0.370 OA
ATOM      2  O   UNL     1     -16.718   6.778  23.870  0.00  0.00    -0.370 OA
ATOM     11  C   UNL     1     -15.440   6.333  23.379  0.00  0.00    +0.176 C 
ATOM     12  C   UNL     1     -15.443   4.818  23.428  0.00  0.00    +0.172 C 
ATOM     13  C   UNL     1     -15.306   6.671  21.907  0.00  0.00    +0.171 C 
ATOM     14  C   UNL     1     -16.543   4.478  24.408  0.00  0.00    +0.131 C 
ATOM     15  C   UNL     1     -15.910   5.451  21.219  0.00  0.00    +0.190 C 
ATOM     16  C   UNL     1     -17.508   5.635  24.226  0.00  0.00    +0.185 C 
ENDROOT
BRANCH  14   6
ATOM      4  O   UNL     1     -16.470   2.182  26.120  0.00  0.00    -0.252 OA
ATOM      6  N   UNL     1     -16.040   4.425  25.760  0.00  0.00    -0.292 N 
ATOM     10  N   UNL     1     -15.495   3.508  27.794  0.00  0.00    -0.269 N 
ATOM     18  C   UNL     1     -16.040   3.257  26.532  0.00  0.00    +0.304 C 
ATOM     31  H   UNL     1     -15.606   5.258  26.147  0.00  0.00    +0.151 HD
ATOM     32  H   UNL     1     -15.187   4.459  27.976  0.00  0.00    +0.156 HD
BRANCH  10  19
ATOM     19  C   UNL     1     -15.318   2.596  28.860  0.00  0.00    +0.035 A 
ATOM     21  C   UNL     1     -16.084   1.443  28.902  0.00  0.00    +0.023 A 
ATOM     22  C   UNL     1     -14.380   2.873  29.842  0.00  0.00    +0.023 A 
ATOM     25  C   UNL     1     -15.909   0.543  29.953  0.00  0.00    +0.002 A 
ATOM     26  C   UNL     1     -14.204   1.974  30.893  0.00  0.00    +0.002 A 
ATOM     29  C   UNL     1     -14.969   0.808  30.949  0.00  0.00    +0.000 A 
ENDBRANCH  10  19
ENDBRANCH  14   6
BRANCH  13   5
ATOM      5  N   UNL     1     -13.925   6.979  21.524  0.00  0.00    -0.187 N 
ATOM      7  N   UNL     1     -13.093   6.013  21.123  0.00  0.00    -0.041 NA
ATOM      8  N   UNL     1     -12.064   7.991  21.097  0.00  0.00    -0.071 NA
ATOM      9  N   UNL     1     -11.953   6.640  20.861  0.00  0.00    -0.020 NA
ATOM     17  C   UNL     1     -13.298   8.179  21.507  0.00  0.00    +0.342 A 
BRANCH  17   3
ATOM      3  O   UNL     1     -13.850   9.328  21.849  0.00  0.00    -0.423 OA
BRANCH   3  20
ATOM     20  C   UNL     1     -13.484  10.020  22.996  0.00  0.00    +0.132 A 
ATOM     23  C   UNL     1     -12.455  10.939  22.924  0.00  0.00    +0.046 A 
ATOM     24  C   UNL     1     -14.160   9.769  24.174  0.00  0.00    +0.046 A 
ATOM     27  C   UNL     1     -12.089  11.635  24.077  0.00  0.00    +0.004 A 
ATOM     28  C   UNL     1     -13.793  10.464  25.326  0.00  0.00    +0.004 A 
ATOM     30  C   UNL     1     -12.757  11.396  25.278  0.00  0.00    +0.000 A 
ENDBRANCH   3  20
ENDBRANCH  17   3
ENDBRANCH  13   5
TORSDOF 5
ENDMDL
MODEL 7
REMARK VINA RESULT:      -6.9     26.488     28.061
REMARK  Name = 11886183
REMARK  5 active torsions:
REMARK  status: ('A' for Active; 'I' for Inactive)
REMARK    1  A    between atoms: O_3  and  C_17
REMARK    2  A    between atoms: O_3  and  C_20
REMARK    3  A    between atoms: N_5  and  C_13
REMARK    4  A    between atoms: N_6  and  C_14
REMARK    5  A    between atoms: N_10  and  C_19
REMARK                            x       y       z     vdW  Elec       q    Type
REMARK                         _______ _______ _______ _____ _____    ______ ____
ROOT
ATOM      1  O   UNL     1     -14.983   4.937  21.791  0.00  0.00    -0.370 OA
ATOM      2  O   UNL     1     -17.252   6.593  23.206  0.00  0.00    -0.370 OA
ATOM     11  C   UNL     1     -15.829   6.759  23.074  0.00  0.00    +0.176 C 
ATOM     12  C   UNL     1     -15.208   5.377  23.139  0.00  0.00    +0.172 C 
ATOM     13  C   UNL     1     -15.495   7.267  21.685  0.00  0.00    +0.171 C 
ATOM     14  C   UNL     1     -16.266   4.523  23.800  0.00  0.00    +0.131 C 
ATOM     15  C   UNL     1     -15.344   5.982  20.877  0.00  0.00    +0.190 C 
ATOM     16  C   UNL     1     -17.551   5.197  23.356  0.00  0.00    +0.185 C 
ENDROOT
BRANCH  14   6
ATOM      4  O   UNL     1     -15.923   2.261  25.524  0.00  0.00    -0.252 OA
ATOM      6  N   UNL     1     -16.134   4.546  25.237  0.00  0.00    -0.292 N 
ATOM     10  N   UNL     1     -15.868   3.719  27.363  0.00  0.00    -0.269 N 
ATOM     18  C   UNL     1     -15.968   3.389  26.009  0.00  0.00    +0.304 C 
ATOM     31  H   UNL     1     -16.093   5.446  25.704  0.00  0.00    +0.151 HD
ATOM     32  H   UNL     1     -15.927   4.706  27.597  0.00  0.00    +0.156 HD
BRANCH  10  19
ATOM     19  C   UNL     1     -15.694   2.842  28.459  0.00  0.00    +0.035 A 
ATOM     21  C   UNL     1     -14.793   3.175  29.458  0.00  0.00    +0.023 A 
ATOM     22  C   UNL     1     -16.430   1.669  28.513  0.00  0.00    +0.023 A 
ATOM     25  C   UNL     1     -14.622   2.310  30.540  0.00  0.00    +0.002 A 
ATOM     26  C   UNL     1     -16.260   0.805  29.595  0.00  0.00    +0.002 A 
ATOM     29  C   UNL     1     -15.355   1.125  30.608  0.00  0.00    +0.000 A 
ENDBRANCH  10  19
ENDBRANCH  14   6
BRANCH  13   5
ATOM      5  N   UNL     1     -14.323   8.147  21.674  0.00  0.00    -0.187 N 
ATOM      7  N   UNL     1     -14.156   9.079  22.618  0.00  0.00    -0.041 NA
ATOM      8  N   UNL     1     -12.464   9.124  21.166  0.00  0.00    -0.071 NA
ATOM      9  N   UNL     1     -13.014   9.675  22.302  0.00  0.00    -0.020 NA
ATOM     17  C   UNL     1     -13.293   8.177  20.795  0.00  0.00    +0.342 A 
BRANCH  17   3
ATOM      3  O   UNL     1     -13.166   7.382  19.750  0.00  0.00    -0.423 OA
BRANCH   3  20
ATOM     20  C   UNL     1     -12.561   7.791  18.569  0.00  0.00    +0.132 A 
ATOM     23  C   UNL     1     -13.343   8.341  17.571  0.00  0.00    +0.046 A 
ATOM     24  C   UNL     1     -11.196   7.636  18.426  0.00  0.00    +0.046 A 
ATOM     27  C   UNL     1     -12.735   8.752  16.385  0.00  0.00    +0.004 A 
ATOM     28  C   UNL     1     -10.588   8.047  17.241  0.00  0.00    +0.004 A 
ATOM     30  C   UNL     1     -11.357   8.605  16.220  0.00  0.00    +0.000 A 
ENDBRANCH   3  20
ENDBRANCH  17   3
ENDBRANCH  13   5
TORSDOF 5
ENDMDL
MODEL 8
REMARK VINA RESULT:      -6.8     27.642     29.306
REMARK  Name = 11886183
REMARK  5 active torsions:
REMARK  status: ('A' for Active; 'I' for Inactive)
REMARK    1  A    between atoms: O_3  and  C_17
REMARK    2  A    between atoms: O_3  and  C_20
REMARK    3  A    between atoms: N_5  and  C_13
REMARK    4  A    between atoms: N_6  and  C_14
REMARK    5  A    between atoms: N_10  and  C_19
REMARK                            x       y       z     vdW  Elec       q    Type
REMARK                         _______ _______ _______ _____ _____    ______ ____
ROOT
ATOM      1  O   UNL     1      20.495  -8.524  -1.553  0.00  0.00    -0.370 OA
ATOM      2  O   UNL     1      18.009  -9.082  -3.398  0.00  0.00    -0.370 OA
ATOM     11  C   UNL     1      18.323  -8.068  -2.426  0.00  0.00    +0.176 C 
ATOM     12  C   UNL     1      19.096  -8.742  -1.309  0.00  0.00    +0.172 C 
ATOM     13  C   UNL     1      19.297  -7.069  -3.020  0.00  0.00    +0.171 C 
ATOM     14  C   UNL     1      18.761 -10.209  -1.456  0.00  0.00    +0.131 C 
ATOM     15  C   UNL     1      20.656  -7.686  -2.705  0.00  0.00    +0.190 C 
ATOM     16  C   UNL     1      18.531 -10.341  -2.950  0.00  0.00    +0.185 C 
ENDROOT
BRANCH  14   6
ATOM      4  O   UNL     1      18.653 -11.493   1.103  0.00  0.00    -0.252 OA
ATOM      6  N   UNL     1      17.573 -10.551  -0.712  0.00  0.00    -0.292 N 
ATOM     10  N   UNL     1      16.310 -11.385   1.016  0.00  0.00    -0.269 N 
ATOM     18  C   UNL     1      17.607 -11.180   0.539  0.00  0.00    +0.304 C 
ATOM     31  H   UNL     1      16.672 -10.264  -1.081  0.00  0.00    +0.151 HD
ATOM     32  H   UNL     1      15.550 -11.067   0.421  0.00  0.00    +0.156 HD
BRANCH  10  19
ATOM     19  C   UNL     1      15.918 -11.986   2.235  0.00  0.00    +0.035 A 
ATOM     21  C   UNL     1      15.330 -13.240   2.215  0.00  0.00    +0.023 A 
ATOM     22  C   UNL     1      16.131 -11.309   3.425  0.00  0.00    +0.023 A 
ATOM     25  C   UNL     1      14.944 -13.834   3.417  0.00  0.00    +0.002 A 
ATOM     26  C   UNL     1      15.745 -11.902   4.627  0.00  0.00    +0.002 A 
ATOM     29  C   UNL     1      15.151 -13.164   4.623  0.00  0.00    +0.000 A 
ENDBRANCH  10  19
ENDBRANCH  14   6
BRANCH  13   5
ATOM      5  N   UNL     1      19.097  -5.713  -2.501  0.00  0.00    -0.187 N 
ATOM      7  N   UNL     1      19.689  -5.316  -1.370  0.00  0.00    -0.041 NA
ATOM      8  N   UNL     1      18.457  -3.667  -2.227  0.00  0.00    -0.071 NA
ATOM      9  N   UNL     1      19.293  -4.060  -1.206  0.00  0.00    -0.020 NA
ATOM     17  C   UNL     1      18.350  -4.709  -3.019  0.00  0.00    +0.342 A 
BRANCH  17   3
ATOM      3  O   UNL     1      17.643  -4.786  -4.130  0.00  0.00    -0.423 OA
BRANCH   3  20
ATOM     20  C   UNL     1      16.379  -5.360  -4.173  0.00  0.00    +0.132 A 
ATOM     23  C   UNL     1      15.362  -4.796  -3.427  0.00  0.00    +0.046 A 
ATOM     24  C   UNL     1      16.176  -6.477  -4.960  0.00  0.00    +0.046 A 
ATOM     27  C   UNL     1      14.092  -5.372  -3.471  0.00  0.00    +0.004 A 
ATOM     28  C   UNL     1      14.907  -7.053  -5.003  0.00  0.00    +0.004 A 
ATOM     30  C   UNL     1      13.865  -6.501  -4.258  0.00  0.00    +0.000 A 
ENDBRANCH   3  20
ENDBRANCH  17   3
ENDBRANCH  13   5
TORSDOF 5
ENDMDL
MODEL 9
REMARK VINA RESULT:      -6.8     13.298     17.069
REMARK  Name = 11886183
REMARK  5 active torsions:
REMARK  status: ('A' for Active; 'I' for Inactive)
REMARK    1  A    between atoms: O_3  and  C_17
REMARK    2  A    between atoms: O_3  and  C_20
REMARK    3  A    between atoms: N_5  and  C_13
REMARK    4  A    between atoms: N_6  and  C_14
REMARK    5  A    between atoms: N_10  and  C_19
REMARK                            x       y       z     vdW  Elec       q    Type
REMARK                         _______ _______ _______ _____ _____    ______ ____
ROOT
ATOM      1  O   UNL     1       8.665   7.387   6.552  0.00  0.00    -0.370 OA
ATOM      2  O   UNL     1      10.836   5.632   8.002  0.00  0.00    -0.370 OA
ATOM     11  C   UNL     1      10.896   6.758   7.109  0.00  0.00    +0.176 C 
ATOM     12  C   UNL     1       9.774   6.593   6.102  0.00  0.00    +0.172 C 
ATOM     13  C   UNL     1      10.557   8.032   7.859  0.00  0.00    +0.171 C 
ATOM     14  C   UNL     1       9.427   5.123   6.168  0.00  0.00    +0.131 C 
ATOM     15  C   UNL     1       9.039   8.109   7.733  0.00  0.00    +0.190 C 
ATOM     16  C   UNL     1       9.753   4.777   7.609  0.00  0.00    +0.185 C 
ENDROOT
BRANCH  14   6
ATOM      4  O   UNL     1      10.031   5.786   3.446  0.00  0.00    -0.252 OA
ATOM      6  N   UNL     1      10.234   4.354   5.251  0.00  0.00    -0.292 N 
ATOM     10  N   UNL     1      11.291   3.813   3.285  0.00  0.00    -0.269 N 
ATOM     18  C   UNL     1      10.482   4.751   3.931  0.00  0.00    +0.304 C 
ATOM     31  H   UNL     1      10.697   3.520   5.597  0.00  0.00    +0.151 HD
ATOM     32  H   UNL     1      11.578   3.006   3.832  0.00  0.00    +0.156 HD
BRANCH  10  19
ATOM     19  C   UNL     1      11.765   3.846   1.953  0.00  0.00    +0.035 A 
ATOM     21  C   UNL     1      10.884   4.141   0.926  0.00  0.00    +0.023 A 
ATOM     22  C   UNL     1      13.103   3.583   1.702  0.00  0.00    +0.023 A 
ATOM     25  C   UNL     1      11.351   4.174  -0.388  0.00  0.00    +0.002 A 
ATOM     26  C   UNL     1      13.571   3.616   0.388  0.00  0.00    +0.002 A 
ATOM     29  C   UNL     1      12.695   3.911  -0.657  0.00  0.00    +0.000 A 
ENDBRANCH  10  19
ENDBRANCH  14   6
BRANCH  13   5
ATOM      5  N   UNL     1      11.282   9.197   7.345  0.00  0.00    -0.187 N 
ATOM      7  N   UNL     1      10.698  10.398   7.286  0.00  0.00    -0.041 NA
ATOM      8  N   UNL     1      12.789  10.508   6.522  0.00  0.00    -0.071 NA
ATOM      9  N   UNL     1      11.627  11.199   6.781  0.00  0.00    -0.020 NA
ATOM     17  C   UNL     1      12.552   9.268   6.881  0.00  0.00    +0.342 A 
BRANCH  17   3
ATOM      3  O   UNL     1      13.390   8.251   6.809  0.00  0.00    -0.423 OA
BRANCH   3  20
ATOM     20  C   UNL     1      13.998   7.867   5.621  0.00  0.00    +0.132 A 
ATOM     23  C   UNL     1      15.376   7.897   5.533  0.00  0.00    +0.046 A 
ATOM     24  C   UNL     1      13.206   7.465   4.563  0.00  0.00    +0.046 A 
ATOM     27  C   UNL     1      15.986   7.511   4.339  0.00  0.00    +0.004 A 
ATOM     28  C   UNL     1      13.815   7.078   3.370  0.00  0.00    +0.004 A 
ATOM     30  C   UNL     1      15.205   7.102   3.257  0.00  0.00    +0.000 A 
ENDBRANCH   3  20
ENDBRANCH  17   3
ENDBRANCH  13   5
TORSDOF 5
ENDMDL
MODEL 10
REMARK VINA RESULT:      -6.7     13.683     15.647
REMARK  Name = 11886183
REMARK  5 active torsions:
REMARK  status: ('A' for Active; 'I' for Inactive)
REMARK    1  A    between atoms: O_3  and  C_17
REMARK    2  A    between atoms: O_3  and  C_20
REMARK    3  A    between atoms: N_5  and  C_13
REMARK    4  A    between atoms: N_6  and  C_14
REMARK    5  A    between atoms: N_10  and  C_19
REMARK                            x       y       z     vdW  Elec       q    Type
REMARK                         _______ _______ _______ _____ _____    ______ ____
ROOT
ATOM      1  O   UNL     1      19.180  -2.490  31.519  0.00  0.00    -0.370 OA
ATOM      2  O   UNL     1      16.262  -2.537  30.346  0.00  0.00    -0.370 OA
ATOM     11  C   UNL     1      17.542  -2.141  29.822  0.00  0.00    +0.176 C 
ATOM     12  C   UNL     1      18.311  -1.494  30.957  0.00  0.00    +0.172 C 
ATOM     13  C   UNL     1      18.353  -3.370  29.458  0.00  0.00    +0.171 C 
ATOM     14  C   UNL     1      17.245  -1.105  31.956  0.00  0.00    +0.131 C 
ATOM     15  C   UNL     1      19.074  -3.703  30.761  0.00  0.00    +0.190 C 
ATOM     16  C   UNL     1      16.186  -2.169  31.730  0.00  0.00    +0.185 C 
ENDROOT
BRANCH  14   6
ATOM      4  O   UNL     1      18.277   1.379  32.941  0.00  0.00    -0.252 OA
ATOM      6  N   UNL     1      16.727   0.214  31.682  0.00  0.00    -0.292 N 
ATOM     10  N   UNL     1      16.583   2.504  31.769  0.00  0.00    -0.269 N 
ATOM     18  C   UNL     1      17.294   1.383  32.205  0.00  0.00    +0.304 C 
ATOM     31  H   UNL     1      15.956   0.304  31.027  0.00  0.00    +0.151 HD
ATOM     32  H   UNL     1      15.787   2.331  31.161  0.00  0.00    +0.156 HD
BRANCH  10  19
ATOM     19  C   UNL     1      16.834   3.863  32.072  0.00  0.00    +0.035 A 
ATOM     21  C   UNL     1      17.048   4.236  33.389  0.00  0.00    +0.023 A 
ATOM     22  C   UNL     1      16.862   4.793  31.046  0.00  0.00    +0.023 A 
ATOM     25  C   UNL     1      17.296   5.576  33.688  0.00  0.00    +0.002 A 
ATOM     26  C   UNL     1      17.110   6.132  31.344  0.00  0.00    +0.002 A 
ATOM     29  C   UNL     1      17.327   6.525  32.665  0.00  0.00    +0.000 A 
ENDBRANCH  10  19
ENDBRANCH  14   6
BRANCH  13   5
ATOM      5  N   UNL     1      19.230  -3.144  28.306  0.00  0.00    -0.187 N 
ATOM      7  N   UNL     1      20.533  -2.900  28.472  0.00  0.00    -0.041 NA
ATOM      8  N   UNL     1      20.008  -2.895  26.305  0.00  0.00    -0.071 NA
ATOM      9  N   UNL     1      21.006  -2.749  27.241  0.00  0.00    -0.020 NA
ATOM     17  C   UNL     1      18.914  -3.141  26.989  0.00  0.00    +0.342 A 
BRANCH  17   3
ATOM      3  O   UNL     1      17.707  -3.350  26.498  0.00  0.00    -0.423 OA
BRANCH   3  20
ATOM     20  C   UNL     1      17.283  -2.799  25.297  0.00  0.00    +0.132 A 
ATOM     23  C   UNL     1      17.417  -1.438  25.099  0.00  0.00    +0.046 A 
ATOM     24  C   UNL     1      16.739  -3.628  24.334  0.00  0.00    +0.046 A 
ATOM     27  C   UNL     1      16.991  -0.885  23.892  0.00  0.00    +0.004 A 
ATOM     28  C   UNL     1      16.313  -3.075  23.127  0.00  0.00    +0.004 A 
ATOM     30  C   UNL     1      16.438  -1.703  22.906  0.00  0.00    +0.000 A 
ENDBRANCH   3  20
ENDBRANCH  17   3
ENDBRANCH  13   5
TORSDOF 5
ENDMDL
