REMARK  Name = 51138043
REMARK  12 active torsions:
REMARK  status: ('A' for Active; 'I' for Inactive)
REMARK    1  A    between atoms: N_3  and  C_20
REMARK    2  A    between atoms: N_4  and  C_25
REMARK    3  A    between atoms: N_5  and  C_26
REMARK    4  A    between atoms: N_5  and  C_31
REMARK    5  A    between atoms: N_5  and  C_32
REMARK    6  A    between atoms: C_7  and  C_11
REMARK    7  A    between atoms: C_10  and  C_18
REMARK    8  A    between atoms: C_11  and  C_15
REMARK    9  A    between atoms: C_15  and  C_22
REMARK   10  A    between atoms: C_15  and  C_23
REMARK   11  A    between atoms: C_20  and  C_24
REMARK   12  A    between atoms: C_25  and  C_26
REMARK                            x       y       z     vdW  Elec       q    Type
REMARK                         _______ _______ _______ _____ _____    ______ ____
ROOT
ATOM      2  N   UNL     1      -1.581  -0.457  -0.322  0.00  0.00    -0.299 NA
ATOM      3  N   UNL     1       3.103   0.893   0.994  0.00  0.00    -0.342 N 
ATOM      7  C   UNL     1      -0.979  -1.651   0.285  0.00  0.00    +0.085 C 
ATOM      8  C   UNL     1       0.516  -1.557   0.607  0.00  0.00    -0.021 A 
ATOM      9  C   UNL     1       1.264  -0.346   0.684  0.00  0.00    +0.008 A 
ATOM     10  C   UNL     1      -1.577   0.725   0.527  0.00  0.00    +0.145 C 
ATOM     12  C   UNL     1       0.934   1.044   0.525  0.00  0.00    -0.020 A 
ATOM     13  C   UNL     1      -0.397   1.641   0.208  0.00  0.00    +0.065 C 
ATOM     14  C   UNL     1       2.626  -0.396   1.002  0.00  0.00    +0.050 A 
ATOM     16  C   UNL     1       2.095   1.767   0.715  0.00  0.00    +0.091 A 
ATOM     17  C   UNL     1       1.217  -2.746   0.932  0.00  0.00    +0.006 A 
ATOM     19  C   UNL     1       3.309  -1.583   1.273  0.00  0.00    +0.026 A 
ATOM     21  C   UNL     1       2.575  -2.761   1.245  0.00  0.00    +0.002 A 
ATOM     33  H   UNL     1      -1.163  -0.260  -1.230  0.00  0.00    +0.123 HD
ENDROOT
BRANCH  10  18
ATOM      1  O   UNL     1      -2.915   2.297  -0.670  0.00  0.00    -0.274 OA
ATOM      4  N   UNL     1      -3.898   1.039   1.025  0.00  0.00    -0.313 N 
ATOM     18  C   UNL     1      -2.854   1.442   0.209  0.00  0.00    +0.230 C 
ATOM     34  H   UNL     1      -3.740   0.309   1.713  0.00  0.00    +0.149 HD
BRANCH   4  25
ATOM     25  C   UNL     1      -5.229   1.594   0.936  0.00  0.00    +0.119 C 
BRANCH  25  26
ATOM     26  C   UNL     1      -6.090   0.808  -0.042  0.00  0.00    +0.102 C 
BRANCH  26   5
ATOM      5  N   UNL     1      -7.435   1.366  -0.095  0.00  0.00    -0.307 NA
ATOM     31  C   UNL     1      -7.464   2.565  -0.934  0.00  0.00    +0.104 C 
ATOM     32  C   UNL     1      -8.386   0.372  -0.597  0.00  0.00    +0.104 C 
ENDBRANCH  26   5
ENDBRANCH  25  26
ENDBRANCH   4  25
ENDBRANCH  10  18
BRANCH   7  11
ATOM     11  C   UNL     1      -1.300  -2.792  -0.697  0.00  0.00    +0.026 C 
BRANCH  11  15
ATOM     15  C   UNL     1      -2.752  -3.272  -0.602  0.00  0.00    -0.015 C 
ATOM     22  C   UNL     1      -2.962  -4.439  -1.570  0.00  0.00    +0.007 C 
ATOM     23  C   UNL     1      -3.760  -2.162  -0.904  0.00  0.00    +0.007 C 
ENDBRANCH  11  15
ENDBRANCH   7  11
BRANCH   3  20
ATOM     20  C   UNL     1       4.470   1.287   1.261  0.00  0.00    +0.157 C 
BRANCH  20  24
ATOM      6  N   UNL     1       7.103   0.694  -2.092  0.00  0.00    -0.263 NA
ATOM     24  C   UNL     1       5.393   1.079   0.086  0.00  0.00    -0.025 A 
ATOM     27  C   UNL     1       6.525   0.282   0.219  0.00  0.00    +0.025 A 
ATOM     28  C   UNL     1       5.115   1.683  -1.135  0.00  0.00    +0.025 A 
ATOM     29  C   UNL     1       7.340   0.123  -0.890  0.00  0.00    +0.111 A 
ATOM     30  C   UNL     1       5.993   1.461  -2.184  0.00  0.00    +0.111 A 
ENDBRANCH  20  24
ENDBRANCH   3  20
TORSDOF 8
