MODEL 1
REMARK VINA RESULT:      -7.0      0.000      0.000
REMARK  Name = 75368629
REMARK  7 active torsions:
REMARK  status: ('A' for Active; 'I' for Inactive)
REMARK    1  A    between atoms: O_5  and  C_28
REMARK    2  A    between atoms: O_5  and  C_30
REMARK    3  A    between atoms: N_7  and  C_15
REMARK    4  A    between atoms: N_8  and  C_16
REMARK    5  A    between atoms: C_15  and  C_17
REMARK    6  A    between atoms: C_16  and  C_18
REMARK    7  A    between atoms: C_25  and  C_29
REMARK                            x       y       z     vdW  Elec       q    Type
REMARK                         _______ _______ _______ _____ _____    ______ ____
ROOT
ATOM      4  O   UNL     1     -18.290   5.241  26.245  0.00  0.00    -0.252 OA
ATOM      6  N   UNL     1     -16.581   5.439  24.646  0.00  0.00    -0.278 N 
ATOM      7  N   UNL     1     -15.322   6.092  22.217  0.00  0.00    -0.295 NA
ATOM      8  N   UNL     1     -16.765   3.505  25.772  0.00  0.00    -0.279 N 
ATOM      9  C   UNL     1     -15.441   4.659  24.214  0.00  0.00    +0.109 C 
ATOM     10  C   UNL     1     -15.319   4.693  22.692  0.00  0.00    +0.109 C 
ATOM     11  C   UNL     1     -15.705   3.275  24.805  0.00  0.00    +0.133 C 
ATOM     12  C   UNL     1     -16.762   6.778  24.124  0.00  0.00    +0.125 C 
ATOM     13  C   UNL     1     -16.572   6.776  22.605  0.00  0.00    +0.104 C 
ATOM     14  C   UNL     1     -17.331   4.789  25.635  0.00  0.00    +0.305 C 
ENDROOT
BRANCH   7  15
ATOM     15  C   UNL     1     -15.145   6.138  20.766  0.00  0.00    +0.119 C 
BRANCH  15  17
ATOM     17  C   UNL     1     -13.943   6.958  20.374  0.00  0.00    -0.033 A 
ATOM     19  C   UNL     1     -14.079   7.996  19.451  0.00  0.00    +0.005 A 
ATOM     20  C   UNL     1     -12.696   6.679  20.933  0.00  0.00    +0.005 A 
ATOM     23  C   UNL     1     -12.967   8.755  19.088  0.00  0.00    +0.012 A 
ATOM     24  C   UNL     1     -11.584   7.438  20.569  0.00  0.00    +0.012 A 
ATOM     25  C   UNL     1     -11.719   8.476  19.647  0.00  0.00    +0.055 A 
BRANCH  25  29
ATOM      1  F   UNL     1      -9.460   9.124  20.091  0.00  0.00    -0.166 F 
ATOM      2  F   UNL     1     -10.769  10.636  19.252  0.00  0.00    -0.166 F 
ATOM      3  F   UNL     1     -10.074   8.992  18.010  0.00  0.00    -0.166 F 
ATOM     29  C   UNL     1     -10.531   9.290  19.260  0.00  0.00    +0.417 C 
ENDBRANCH  25  29
ENDBRANCH  15  17
ENDBRANCH   7  15
BRANCH   8  16
ATOM     16  C   UNL     1     -17.247   2.458  26.645  0.00  0.00    +0.144 C 
BRANCH  16  18
ATOM     18  C   UNL     1     -16.339   2.252  27.829  0.00  0.00    -0.030 A 
ATOM     21  C   UNL     1     -16.111   0.966  28.318  0.00  0.00    +0.009 A 
ATOM     22  C   UNL     1     -15.724   3.348  28.434  0.00  0.00    +0.009 A 
ATOM     26  C   UNL     1     -15.269   0.776  29.414  0.00  0.00    +0.046 A 
ATOM     27  C   UNL     1     -14.882   3.159  29.530  0.00  0.00    +0.046 A 
ATOM     28  C   UNL     1     -14.655   1.873  30.020  0.00  0.00    +0.120 A 
BRANCH  28   5
ATOM      5  O   UNL     1     -13.833   1.687  31.088  0.00  0.00    -0.495 OA
ATOM     30  C   UNL     1     -13.500   2.841  31.859  0.00  0.00    +0.277 C 
ENDBRANCH  28   5
ENDBRANCH  16  18
ENDBRANCH   8  16
TORSDOF 6
ENDMDL
MODEL 2
REMARK VINA RESULT:      -6.9     19.817     21.436
REMARK  Name = 75368629
REMARK  7 active torsions:
REMARK  status: ('A' for Active; 'I' for Inactive)
REMARK    1  A    between atoms: O_5  and  C_28
REMARK    2  A    between atoms: O_5  and  C_30
REMARK    3  A    between atoms: N_7  and  C_15
REMARK    4  A    between atoms: N_8  and  C_16
REMARK    5  A    between atoms: C_15  and  C_17
REMARK    6  A    between atoms: C_16  and  C_18
REMARK    7  A    between atoms: C_25  and  C_29
REMARK                            x       y       z     vdW  Elec       q    Type
REMARK                         _______ _______ _______ _____ _____    ______ ____
ROOT
ATOM      4  O   UNL     1      -4.979 -10.772   7.597  0.00  0.00    -0.252 OA
ATOM      6  N   UNL     1      -6.740  -9.342   8.206  0.00  0.00    -0.278 N 
ATOM      7  N   UNL     1      -8.927  -7.598   7.912  0.00  0.00    -0.295 NA
ATOM      8  N   UNL     1      -4.774  -9.123   9.271  0.00  0.00    -0.279 N 
ATOM      9  C   UNL     1      -6.992  -8.352   9.232  0.00  0.00    +0.109 C 
ATOM     10  C   UNL     1      -7.723  -7.148   8.641  0.00  0.00    +0.109 C 
ATOM     11  C   UNL     1      -5.603  -8.048   9.790  0.00  0.00    +0.133 C 
ATOM     12  C   UNL     1      -7.822  -9.748   7.333  0.00  0.00    +0.125 C 
ATOM     13  C   UNL     1      -8.563  -8.514   6.812  0.00  0.00    +0.104 C 
ATOM     14  C   UNL     1      -5.442  -9.864   8.275  0.00  0.00    +0.305 C 
ENDROOT
BRANCH   7  15
ATOM     15  C   UNL     1      -9.668  -6.449   7.393  0.00  0.00    +0.119 C 
BRANCH  15  17
ATOM     17  C   UNL     1     -10.434  -5.739   8.478  0.00  0.00    -0.033 A 
ATOM     19  C   UNL     1     -11.300  -6.458   9.304  0.00  0.00    +0.005 A 
ATOM     20  C   UNL     1     -10.278  -4.365   8.659  0.00  0.00    +0.005 A 
ATOM     23  C   UNL     1     -12.009  -5.802  10.309  0.00  0.00    +0.012 A 
ATOM     24  C   UNL     1     -10.988  -3.709   9.664  0.00  0.00    +0.012 A 
ATOM     25  C   UNL     1     -11.853  -4.427  10.489  0.00  0.00    +0.055 A 
BRANCH  25  29
ATOM      1  F   UNL     1     -13.222  -4.574  12.446  0.00  0.00    -0.166 F 
ATOM      2  F   UNL     1     -13.607  -2.919  11.099  0.00  0.00    -0.166 F 
ATOM      3  F   UNL     1     -11.815  -2.921  12.329  0.00  0.00    -0.166 F 
ATOM     29  C   UNL     1     -12.610  -3.727  11.567  0.00  0.00    +0.417 C 
ENDBRANCH  25  29
ENDBRANCH  15  17
ENDBRANCH   7  15
BRANCH   8  16
ATOM     16  C   UNL     1      -3.389  -9.275   9.653  0.00  0.00    +0.144 C 
BRANCH  16  18
ATOM     18  C   UNL     1      -3.248  -9.803  11.056  0.00  0.00    -0.030 A 
ATOM     21  C   UNL     1      -1.985  -9.908  11.639  0.00  0.00    +0.009 A 
ATOM     22  C   UNL     1      -4.381 -10.186  11.773  0.00  0.00    +0.009 A 
ATOM     26  C   UNL     1      -1.855 -10.397  12.939  0.00  0.00    +0.046 A 
ATOM     27  C   UNL     1      -4.252 -10.674  13.073  0.00  0.00    +0.046 A 
ATOM     28  C   UNL     1      -2.990 -10.780  13.656  0.00  0.00    +0.120 A 
BRANCH  28   5
ATOM      5  O   UNL     1      -2.863 -11.255  14.925  0.00  0.00    -0.495 OA
ATOM     30  C   UNL     1      -1.655 -10.943  15.617  0.00  0.00    +0.277 C 
ENDBRANCH  28   5
ENDBRANCH  16  18
ENDBRANCH   8  16
TORSDOF 6
ENDMDL
MODEL 3
REMARK VINA RESULT:      -6.7     31.017     34.675
REMARK  Name = 75368629
REMARK  7 active torsions:
REMARK  status: ('A' for Active; 'I' for Inactive)
REMARK    1  A    between atoms: O_5  and  C_28
REMARK    2  A    between atoms: O_5  and  C_30
REMARK    3  A    between atoms: N_7  and  C_15
REMARK    4  A    between atoms: N_8  and  C_16
REMARK    5  A    between atoms: C_15  and  C_17
REMARK    6  A    between atoms: C_16  and  C_18
REMARK    7  A    between atoms: C_25  and  C_29
REMARK                            x       y       z     vdW  Elec       q    Type
REMARK                         _______ _______ _______ _____ _____    ______ ____
ROOT
ATOM      4  O   UNL     1      16.504   9.866  21.908  0.00  0.00    -0.252 OA
ATOM      6  N   UNL     1      18.018   8.086  21.673  0.00  0.00    -0.278 N 
ATOM      7  N   UNL     1      20.426   6.745  21.111  0.00  0.00    -0.295 NA
ATOM      8  N   UNL     1      15.929   7.814  20.897  0.00  0.00    -0.279 N 
ATOM      9  C   UNL     1      17.969   6.705  21.242  0.00  0.00    +0.109 C 
ATOM     10  C   UNL     1      19.192   6.369  20.391  0.00  0.00    +0.109 C 
ATOM     11  C   UNL     1      16.631   6.602  20.512  0.00  0.00    +0.133 C 
ATOM     12  C   UNL     1      19.239   8.602  22.260  0.00  0.00    +0.125 C 
ATOM     13  C   UNL     1      20.442   8.191  21.408  0.00  0.00    +0.104 C 
ATOM     14  C   UNL     1      16.782   8.731  21.544  0.00  0.00    +0.305 C 
ENDROOT
BRANCH   7  15
ATOM     15  C   UNL     1      21.605   6.372  20.329  0.00  0.00    +0.119 C 
BRANCH  15  17
ATOM     17  C   UNL     1      22.257   5.123  20.860  0.00  0.00    -0.033 A 
ATOM     19  C   UNL     1      21.653   4.406  21.894  0.00  0.00    +0.005 A 
ATOM     20  C   UNL     1      23.465   4.682  20.318  0.00  0.00    +0.005 A 
ATOM     23  C   UNL     1      22.256   3.249  22.385  0.00  0.00    +0.012 A 
ATOM     24  C   UNL     1      24.069   3.525  20.811  0.00  0.00    +0.012 A 
ATOM     25  C   UNL     1      23.464   2.809  21.844  0.00  0.00    +0.055 A 
BRANCH  25  29
ATOM      1  F   UNL     1      25.394   1.755  22.787  0.00  0.00    -0.166 F 
ATOM      2  F   UNL     1      24.176   0.558  21.451  0.00  0.00    -0.166 F 
ATOM      3  F   UNL     1      23.446   1.046  23.440  0.00  0.00    -0.166 F 
ATOM     29  C   UNL     1      24.108   1.569  22.367  0.00  0.00    +0.417 C 
ENDBRANCH  25  29
ENDBRANCH  15  17
ENDBRANCH   7  15
BRANCH   8  16
ATOM     16  C   UNL     1      14.560   8.065  20.504  0.00  0.00    +0.144 C 
BRANCH  16  18
ATOM     18  C   UNL     1      14.463   8.547  19.081  0.00  0.00    -0.030 A 
ATOM     21  C   UNL     1      14.694   9.890  18.782  0.00  0.00    +0.009 A 
ATOM     22  C   UNL     1      14.144   7.650  18.062  0.00  0.00    +0.009 A 
ATOM     26  C   UNL     1      14.605  10.336  17.463  0.00  0.00    +0.046 A 
ATOM     27  C   UNL     1      14.056   8.095  16.743  0.00  0.00    +0.046 A 
ATOM     28  C   UNL     1      14.285   9.438  16.444  0.00  0.00    +0.120 A 
BRANCH  28   5
ATOM      5  O   UNL     1      14.200   9.873  15.157  0.00  0.00    -0.495 OA
ATOM     30  C   UNL     1      14.021  11.274  14.957  0.00  0.00    +0.277 C 
ENDBRANCH  28   5
ENDBRANCH  16  18
ENDBRANCH   8  16
TORSDOF 6
ENDMDL
MODEL 4
REMARK VINA RESULT:      -6.6     17.461     19.292
REMARK  Name = 75368629
REMARK  7 active torsions:
REMARK  status: ('A' for Active; 'I' for Inactive)
REMARK    1  A    between atoms: O_5  and  C_28
REMARK    2  A    between atoms: O_5  and  C_30
REMARK    3  A    between atoms: N_7  and  C_15
REMARK    4  A    between atoms: N_8  and  C_16
REMARK    5  A    between atoms: C_15  and  C_17
REMARK    6  A    between atoms: C_16  and  C_18
REMARK    7  A    between atoms: C_25  and  C_29
REMARK                            x       y       z     vdW  Elec       q    Type
REMARK                         _______ _______ _______ _____ _____    ______ ____
ROOT
ATOM      4  O   UNL     1     -13.478  -8.910  15.999  0.00  0.00    -0.252 OA
ATOM      6  N   UNL     1     -11.150  -9.197  16.107  0.00  0.00    -0.278 N 
ATOM      7  N   UNL     1      -8.646  -9.983  17.121  0.00  0.00    -0.295 NA
ATOM      8  N   UNL     1     -11.945  -7.205  15.444  0.00  0.00    -0.279 N 
ATOM      9  C   UNL     1      -9.972  -8.443  15.732  0.00  0.00    +0.109 C 
ATOM     10  C   UNL     1      -8.899  -8.560  16.813  0.00  0.00    +0.109 C 
ATOM     11  C   UNL     1     -10.505  -7.030  15.507  0.00  0.00    +0.133 C 
ATOM     12  C   UNL     1     -10.999 -10.562  16.569  0.00  0.00    +0.125 C 
ATOM     13  C   UNL     1      -9.875 -10.642  17.605  0.00  0.00    +0.104 C 
ATOM     14  C   UNL     1     -12.336  -8.493  15.863  0.00  0.00    +0.305 C 
ENDROOT
BRANCH   7  15
ATOM     15  C   UNL     1      -7.577 -10.107  18.112  0.00  0.00    +0.119 C 
BRANCH  15  17
ATOM     17  C   UNL     1      -6.238 -10.342  17.465  0.00  0.00    -0.033 A 
ATOM     19  C   UNL     1      -5.171 -10.821  18.226  0.00  0.00    +0.005 A 
ATOM     20  C   UNL     1      -6.064 -10.082  16.105  0.00  0.00    +0.005 A 
ATOM     23  C   UNL     1      -3.931 -11.041  17.627  0.00  0.00    +0.012 A 
ATOM     24  C   UNL     1      -4.823 -10.300  15.507  0.00  0.00    +0.012 A 
ATOM     25  C   UNL     1      -3.757 -10.780  16.267  0.00  0.00    +0.055 A 
BRANCH  25  29
ATOM      1  F   UNL     1      -2.098 -10.078  14.693  0.00  0.00    -0.166 F 
ATOM      2  F   UNL     1      -2.344 -12.214  14.974  0.00  0.00    -0.166 F 
ATOM      3  F   UNL     1      -1.405 -11.017  16.526  0.00  0.00    -0.166 F 
ATOM     29  C   UNL     1      -2.431 -11.017  15.627  0.00  0.00    +0.417 C 
ENDBRANCH  25  29
ENDBRANCH  15  17
ENDBRANCH   7  15
BRANCH   8  16
ATOM     16  C   UNL     1     -12.838  -6.111  15.131  0.00  0.00    +0.144 C 
BRANCH  16  18
ATOM     18  C   UNL     1     -12.662  -5.632  13.714  0.00  0.00    -0.030 A 
ATOM     21  C   UNL     1     -12.679  -6.547  12.661  0.00  0.00    +0.009 A 
ATOM     22  C   UNL     1     -12.483  -4.273  13.455  0.00  0.00    +0.009 A 
ATOM     26  C   UNL     1     -12.516  -6.102  11.348  0.00  0.00    +0.046 A 
ATOM     27  C   UNL     1     -12.321  -3.828  12.143  0.00  0.00    +0.046 A 
ATOM     28  C   UNL     1     -12.337  -4.742  11.090  0.00  0.00    +0.120 A 
BRANCH  28   5
ATOM      5  O   UNL     1     -12.180  -4.309   9.810  0.00  0.00    -0.495 OA
ATOM     30  C   UNL     1     -10.965  -4.661   9.150  0.00  0.00    +0.277 C 
ENDBRANCH  28   5
ENDBRANCH  16  18
ENDBRANCH   8  16
TORSDOF 6
ENDMDL
MODEL 5
REMARK VINA RESULT:      -6.6     29.744     34.975
REMARK  Name = 75368629
REMARK  7 active torsions:
REMARK  status: ('A' for Active; 'I' for Inactive)
REMARK    1  A    between atoms: O_5  and  C_28
REMARK    2  A    between atoms: O_5  and  C_30
REMARK    3  A    between atoms: N_7  and  C_15
REMARK    4  A    between atoms: N_8  and  C_16
REMARK    5  A    between atoms: C_15  and  C_17
REMARK    6  A    between atoms: C_16  and  C_18
REMARK    7  A    between atoms: C_25  and  C_29
REMARK                            x       y       z     vdW  Elec       q    Type
REMARK                         _______ _______ _______ _____ _____    ______ ____
ROOT
ATOM      4  O   UNL     1      15.747  10.540   3.180  0.00  0.00    -0.252 OA
ATOM      6  N   UNL     1      14.060   9.153   4.044  0.00  0.00    -0.278 N 
ATOM      7  N   UNL     1      11.471   8.232   4.646  0.00  0.00    -0.295 NA
ATOM      8  N   UNL     1      15.835   9.603   5.343  0.00  0.00    -0.279 N 
ATOM      9  C   UNL     1      13.860   8.339   5.225  0.00  0.00    +0.109 C 
ATOM     10  C   UNL     1      12.431   8.490   5.740  0.00  0.00    +0.109 C 
ATOM     11  C   UNL     1      14.943   8.826   6.186  0.00  0.00    +0.133 C 
ATOM     12  C   UNL     1      13.092   9.088   2.968  0.00  0.00    +0.125 C 
ATOM     13  C   UNL     1      11.673   9.183   3.535  0.00  0.00    +0.104 C 
ATOM     14  C   UNL     1      15.275   9.848   4.073  0.00  0.00    +0.305 C 
ENDROOT
BRANCH   7  15
ATOM     15  C   UNL     1      10.098   8.315   5.144  0.00  0.00    +0.119 C 
BRANCH  15  17
ATOM     17  C   UNL     1       9.870   7.396   6.315  0.00  0.00    -0.033 A 
ATOM     19  C   UNL     1       9.272   7.884   7.478  0.00  0.00    +0.005 A 
ATOM     20  C   UNL     1      10.256   6.057   6.238  0.00  0.00    +0.005 A 
ATOM     23  C   UNL     1       9.060   7.034   8.562  0.00  0.00    +0.012 A 
ATOM     24  C   UNL     1      10.044   5.207   7.324  0.00  0.00    +0.012 A 
ATOM     25  C   UNL     1       9.446   5.695   8.485  0.00  0.00    +0.055 A 
BRANCH  25  29
ATOM      1  F   UNL     1       9.059   3.476   9.290  0.00  0.00    -0.166 F 
ATOM      2  F   UNL     1       8.100   5.094  10.370  0.00  0.00    -0.166 F 
ATOM      3  F   UNL     1      10.248   4.801  10.537  0.00  0.00    -0.166 F 
ATOM     29  C   UNL     1       9.216   4.786   9.645  0.00  0.00    +0.417 C 
ENDBRANCH  25  29
ENDBRANCH  15  17
ENDBRANCH   7  15
BRANCH   8  16
ATOM     16  C   UNL     1      17.071  10.162   5.845  0.00  0.00    +0.144 C 
BRANCH  16  18
ATOM     18  C   UNL     1      18.232   9.223   5.649  0.00  0.00    -0.030 A 
ATOM     21  C   UNL     1      19.146   9.020   6.683  0.00  0.00    +0.009 A 
ATOM     22  C   UNL     1      18.392   8.556   4.435  0.00  0.00    +0.009 A 
ATOM     26  C   UNL     1      20.222   8.150   6.502  0.00  0.00    +0.046 A 
ATOM     27  C   UNL     1      19.466   7.686   4.254  0.00  0.00    +0.046 A 
ATOM     28  C   UNL     1      20.382   7.483   5.286  0.00  0.00    +0.120 A 
BRANCH  28   5
ATOM      5  O   UNL     1      21.429   6.633   5.110  0.00  0.00    -0.495 OA
ATOM     30  C   UNL     1      22.185   6.775   3.908  0.00  0.00    +0.277 C 
ENDBRANCH  28   5
ENDBRANCH  16  18
ENDBRANCH   8  16
TORSDOF 6
ENDMDL
MODEL 6
REMARK VINA RESULT:      -6.4     20.105     22.162
REMARK  Name = 75368629
REMARK  7 active torsions:
REMARK  status: ('A' for Active; 'I' for Inactive)
REMARK    1  A    between atoms: O_5  and  C_28
REMARK    2  A    between atoms: O_5  and  C_30
REMARK    3  A    between atoms: N_7  and  C_15
REMARK    4  A    between atoms: N_8  and  C_16
REMARK    5  A    between atoms: C_15  and  C_17
REMARK    6  A    between atoms: C_16  and  C_18
REMARK    7  A    between atoms: C_25  and  C_29
REMARK                            x       y       z     vdW  Elec       q    Type
REMARK                         _______ _______ _______ _____ _____    ______ ____
ROOT
ATOM      4  O   UNL     1      -1.441 -11.531  15.185  0.00  0.00    -0.252 OA
ATOM      6  N   UNL     1      -3.642 -10.854  15.645  0.00  0.00    -0.278 N 
ATOM      7  N   UNL     1      -6.195 -10.851  16.827  0.00  0.00    -0.295 NA
ATOM      8  N   UNL     1      -2.978 -10.924  13.501  0.00  0.00    -0.279 N 
ATOM      9  C   UNL     1      -4.760 -10.312  14.902  0.00  0.00    +0.109 C 
ATOM     10  C   UNL     1      -6.066 -10.958  15.359  0.00  0.00    +0.109 C 
ATOM     11  C   UNL     1      -4.387 -10.579  13.445  0.00  0.00    +0.133 C 
ATOM     12  C   UNL     1      -3.724 -10.934  17.090  0.00  0.00    +0.125 C 
ATOM     13  C   UNL     1      -5.072 -11.530  17.504  0.00  0.00    +0.104 C 
ATOM     14  C   UNL     1      -2.545 -11.147  14.825  0.00  0.00    +0.305 C 
ENDROOT
BRANCH   7  15
ATOM     15  C   UNL     1      -7.471 -11.413  17.269  0.00  0.00    +0.119 C 
BRANCH  15  17
ATOM     17  C   UNL     1      -8.615 -10.464  17.025  0.00  0.00    -0.033 A 
ATOM     19  C   UNL     1      -8.519  -9.135  17.438  0.00  0.00    +0.005 A 
ATOM     20  C   UNL     1      -9.771 -10.915  16.385  0.00  0.00    +0.005 A 
ATOM     23  C   UNL     1      -9.578  -8.256  17.211  0.00  0.00    +0.012 A 
ATOM     24  C   UNL     1     -10.830 -10.036  16.160  0.00  0.00    +0.012 A 
ATOM     25  C   UNL     1     -10.734  -8.707  16.573  0.00  0.00    +0.055 A 
BRANCH  25  29
ATOM      1  F   UNL     1     -13.012  -8.107  16.986  0.00  0.00    -0.166 F 
ATOM      2  F   UNL     1     -12.224  -7.671  15.013  0.00  0.00    -0.166 F 
ATOM      3  F   UNL     1     -11.583  -6.491  16.723  0.00  0.00    -0.166 F 
ATOM     29  C   UNL     1     -11.865  -7.766  16.328  0.00  0.00    +0.417 C 
ENDBRANCH  25  29
ENDBRANCH  15  17
ENDBRANCH   7  15
BRANCH   8  16
ATOM     16  C   UNL     1      -2.195 -11.149  12.307  0.00  0.00    +0.144 C 
BRANCH  16  18
ATOM     18  C   UNL     1      -2.974 -10.835  11.058  0.00  0.00    -0.030 A 
ATOM     21  C   UNL     1      -3.066  -9.519  10.605  0.00  0.00    +0.009 A 
ATOM     22  C   UNL     1      -3.603 -11.861  10.352  0.00  0.00    +0.009 A 
ATOM     26  C   UNL     1      -3.788  -9.228   9.447  0.00  0.00    +0.046 A 
ATOM     27  C   UNL     1      -4.324 -11.571   9.194  0.00  0.00    +0.046 A 
ATOM     28  C   UNL     1      -4.417 -10.255   8.742  0.00  0.00    +0.120 A 
BRANCH  28   5
ATOM      5  O   UNL     1      -5.120  -9.972   7.612  0.00  0.00    -0.495 OA
ATOM     30  C   UNL     1      -6.395  -9.354   7.778  0.00  0.00    +0.277 C 
ENDBRANCH  28   5
ENDBRANCH  16  18
ENDBRANCH   8  16
TORSDOF 6
ENDMDL
MODEL 7
REMARK VINA RESULT:      -6.4     33.005     36.461
REMARK  Name = 75368629
REMARK  7 active torsions:
REMARK  status: ('A' for Active; 'I' for Inactive)
REMARK    1  A    between atoms: O_5  and  C_28
REMARK    2  A    between atoms: O_5  and  C_30
REMARK    3  A    between atoms: N_7  and  C_15
REMARK    4  A    between atoms: N_8  and  C_16
REMARK    5  A    between atoms: C_15  and  C_17
REMARK    6  A    between atoms: C_16  and  C_18
REMARK    7  A    between atoms: C_25  and  C_29
REMARK                            x       y       z     vdW  Elec       q    Type
REMARK                         _______ _______ _______ _____ _____    ______ ____
ROOT
ATOM      4  O   UNL     1      19.959   8.152  23.711  0.00  0.00    -0.252 OA
ATOM      6  N   UNL     1      20.880   6.390  22.460  0.00  0.00    -0.278 N 
ATOM      7  N   UNL     1      22.837   4.704  21.347  0.00  0.00    -0.295 NA
ATOM      8  N   UNL     1      19.244   7.615  21.529  0.00  0.00    -0.279 N 
ATOM      9  C   UNL     1      20.604   5.729  21.202  0.00  0.00    +0.109 C 
ATOM     10  C   UNL     1      21.906   5.433  20.461  0.00  0.00    +0.109 C 
ATOM     11  C   UNL     1      19.663   6.696  20.485  0.00  0.00    +0.133 C 
ATOM     12  C   UNL     1      21.887   5.840  23.344  0.00  0.00    +0.125 C 
ATOM     13  C   UNL     1      23.151   5.502  22.549  0.00  0.00    +0.104 C 
ATOM     14  C   UNL     1      20.017   7.469  22.698  0.00  0.00    +0.305 C 
ENDROOT
BRANCH   7  15
ATOM     15  C   UNL     1      24.063   4.362  20.628  0.00  0.00    +0.119 C 
BRANCH  15  17
ATOM     17  C   UNL     1      24.645   3.056  21.100  0.00  0.00    -0.033 A 
ATOM     19  C   UNL     1      23.905   1.879  20.978  0.00  0.00    +0.005 A 
ATOM     20  C   UNL     1      25.922   3.021  21.660  0.00  0.00    +0.005 A 
ATOM     23  C   UNL     1      24.443   0.669  21.414  0.00  0.00    +0.012 A 
ATOM     24  C   UNL     1      26.460   1.811  22.097  0.00  0.00    +0.012 A 
ATOM     25  C   UNL     1      25.720   0.635  21.974  0.00  0.00    +0.055 A 
BRANCH  25  29
ATOM      1  F   UNL     1      26.021  -1.710  21.609  0.00  0.00    -0.166 F 
ATOM      2  F   UNL     1      25.846  -1.051  23.667  0.00  0.00    -0.166 F 
ATOM      3  F   UNL     1      27.656  -0.624  22.541  0.00  0.00    -0.166 F 
ATOM     29  C   UNL     1      26.296  -0.660  22.438  0.00  0.00    +0.417 C 
ENDBRANCH  25  29
ENDBRANCH  15  17
ENDBRANCH   7  15
BRANCH   8  16
ATOM     16  C   UNL     1      18.250   8.639  21.295  0.00  0.00    +0.144 C 
BRANCH  16  18
ATOM     18  C   UNL     1      16.891   8.050  21.021  0.00  0.00    -0.030 A 
ATOM     21  C   UNL     1      15.802   8.411  21.815  0.00  0.00    +0.009 A 
ATOM     22  C   UNL     1      16.722   7.145  19.974  0.00  0.00    +0.009 A 
ATOM     26  C   UNL     1      14.543   7.866  21.561  0.00  0.00    +0.046 A 
ATOM     27  C   UNL     1      15.463   6.601  19.719  0.00  0.00    +0.046 A 
ATOM     28  C   UNL     1      14.374   6.960  20.513  0.00  0.00    +0.120 A 
BRANCH  28   5
ATOM      5  O   UNL     1      13.146   6.430  20.264  0.00  0.00    -0.495 OA
ATOM     30  C   UNL     1      12.133   6.653  21.244  0.00  0.00    +0.277 C 
ENDBRANCH  28   5
ENDBRANCH  16  18
ENDBRANCH   8  16
TORSDOF 6
ENDMDL
MODEL 8
REMARK VINA RESULT:      -6.4     18.363     19.755
REMARK  Name = 75368629
REMARK  7 active torsions:
REMARK  status: ('A' for Active; 'I' for Inactive)
REMARK    1  A    between atoms: O_5  and  C_28
REMARK    2  A    between atoms: O_5  and  C_30
REMARK    3  A    between atoms: N_7  and  C_15
REMARK    4  A    between atoms: N_8  and  C_16
REMARK    5  A    between atoms: C_15  and  C_17
REMARK    6  A    between atoms: C_16  and  C_18
REMARK    7  A    between atoms: C_25  and  C_29
REMARK                            x       y       z     vdW  Elec       q    Type
REMARK                         _______ _______ _______ _____ _____    ______ ____
ROOT
ATOM      4  O   UNL     1     -10.138 -11.269  19.869  0.00  0.00    -0.252 OA
ATOM      6  N   UNL     1      -8.260 -11.306  18.458  0.00  0.00    -0.278 N 
ATOM      7  N   UNL     1      -5.564 -11.509  17.681  0.00  0.00    -0.295 NA
ATOM      8  N   UNL     1      -9.802  -9.706  18.134  0.00  0.00    -0.279 N 
ATOM      9  C   UNL     1      -7.819 -10.614  17.266  0.00  0.00    +0.109 C 
ATOM     10  C   UNL     1      -6.330 -10.287  17.361  0.00  0.00    +0.109 C 
ATOM     11  C   UNL     1      -8.740  -9.397  17.193  0.00  0.00    +0.133 C 
ATOM     12  C   UNL     1      -7.493 -12.434  18.947  0.00  0.00    +0.125 C 
ATOM     13  C   UNL     1      -6.004 -12.082  18.969  0.00  0.00    +0.104 C 
ATOM     14  C   UNL     1      -9.485 -10.821  18.936  0.00  0.00    +0.305 C 
ENDROOT
BRANCH   7  15
ATOM     15  C   UNL     1      -4.132 -11.219  17.715  0.00  0.00    +0.119 C 
BRANCH  15  17
ATOM     17  C   UNL     1      -3.572 -10.995  16.334  0.00  0.00    -0.033 A 
ATOM     19  C   UNL     1      -4.364 -11.243  15.213  0.00  0.00    +0.005 A 
ATOM     20  C   UNL     1      -2.262 -10.540  16.177  0.00  0.00    +0.005 A 
ATOM     23  C   UNL     1      -3.847 -11.035  13.934  0.00  0.00    +0.012 A 
ATOM     24  C   UNL     1      -1.745 -10.334  14.899  0.00  0.00    +0.012 A 
ATOM     25  C   UNL     1      -2.537 -10.581  13.778  0.00  0.00    +0.055 A 
BRANCH  25  29
ATOM      1  F   UNL     1      -0.979  -9.434  12.371  0.00  0.00    -0.166 F 
ATOM      2  F   UNL     1      -2.913  -9.909  11.512  0.00  0.00    -0.166 F 
ATOM      3  F   UNL     1      -1.463 -11.491  11.861  0.00  0.00    -0.166 F 
ATOM     29  C   UNL     1      -1.985 -10.357  12.410  0.00  0.00    +0.417 C 
ENDBRANCH  25  29
ENDBRANCH  15  17
ENDBRANCH   7  15
BRANCH   8  16
ATOM     16  C   UNL     1     -10.956  -8.850  18.295  0.00  0.00    +0.144 C 
BRANCH  16  18
ATOM     18  C   UNL     1     -11.298  -8.124  17.021  0.00  0.00    -0.030 A 
ATOM     21  C   UNL     1     -10.882  -6.805  16.838  0.00  0.00    +0.009 A 
ATOM     22  C   UNL     1     -12.029  -8.770  16.025  0.00  0.00    +0.009 A 
ATOM     26  C   UNL     1     -11.198  -6.132  15.657  0.00  0.00    +0.046 A 
ATOM     27  C   UNL     1     -12.345  -8.098  14.844  0.00  0.00    +0.046 A 
ATOM     28  C   UNL     1     -11.930  -6.779  14.660  0.00  0.00    +0.120 A 
BRANCH  28   5
ATOM      5  O   UNL     1     -12.237  -6.123  13.508  0.00  0.00    -0.495 OA
ATOM     30  C   UNL     1     -12.972  -4.906  13.631  0.00  0.00    +0.277 C 
ENDBRANCH  28   5
ENDBRANCH  16  18
ENDBRANCH   8  16
TORSDOF 6
ENDMDL
MODEL 9
REMARK VINA RESULT:      -6.4     17.007     19.235
REMARK  Name = 75368629
REMARK  7 active torsions:
REMARK  status: ('A' for Active; 'I' for Inactive)
REMARK    1  A    between atoms: O_5  and  C_28
REMARK    2  A    between atoms: O_5  and  C_30
REMARK    3  A    between atoms: N_7  and  C_15
REMARK    4  A    between atoms: N_8  and  C_16
REMARK    5  A    between atoms: C_15  and  C_17
REMARK    6  A    between atoms: C_16  and  C_18
REMARK    7  A    between atoms: C_25  and  C_29
REMARK                            x       y       z     vdW  Elec       q    Type
REMARK                         _______ _______ _______ _____ _____    ______ ____
ROOT
ATOM      4  O   UNL     1     -14.135  -7.793  14.369  0.00  0.00    -0.252 OA
ATOM      6  N   UNL     1     -12.141  -8.391  15.456  0.00  0.00    -0.278 N 
ATOM      7  N   UNL     1     -10.444  -9.534  17.387  0.00  0.00    -0.295 NA
ATOM      8  N   UNL     1     -12.345  -6.290  14.688  0.00  0.00    -0.279 N 
ATOM      9  C   UNL     1     -10.846  -7.789  15.699  0.00  0.00    +0.109 C 
ATOM     10  C   UNL     1     -10.383  -8.081  17.124  0.00  0.00    +0.109 C 
ATOM     11  C   UNL     1     -11.071  -6.311  15.387  0.00  0.00    +0.133 C 
ATOM     12  C   UNL     1     -12.356  -9.777  15.817  0.00  0.00    +0.125 C 
ATOM     13  C   UNL     1     -11.823 -10.039  17.228  0.00  0.00    +0.104 C 
ATOM     14  C   UNL     1     -13.014  -7.528  14.782  0.00  0.00    +0.305 C 
ENDROOT
BRANCH   7  15
ATOM     15  C   UNL     1      -9.945  -9.830  18.729  0.00  0.00    +0.119 C 
BRANCH  15  17
ATOM     17  C   UNL     1      -8.555 -10.410  18.695  0.00  0.00    -0.033 A 
ATOM     19  C   UNL     1      -8.220 -11.468  19.541  0.00  0.00    +0.005 A 
ATOM     20  C   UNL     1      -7.603  -9.889  17.818  0.00  0.00    +0.005 A 
ATOM     23  C   UNL     1      -6.934 -12.005  19.510  0.00  0.00    +0.012 A 
ATOM     24  C   UNL     1      -6.316 -10.426  17.788  0.00  0.00    +0.012 A 
ATOM     25  C   UNL     1      -5.982 -11.484  18.633  0.00  0.00    +0.055 A 
BRANCH  25  29
ATOM      1  F   UNL     1      -3.758 -11.401  17.757  0.00  0.00    -0.166 F 
ATOM      2  F   UNL     1      -4.571 -13.364  18.187  0.00  0.00    -0.166 F 
ATOM      3  F   UNL     1      -3.999 -12.046  19.819  0.00  0.00    -0.166 F 
ATOM     29  C   UNL     1      -4.607 -12.061  18.598  0.00  0.00    +0.417 C 
ENDBRANCH  25  29
ENDBRANCH  15  17
ENDBRANCH   7  15
BRANCH   8  16
ATOM     16  C   UNL     1     -12.884  -5.079  14.114  0.00  0.00    +0.144 C 
BRANCH  16  18
ATOM     18  C   UNL     1     -12.489  -4.918  12.669  0.00  0.00    -0.030 A 
ATOM     21  C   UNL     1     -12.359  -6.042  11.853  0.00  0.00    +0.009 A 
ATOM     22  C   UNL     1     -12.255  -3.646  12.149  0.00  0.00    +0.009 A 
ATOM     26  C   UNL     1     -11.994  -5.893  10.514  0.00  0.00    +0.046 A 
ATOM     27  C   UNL     1     -11.890  -3.497  10.811  0.00  0.00    +0.046 A 
ATOM     28  C   UNL     1     -11.759  -4.619   9.994  0.00  0.00    +0.120 A 
BRANCH  28   5
ATOM      5  O   UNL     1     -11.404  -4.474   8.688  0.00  0.00    -0.495 OA
ATOM     30  C   UNL     1     -10.700  -5.557   8.083  0.00  0.00    +0.277 C 
ENDBRANCH  28   5
ENDBRANCH  16  18
ENDBRANCH   8  16
TORSDOF 6
ENDMDL
MODEL 10
REMARK VINA RESULT:      -6.3     29.974     33.560
REMARK  Name = 75368629
REMARK  7 active torsions:
REMARK  status: ('A' for Active; 'I' for Inactive)
REMARK    1  A    between atoms: O_5  and  C_28
REMARK    2  A    between atoms: O_5  and  C_30
REMARK    3  A    between atoms: N_7  and  C_15
REMARK    4  A    between atoms: N_8  and  C_16
REMARK    5  A    between atoms: C_15  and  C_17
REMARK    6  A    between atoms: C_16  and  C_18
REMARK    7  A    between atoms: C_25  and  C_29
REMARK                            x       y       z     vdW  Elec       q    Type
REMARK                         _______ _______ _______ _____ _____    ______ ____
ROOT
ATOM      4  O   UNL     1      16.368   9.981  20.761  0.00  0.00    -0.252 OA
ATOM      6  N   UNL     1      17.766   8.121  21.083  0.00  0.00    -0.278 N 
ATOM      7  N   UNL     1      20.136   6.613  21.238  0.00  0.00    -0.295 NA
ATOM      8  N   UNL     1      15.881   7.842  19.895  0.00  0.00    -0.279 N 
ATOM      9  C   UNL     1      17.713   6.699  20.818  0.00  0.00    +0.109 C 
ATOM     10  C   UNL     1      19.064   6.202  20.308  0.00  0.00    +0.109 C 
ATOM     11  C   UNL     1      16.561   6.560  19.823  0.00  0.00    +0.133 C 
ATOM     12  C   UNL     1      18.863   8.655  21.864  0.00  0.00    +0.125 C 
ATOM     13  C   UNL     1      20.190   8.084  21.358  0.00  0.00    +0.104 C 
ATOM     14  C   UNL     1      16.636   8.797  20.605  0.00  0.00    +0.305 C 
ENDROOT
BRANCH   7  15
ATOM     15  C   UNL     1      21.426   6.091  20.790  0.00  0.00    +0.119 C 
BRANCH  15  17
ATOM     17  C   UNL     1      21.899   4.950  21.653  0.00  0.00    -0.033 A 
ATOM     19  C   UNL     1      22.213   5.175  22.994  0.00  0.00    +0.005 A 
ATOM     20  C   UNL     1      22.023   3.670  21.112  0.00  0.00    +0.005 A 
ATOM     23  C   UNL     1      22.649   4.119  23.794  0.00  0.00    +0.012 A 
ATOM     24  C   UNL     1      22.461   2.615  21.912  0.00  0.00    +0.012 A 
ATOM     25  C   UNL     1      22.774   2.839  23.252  0.00  0.00    +0.055 A 
BRANCH  25  29
ATOM      1  F   UNL     1      23.844   0.706  23.410  0.00  0.00    -0.166 F 
ATOM      2  F   UNL     1      22.232   1.101  24.805  0.00  0.00    -0.166 F 
ATOM      3  F   UNL     1      24.147   2.102  25.048  0.00  0.00    -0.166 F 
ATOM     29  C   UNL     1      23.238   1.710  24.109  0.00  0.00    +0.417 C 
ENDBRANCH  25  29
ENDBRANCH  15  17
ENDBRANCH   7  15
BRANCH   8  16
ATOM     16  C   UNL     1      14.652   8.098  19.179  0.00  0.00    +0.144 C 
BRANCH  16  18
ATOM     18  C   UNL     1      13.546   8.539  20.101  0.00  0.00    -0.030 A 
ATOM     21  C   UNL     1      13.126   7.704  21.136  0.00  0.00    +0.009 A 
ATOM     22  C   UNL     1      12.943   9.784  19.921  0.00  0.00    +0.009 A 
ATOM     26  C   UNL     1      12.102   8.113  21.991  0.00  0.00    +0.046 A 
ATOM     27  C   UNL     1      11.920  10.194  20.776  0.00  0.00    +0.046 A 
ATOM     28  C   UNL     1      11.499   9.359  21.810  0.00  0.00    +0.120 A 
BRANCH  28   5
ATOM      5  O   UNL     1      10.502   9.758  22.645  0.00  0.00    -0.495 OA
ATOM     30  C   UNL     1      10.798  10.824  23.546  0.00  0.00    +0.277 C 
ENDBRANCH  28   5
ENDBRANCH  16  18
ENDBRANCH   8  16
TORSDOF 6
ENDMDL
