REMARK  Name = 7049300
REMARK  11 active torsions:
REMARK  status: ('A' for Active; 'I' for Inactive)
REMARK    1  A    between atoms: O_3  and  C_12
REMARK    2  A    between atoms: O_4  and  C_13
REMARK    3  A    between atoms: N_8  and  C_14
REMARK    4  A    between atoms: N_9  and  C_18
REMARK    5  A    between atoms: N_10  and  C_26
REMARK    6  A    between atoms: C_16  and  C_19
REMARK    7  A    between atoms: C_18  and  C_20
REMARK    8  A    between atoms: C_18  and  C_25
REMARK    9  A    between atoms: C_20  and  C_21
REMARK   10  A    between atoms: C_21  and  C_22
REMARK   11  A    between atoms: C_21  and  C_23
REMARK                            x       y       z     vdW  Elec       q    Type
REMARK                         _______ _______ _______ _____ _____    ______ ____
ROOT
ATOM     12  C   UNL     1       0.053   2.949   0.578  0.00  0.00    +0.167 C 
ATOM     13  C   UNL     1       1.297   3.798   0.289  0.00  0.00    +0.149 C 
ATOM     14  C   UNL     1      -0.064   1.767  -0.403  0.00  0.00    +0.129 C 
ATOM     15  C   UNL     1       2.587   2.961   0.309  0.00  0.00    +0.074 C 
ATOM     16  C   UNL     1       2.422   1.598  -0.301  0.00  0.00    +0.015 C 
ATOM     17  C   UNL     1       1.242   1.054  -0.633  0.00  0.00    +0.006 C 
ENDROOT
BRANCH  14   8
ATOM      6  O   UNL     1      -2.861   1.779  -1.020  0.00  0.00    -0.252 OA
ATOM      8  N   UNL     1      -1.048   0.807   0.036  0.00  0.00    -0.290 N 
ATOM     10  N   UNL     1      -3.111  -0.176   0.255  0.00  0.00    -0.267 N 
ATOM     24  C   UNL     1      -2.401   0.885  -0.312  0.00  0.00    +0.304 C 
ATOM     32  H   UNL     1      -0.757   0.068   0.669  0.00  0.00    +0.151 HD
ATOM     36  H   UNL     1      -2.579  -0.835   0.818  0.00  0.00    +0.156 HD
BRANCH  10  26
ATOM      1  F   UNL     1      -4.261  -2.384   1.509  0.00  0.00    -0.203 F 
ATOM      2  F   UNL     1      -8.531  -1.254  -0.187  0.00  0.00    -0.205 F 
ATOM     26  C   UNL     1      -4.494  -0.455   0.143  0.00  0.00    +0.070 A 
ATOM     27  C   UNL     1      -5.039  -1.567   0.783  0.00  0.00    +0.147 A 
ATOM     28  C   UNL     1      -5.312   0.388  -0.609  0.00  0.00    +0.029 A 
ATOM     29  C   UNL     1      -6.402  -1.838   0.672  0.00  0.00    +0.078 A 
ATOM     30  C   UNL     1      -6.676   0.117  -0.721  0.00  0.00    +0.040 A 
ATOM     31  C   UNL     1      -7.221  -0.995  -0.081  0.00  0.00    +0.126 A 
ENDBRANCH  10  26
ENDBRANCH  14   8
BRANCH  16  19
ATOM      5  O   UNL     1       4.499   1.244  -1.323  0.00  0.00    -0.271 OA
ATOM      9  N   UNL     1       3.642  -0.402   0.089  0.00  0.00    -0.300 N 
ATOM     19  C   UNL     1       3.630   0.813  -0.574  0.00  0.00    +0.241 C 
ATOM     33  H   UNL     1       2.893  -0.620   0.740  0.00  0.00    +0.150 HD
BRANCH   9  18
ATOM     18  C   UNL     1       4.723  -1.346  -0.025  0.00  0.00    +0.159 C 
BRANCH  18  25
ATOM      7  O   UNL     1       5.493  -0.485   2.114  0.00  0.00    -0.274 OA
ATOM     11  N   UNL     1       7.054  -1.238   0.608  0.00  0.00    -0.328 N 
ATOM     25  C   UNL     1       5.767  -0.957   1.013  0.00  0.00    +0.231 C 
ATOM     37  H   UNL     1       7.845  -1.041   1.212  0.00  0.00    +0.145 HD
ATOM     38  H   UNL     1       7.265  -1.650  -0.296  0.00  0.00    +0.145 HD
ENDBRANCH  18  25
BRANCH  18  20
ATOM     20  C   UNL     1       4.260  -2.790   0.202  0.00  0.00    +0.034 C 
BRANCH  20  21
ATOM     21  C   UNL     1       3.147  -3.271  -0.752  0.00  0.00    -0.015 C 
ATOM     22  C   UNL     1       2.735  -4.699  -0.387  0.00  0.00    +0.007 C 
ATOM     23  C   UNL     1       3.573  -3.216  -2.219  0.00  0.00    +0.007 C 
ENDBRANCH  20  21
ENDBRANCH  18  20
ENDBRANCH   9  18
ENDBRANCH  16  19
BRANCH  12   3
ATOM      3  O   UNL     1       0.134   2.456   1.917  0.00  0.00    -0.387 OA
ATOM     34  H   UNL     1       0.177   3.226   2.510  0.00  0.00    +0.210 HD
ENDBRANCH  12   3
BRANCH  13   4
ATOM      4  O   UNL     1       1.161   4.457  -0.969  0.00  0.00    -0.389 OA
ATOM     35  H   UNL     1       1.946   5.018  -1.093  0.00  0.00    +0.210 HD
ENDBRANCH  13   4
TORSDOF 9
