MODEL 1
REMARK VINA RESULT:      -6.2      0.000      0.000
REMARK  Name = 38026946
REMARK  10 active torsions:
REMARK  status: ('A' for Active; 'I' for Inactive)
REMARK    1  A    between atoms: N_4  and  C_14
REMARK    2  A    between atoms: C_7  and  C_11
REMARK    3  A    between atoms: C_8  and  C_14
REMARK    4  A    between atoms: C_10  and  C_16
REMARK    5  A    between atoms: C_11  and  C_19
REMARK    6  A    between atoms: C_11  and  C_20
REMARK    7  A    between atoms: C_12  and  C_22
REMARK    8  A    between atoms: C_15  and  C_21
REMARK    9  A    between atoms: C_16  and  C_23
REMARK   10  A    between atoms: C_28  and  C_29
REMARK                            x       y       z     vdW  Elec       q    Type
REMARK                         _______ _______ _______ _____ _____    ______ ____
ROOT
ATOM      7  C   UNL     1      -2.963 -12.397  13.171  0.00  0.00    +0.000 C 
ATOM      8  C   UNL     1      -1.895 -11.276  13.155  0.00  0.00    +0.032 C 
ATOM      9  C   UNL     1      -3.333 -12.805  11.736  0.00  0.00    +0.012 C 
ATOM     10  C   UNL     1      -3.880 -11.622  10.917  0.00  0.00    +0.023 C 
ATOM     12  C   UNL     1      -3.016 -10.385  11.067  0.00  0.00    -0.073 C 
ATOM     13  C   UNL     1      -2.125 -10.255  12.066  0.00  0.00    -0.022 C 
ATOM     22  C   UNL     1      -3.167  -9.322  10.016  0.00  0.00    +0.039 C 
ENDROOT
BRANCH   7  11
ATOM     11  C   UNL     1      -2.487 -13.625  13.953  0.00  0.00    -0.013 C 
ATOM     19  C   UNL     1      -3.644 -14.240  14.734  0.00  0.00    +0.007 C 
ATOM     20  C   UNL     1      -1.867 -14.650  13.009  0.00  0.00    +0.007 C 
ENDBRANCH   7  11
BRANCH   8  14
ATOM     14  C   UNL     1      -1.817 -10.566  14.512  0.00  0.00    +0.112 C 
BRANCH  14   4
ATOM      1  O   UNL     1      -2.924 -11.217  17.121  0.00  0.00    -0.276 OA
ATOM      4  N   UNL     1      -3.126 -10.266  15.003  0.00  0.00    -0.315 N 
ATOM     21  C   UNL     1      -3.572 -10.618  16.272  0.00  0.00    +0.216 C 
ATOM     30  H   UNL     1      -3.745  -9.721  14.409  0.00  0.00    +0.149 HD
BRANCH  21  15
ATOM     15  C   UNL     1      -4.974 -10.201  16.574  0.00  0.00    +0.075 C 
ATOM     17  C   UNL     1      -5.895  -9.863  15.438  0.00  0.00    +0.013 C 
ATOM     18  C   UNL     1      -6.102 -11.126  16.222  0.00  0.00    +0.013 C 
ENDBRANCH  21  15
ENDBRANCH  14   4
ENDBRANCH   8  14
BRANCH  10  16
ATOM     16  C   UNL     1      -5.336 -11.320  11.285  0.00  0.00    +0.103 C 
BRANCH  16  23
ATOM      2  O   UNL     1      -6.294 -12.636   9.562  0.00  0.00    -0.276 OA
ATOM      3  O   UNL     1      -8.140  -5.872   8.170  0.00  0.00    -0.276 OA
ATOM      5  N   UNL     1      -6.912 -10.398   9.622  0.00  0.00    -0.298 N 
ATOM      6  N   UNL     1      -7.471  -8.095   8.071  0.00  0.00    -0.299 N 
ATOM     23  C   UNL     1      -6.221 -11.519  10.080  0.00  0.00    +0.216 C 
ATOM     24  C   UNL     1      -7.790 -10.506   8.454  0.00  0.00    +0.126 C 
ATOM     25  C   UNL     1      -6.906  -9.076  10.260  0.00  0.00    +0.126 C 
ATOM     26  C   UNL     1      -7.476  -9.417   7.432  0.00  0.00    +0.126 C 
ATOM     27  C   UNL     1      -6.592  -7.986   9.238  0.00  0.00    +0.126 C 
ATOM     28  C   UNL     1      -8.163  -6.974   7.614  0.00  0.00    +0.213 C 
ATOM     29  C   UNL     1      -8.984  -7.152   6.362  0.00  0.00    +0.109 C 
ENDBRANCH  16  23
ENDBRANCH  10  16
TORSDOF 6
ENDMDL
MODEL 2
REMARK VINA RESULT:      -6.2      5.420      7.363
REMARK  Name = 38026946
REMARK  10 active torsions:
REMARK  status: ('A' for Active; 'I' for Inactive)
REMARK    1  A    between atoms: N_4  and  C_14
REMARK    2  A    between atoms: C_7  and  C_11
REMARK    3  A    between atoms: C_8  and  C_14
REMARK    4  A    between atoms: C_10  and  C_16
REMARK    5  A    between atoms: C_11  and  C_19
REMARK    6  A    between atoms: C_11  and  C_20
REMARK    7  A    between atoms: C_12  and  C_22
REMARK    8  A    between atoms: C_15  and  C_21
REMARK    9  A    between atoms: C_16  and  C_23
REMARK   10  A    between atoms: C_28  and  C_29
REMARK                            x       y       z     vdW  Elec       q    Type
REMARK                         _______ _______ _______ _____ _____    ______ ____
ROOT
ATOM      7  C   UNL     1      -7.673 -10.385  17.707  0.00  0.00    +0.000 C 
ATOM      8  C   UNL     1      -6.919 -10.358  16.355  0.00  0.00    +0.032 C 
ATOM      9  C   UNL     1      -9.104 -10.909  17.513  0.00  0.00    +0.012 C 
ATOM     10  C   UNL     1      -9.910 -10.049  16.523  0.00  0.00    +0.023 C 
ATOM     12  C   UNL     1      -9.122  -9.752  15.263  0.00  0.00    -0.073 C 
ATOM     13  C   UNL     1      -7.787  -9.908  15.203  0.00  0.00    -0.022 C 
ATOM     22  C   UNL     1      -9.908  -9.314  14.059  0.00  0.00    +0.039 C 
ENDROOT
BRANCH   7  11
ATOM     11  C   UNL     1      -6.944 -11.241  18.747  0.00  0.00    -0.013 C 
ATOM     19  C   UNL     1      -6.265 -10.354  19.786  0.00  0.00    +0.007 C 
ATOM     20  C   UNL     1      -7.914 -12.210  19.414  0.00  0.00    +0.007 C 
ENDBRANCH   7  11
BRANCH   8  14
ATOM     14  C   UNL     1      -5.674  -9.466  16.433  0.00  0.00    +0.112 C 
BRANCH  14   4
ATOM      1  O   UNL     1      -3.678 -11.262  17.551  0.00  0.00    -0.276 OA
ATOM      4  N   UNL     1      -4.572 -10.075  15.755  0.00  0.00    -0.315 N 
ATOM     21  C   UNL     1      -3.662 -10.925  16.373  0.00  0.00    +0.216 C 
ATOM     30  H   UNL     1      -4.480  -9.917  14.755  0.00  0.00    +0.149 HD
BRANCH  21  15
ATOM     15  C   UNL     1      -2.592 -11.449  15.473  0.00  0.00    +0.075 C 
ATOM     17  C   UNL     1      -2.119 -10.598  14.331  0.00  0.00    +0.013 C 
ATOM     18  C   UNL     1      -1.229 -10.821  15.518  0.00  0.00    +0.013 C 
ENDBRANCH  21  15
ENDBRANCH  14   4
ENDBRANCH   8  14
BRANCH  10  16
ATOM     16  C   UNL     1     -10.396  -8.754  17.184  0.00  0.00    +0.103 C 
BRANCH  16  23
ATOM      2  O   UNL     1     -12.661  -9.441  17.305  0.00  0.00    -0.276 OA
ATOM      3  O   UNL     1     -12.556  -3.630  13.145  0.00  0.00    -0.276 OA
ATOM      5  N   UNL     1     -12.250  -7.403  16.270  0.00  0.00    -0.298 N 
ATOM      6  N   UNL     1     -12.960  -5.698  14.122  0.00  0.00    -0.299 N 
ATOM     23  C   UNL     1     -11.871  -8.572  16.930  0.00  0.00    +0.216 C 
ATOM     24  C   UNL     1     -13.664  -7.151  15.981  0.00  0.00    +0.126 C 
ATOM     25  C   UNL     1     -11.345  -6.316  15.877  0.00  0.00    +0.126 C 
ATOM     26  C   UNL     1     -13.866  -6.787  14.513  0.00  0.00    +0.126 C 
ATOM     27  C   UNL     1     -11.546  -5.950  14.409  0.00  0.00    +0.126 C 
ATOM     28  C   UNL     1     -13.339  -4.530  13.463  0.00  0.00    +0.213 C 
ATOM     29  C   UNL     1     -14.804  -4.383  13.137  0.00  0.00    +0.109 C 
ENDBRANCH  16  23
ENDBRANCH  10  16
TORSDOF 6
ENDMDL
MODEL 3
REMARK VINA RESULT:      -6.1     28.157     31.121
REMARK  Name = 38026946
REMARK  10 active torsions:
REMARK  status: ('A' for Active; 'I' for Inactive)
REMARK    1  A    between atoms: N_4  and  C_14
REMARK    2  A    between atoms: C_7  and  C_11
REMARK    3  A    between atoms: C_8  and  C_14
REMARK    4  A    between atoms: C_10  and  C_16
REMARK    5  A    between atoms: C_11  and  C_19
REMARK    6  A    between atoms: C_11  and  C_20
REMARK    7  A    between atoms: C_12  and  C_22
REMARK    8  A    between atoms: C_15  and  C_21
REMARK    9  A    between atoms: C_16  and  C_23
REMARK   10  A    between atoms: C_28  and  C_29
REMARK                            x       y       z     vdW  Elec       q    Type
REMARK                         _______ _______ _______ _____ _____    ______ ____
ROOT
ATOM      7  C   UNL     1      20.840   6.771  22.087  0.00  0.00    +0.000 C 
ATOM      8  C   UNL     1      21.117   5.545  21.183  0.00  0.00    +0.032 C 
ATOM      9  C   UNL     1      19.364   6.802  22.512  0.00  0.00    +0.012 C 
ATOM     10  C   UNL     1      18.412   6.862  21.303  0.00  0.00    +0.023 C 
ATOM     12  C   UNL     1      18.788   5.852  20.238  0.00  0.00    -0.073 C 
ATOM     13  C   UNL     1      19.997   5.264  20.208  0.00  0.00    -0.022 C 
ATOM     22  C   UNL     1      17.727   5.499  19.234  0.00  0.00    +0.039 C 
ENDROOT
BRANCH   7  11
ATOM     11  C   UNL     1      21.737   6.775  23.329  0.00  0.00    -0.013 C 
ATOM     19  C   UNL     1      22.773   7.891  23.233  0.00  0.00    +0.007 C 
ATOM     20  C   UNL     1      20.896   6.925  24.593  0.00  0.00    +0.007 C 
ENDBRANCH   7  11
BRANCH   8  14
ATOM     14  C   UNL     1      22.434   5.709  20.414  0.00  0.00    +0.112 C 
BRANCH  14   4
ATOM      1  O   UNL     1      24.583   4.422  21.890  0.00  0.00    -0.276 OA
ATOM      4  N   UNL     1      23.030   4.436  20.152  0.00  0.00    -0.315 N 
ATOM     21  C   UNL     1      24.059   3.897  20.915  0.00  0.00    +0.216 C 
ATOM     30  H   UNL     1      22.645   3.875  19.398  0.00  0.00    +0.149 HD
BRANCH  21  15
ATOM     15  C   UNL     1      24.527   2.553  20.462  0.00  0.00    +0.075 C 
ATOM     17  C   UNL     1      25.481   1.783  21.328  0.00  0.00    +0.013 C 
ATOM     18  C   UNL     1      24.056   1.331  21.196  0.00  0.00    +0.013 C 
ENDBRANCH  21  15
ENDBRANCH  14   4
ENDBRANCH   8  14
BRANCH  10  16
ATOM     16  C   UNL     1      18.350   8.277  20.719  0.00  0.00    +0.103 C 
BRANCH  16  23
ATOM      2  O   UNL     1      17.501   9.784  22.340  0.00  0.00    -0.276 OA
ATOM      3  O   UNL     1      11.812   7.025  19.004  0.00  0.00    -0.276 OA
ATOM      5  N   UNL     1      15.962   8.894  20.845  0.00  0.00    -0.298 N 
ATOM      6  N   UNL     1      13.341   7.863  20.540  0.00  0.00    -0.299 N 
ATOM     23  C   UNL     1      17.240   9.056  21.379  0.00  0.00    +0.216 C 
ATOM     24  C   UNL     1      14.828   9.613  21.431  0.00  0.00    +0.126 C 
ATOM     25  C   UNL     1      15.630   8.096  19.658  0.00  0.00    +0.126 C 
ATOM     26  C   UNL     1      13.672   8.661  21.728  0.00  0.00    +0.126 C 
ATOM     27  C   UNL     1      14.474   7.144  19.954  0.00  0.00    +0.126 C 
ATOM     28  C   UNL     1      12.064   7.703  20.005  0.00  0.00    +0.213 C 
ATOM     29  C   UNL     1      10.941   8.417  20.713  0.00  0.00    +0.109 C 
ENDBRANCH  16  23
ENDBRANCH  10  16
TORSDOF 6
ENDMDL
MODEL 4
REMARK VINA RESULT:      -5.9     23.257     26.329
REMARK  Name = 38026946
REMARK  10 active torsions:
REMARK  status: ('A' for Active; 'I' for Inactive)
REMARK    1  A    between atoms: N_4  and  C_14
REMARK    2  A    between atoms: C_7  and  C_11
REMARK    3  A    between atoms: C_8  and  C_14
REMARK    4  A    between atoms: C_10  and  C_16
REMARK    5  A    between atoms: C_11  and  C_19
REMARK    6  A    between atoms: C_11  and  C_20
REMARK    7  A    between atoms: C_12  and  C_22
REMARK    8  A    between atoms: C_15  and  C_21
REMARK    9  A    between atoms: C_16  and  C_23
REMARK   10  A    between atoms: C_28  and  C_29
REMARK                            x       y       z     vdW  Elec       q    Type
REMARK                         _______ _______ _______ _____ _____    ______ ____
ROOT
ATOM      7  C   UNL     1     -15.665   5.409  31.090  0.00  0.00    +0.000 C 
ATOM      8  C   UNL     1     -15.012   5.377  32.493  0.00  0.00    +0.032 C 
ATOM      9  C   UNL     1     -16.662   4.251  30.935  0.00  0.00    +0.012 C 
ATOM     10  C   UNL     1     -15.994   2.878  31.130  0.00  0.00    +0.023 C 
ATOM     12  C   UNL     1     -15.111   2.850  32.362  0.00  0.00    -0.073 C 
ATOM     13  C   UNL     1     -14.693   3.977  32.964  0.00  0.00    -0.022 C 
ATOM     22  C   UNL     1     -14.756   1.497  32.911  0.00  0.00    +0.039 C 
ENDROOT
BRANCH   7  11
ATOM     11  C   UNL     1     -16.372   6.742  30.823  0.00  0.00    -0.013 C 
ATOM     19  C   UNL     1     -16.934   6.772  29.405  0.00  0.00    +0.007 C 
ATOM     20  C   UNL     1     -17.478   6.972  31.847  0.00  0.00    +0.007 C 
ENDBRANCH   7  11
BRANCH   8  14
ATOM     14  C   UNL     1     -13.739   6.231  32.532  0.00  0.00    +0.112 C 
BRANCH  14   4
ATOM      1  O   UNL     1     -12.426   8.742  33.185  0.00  0.00    -0.276 OA
ATOM      4  N   UNL     1     -13.553   6.806  33.828  0.00  0.00    -0.315 N 
ATOM     21  C   UNL     1     -12.910   8.018  34.047  0.00  0.00    +0.216 C 
ATOM     30  H   UNL     1     -13.960   6.325  34.626  0.00  0.00    +0.149 HD
BRANCH  21  15
ATOM     15  C   UNL     1     -12.832   8.428  35.481  0.00  0.00    +0.075 C 
ATOM     17  C   UNL     1     -12.516   7.392  36.520  0.00  0.00    +0.013 C 
ATOM     18  C   UNL     1     -11.497   8.436  36.167  0.00  0.00    +0.013 C 
ENDBRANCH  21  15
ENDBRANCH  14   4
ENDBRANCH   8  14
BRANCH  10  16
ATOM     16  C   UNL     1     -15.206   2.464  29.882  0.00  0.00    +0.103 C 
BRANCH  16  23
ATOM      2  O   UNL     1     -16.103   0.292  29.573  0.00  0.00    -0.276 OA
ATOM      3  O   UNL     1     -17.184   3.791  23.434  0.00  0.00    -0.276 OA
ATOM      5  N   UNL     1     -16.520   1.835  27.887  0.00  0.00    -0.298 N 
ATOM      6  N   UNL     1     -16.711   2.230  25.089  0.00  0.00    -0.299 N 
ATOM     23  C   UNL     1     -15.981   1.428  29.107  0.00  0.00    +0.216 C 
ATOM     24  C   UNL     1     -17.284   0.887  27.072  0.00  0.00    +0.126 C 
ATOM     25  C   UNL     1     -16.457   3.196  27.341  0.00  0.00    +0.126 C 
ATOM     26  C   UNL     1     -16.773   0.868  25.634  0.00  0.00    +0.126 C 
ATOM     27  C   UNL     1     -15.947   3.178  25.903  0.00  0.00    +0.126 C 
ATOM     28  C   UNL     1     -17.251   2.638  23.870  0.00  0.00    +0.213 C 
ATOM     29  C   UNL     1     -17.957   1.582  23.057  0.00  0.00    +0.109 C 
ENDBRANCH  16  23
ENDBRANCH  10  16
TORSDOF 6
ENDMDL
MODEL 5
REMARK VINA RESULT:      -5.9     28.372     31.936
REMARK  Name = 38026946
REMARK  10 active torsions:
REMARK  status: ('A' for Active; 'I' for Inactive)
REMARK    1  A    between atoms: N_4  and  C_14
REMARK    2  A    between atoms: C_7  and  C_11
REMARK    3  A    between atoms: C_8  and  C_14
REMARK    4  A    between atoms: C_10  and  C_16
REMARK    5  A    between atoms: C_11  and  C_19
REMARK    6  A    between atoms: C_11  and  C_20
REMARK    7  A    between atoms: C_12  and  C_22
REMARK    8  A    between atoms: C_15  and  C_21
REMARK    9  A    between atoms: C_16  and  C_23
REMARK   10  A    between atoms: C_28  and  C_29
REMARK                            x       y       z     vdW  Elec       q    Type
REMARK                         _______ _______ _______ _____ _____    ______ ____
ROOT
ATOM      7  C   UNL     1      17.544   8.506  21.582  0.00  0.00    +0.000 C 
ATOM      8  C   UNL     1      16.646   7.664  20.643  0.00  0.00    +0.032 C 
ATOM      9  C   UNL     1      18.991   8.525  21.065  0.00  0.00    +0.012 C 
ATOM     10  C   UNL     1      19.589   7.111  20.957  0.00  0.00    +0.023 C 
ATOM     12  C   UNL     1      18.639   6.148  20.273  0.00  0.00    -0.073 C 
ATOM     13  C   UNL     1      17.330   6.418  20.131  0.00  0.00    -0.022 C 
ATOM     22  C   UNL     1      19.238   4.886  19.716  0.00  0.00    +0.039 C 
ENDROOT
BRANCH   7  11
ATOM     11  C   UNL     1      17.026   9.940  21.728  0.00  0.00    -0.013 C 
ATOM     19  C   UNL     1      18.088  10.826  22.373  0.00  0.00    +0.007 C 
ATOM     20  C   UNL     1      16.609  10.497  20.371  0.00  0.00    +0.007 C 
ENDBRANCH   7  11
BRANCH   8  14
ATOM     14  C   UNL     1      15.332   7.277  21.333  0.00  0.00    +0.112 C 
BRANCH  14   4
ATOM      1  O   UNL     1      13.487   9.338  22.229  0.00  0.00    -0.276 OA
ATOM      4  N   UNL     1      14.211   7.811  20.625  0.00  0.00    -0.315 N 
ATOM     21  C   UNL     1      13.378   8.801  21.134  0.00  0.00    +0.216 C 
ATOM     30  H   UNL     1      14.046   7.484  19.676  0.00  0.00    +0.149 HD
BRANCH  21  15
ATOM     15  C   UNL     1      12.271   9.211  20.220  0.00  0.00    +0.075 C 
ATOM     17  C   UNL     1      11.856   8.283  19.116  0.00  0.00    +0.013 C 
ATOM     18  C   UNL     1      10.956   8.491  20.299  0.00  0.00    +0.013 C 
ENDBRANCH  21  15
ENDBRANCH  14   4
ENDBRANCH   8  14
BRANCH  10  16
ATOM     16  C   UNL     1      20.010   6.582  22.332  0.00  0.00    +0.103 C 
BRANCH  16  23
ATOM      2  O   UNL     1      21.985   7.841  22.695  0.00  0.00    -0.276 OA
ATOM      3  O   UNL     1      24.112   1.215  21.063  0.00  0.00    -0.276 OA
ATOM      5  N   UNL     1      22.252   5.550  22.421  0.00  0.00    -0.298 N 
ATOM      6  N   UNL     1      23.851   3.514  21.272  0.00  0.00    -0.299 N 
ATOM     23  C   UNL     1      21.502   6.723  22.501  0.00  0.00    +0.216 C 
ATOM     24  C   UNL     1      23.708   5.601  22.571  0.00  0.00    +0.126 C 
ATOM     25  C   UNL     1      21.702   4.197  22.266  0.00  0.00    +0.126 C 
ATOM     26  C   UNL     1      24.401   4.867  21.426  0.00  0.00    +0.126 C 
ATOM     27  C   UNL     1      22.395   3.462  21.121  0.00  0.00    +0.126 C 
ATOM     28  C   UNL     1      24.600   2.341  21.194  0.00  0.00    +0.213 C 
ATOM     29  C   UNL     1      26.098   2.490  21.282  0.00  0.00    +0.109 C 
ENDBRANCH  16  23
ENDBRANCH  10  16
TORSDOF 6
ENDMDL
MODEL 6
REMARK VINA RESULT:      -5.9     23.022     25.518
REMARK  Name = 38026946
REMARK  10 active torsions:
REMARK  status: ('A' for Active; 'I' for Inactive)
REMARK    1  A    between atoms: N_4  and  C_14
REMARK    2  A    between atoms: C_7  and  C_11
REMARK    3  A    between atoms: C_8  and  C_14
REMARK    4  A    between atoms: C_10  and  C_16
REMARK    5  A    between atoms: C_11  and  C_19
REMARK    6  A    between atoms: C_11  and  C_20
REMARK    7  A    between atoms: C_12  and  C_22
REMARK    8  A    between atoms: C_15  and  C_21
REMARK    9  A    between atoms: C_16  and  C_23
REMARK   10  A    between atoms: C_28  and  C_29
REMARK                            x       y       z     vdW  Elec       q    Type
REMARK                         _______ _______ _______ _____ _____    ______ ____
ROOT
ATOM      7  C   UNL     1       8.902   8.558   4.771  0.00  0.00    +0.000 C 
ATOM      8  C   UNL     1       8.571   9.236   6.124  0.00  0.00    +0.032 C 
ATOM      9  C   UNL     1       8.432   7.095   4.775  0.00  0.00    +0.012 C 
ATOM     10  C   UNL     1       9.085   6.276   5.903  0.00  0.00    +0.023 C 
ATOM     12  C   UNL     1       9.035   7.006   7.231  0.00  0.00    -0.073 C 
ATOM     13  C   UNL     1       8.792   8.326   7.310  0.00  0.00    -0.022 C 
ATOM     22  C   UNL     1       9.228   6.175   8.468  0.00  0.00    +0.039 C 
ENDROOT
BRANCH   7  11
ATOM     11  C   UNL     1       8.269   9.304   3.592  0.00  0.00    -0.013 C 
ATOM     19  C   UNL     1       8.438   8.504   2.304  0.00  0.00    +0.007 C 
ATOM     20  C   UNL     1       6.795   9.582   3.867  0.00  0.00    +0.007 C 
ENDBRANCH   7  11
BRANCH   8  14
ATOM     14  C   UNL     1       9.382  10.524   6.311  0.00  0.00    +0.112 C 
BRANCH  14   4
ATOM      1  O   UNL     1      11.802  10.049   7.852  0.00  0.00    -0.276 OA
ATOM      4  N   UNL     1      10.713  10.362   5.816  0.00  0.00    -0.315 N 
ATOM     21  C   UNL     1      11.816  10.137   6.631  0.00  0.00    +0.216 C 
ATOM     30  H   UNL     1      10.851  10.360   4.808  0.00  0.00    +0.149 HD
BRANCH  21  15
ATOM     15  C   UNL     1      13.110   9.995   5.898  0.00  0.00    +0.075 C 
ATOM     17  C   UNL     1      14.176   9.105   6.467  0.00  0.00    +0.013 C 
ATOM     18  C   UNL     1      13.431   8.688   5.232  0.00  0.00    +0.013 C 
ENDBRANCH  21  15
ENDBRANCH  14   4
ENDBRANCH   8  14
BRANCH  10  16
ATOM     16  C   UNL     1      10.524   5.890   5.544  0.00  0.00    +0.103 C 
BRANCH  16  23
ATOM      2  O   UNL     1      10.028   3.632   5.020  0.00  0.00    -0.276 OA
ATOM      3  O   UNL     1      14.047   6.091  -0.355  0.00  0.00    -0.276 OA
ATOM      5  N   UNL     1      11.084   4.872   3.364  0.00  0.00    -0.298 N 
ATOM      6  N   UNL     1      13.050   4.834   1.325  0.00  0.00    -0.299 N 
ATOM     23  C   UNL     1      10.518   4.693   4.626  0.00  0.00    +0.216 C 
ATOM     24  C   UNL     1      11.122   3.757   2.415  0.00  0.00    +0.126 C 
ATOM     25  C   UNL     1      11.608   6.139   2.838  0.00  0.00    +0.126 C 
ATOM     26  C   UNL     1      12.528   3.566   1.851  0.00  0.00    +0.126 C 
ATOM     27  C   UNL     1      13.014   5.949   2.274  0.00  0.00    +0.126 C 
ATOM     28  C   UNL     1      13.614   5.013   0.063  0.00  0.00    +0.213 C 
ATOM     29  C   UNL     1      13.682   3.797  -0.825  0.00  0.00    +0.109 C 
ENDBRANCH  16  23
ENDBRANCH  10  16
TORSDOF 6
ENDMDL
MODEL 7
REMARK VINA RESULT:      -5.8     23.013     25.378
REMARK  Name = 38026946
REMARK  10 active torsions:
REMARK  status: ('A' for Active; 'I' for Inactive)
REMARK    1  A    between atoms: N_4  and  C_14
REMARK    2  A    between atoms: C_7  and  C_11
REMARK    3  A    between atoms: C_8  and  C_14
REMARK    4  A    between atoms: C_10  and  C_16
REMARK    5  A    between atoms: C_11  and  C_19
REMARK    6  A    between atoms: C_11  and  C_20
REMARK    7  A    between atoms: C_12  and  C_22
REMARK    8  A    between atoms: C_15  and  C_21
REMARK    9  A    between atoms: C_16  and  C_23
REMARK   10  A    between atoms: C_28  and  C_29
REMARK                            x       y       z     vdW  Elec       q    Type
REMARK                         _______ _______ _______ _____ _____    ______ ____
ROOT
ATOM      7  C   UNL     1       8.925   8.596   4.783  0.00  0.00    +0.000 C 
ATOM      8  C   UNL     1       8.609   9.277   6.137  0.00  0.00    +0.032 C 
ATOM      9  C   UNL     1       8.453   7.134   4.794  0.00  0.00    +0.012 C 
ATOM     10  C   UNL     1       9.118   6.317   5.917  0.00  0.00    +0.023 C 
ATOM     12  C   UNL     1       9.082   7.050   7.244  0.00  0.00    -0.073 C 
ATOM     13  C   UNL     1       8.840   8.370   7.323  0.00  0.00    -0.022 C 
ATOM     22  C   UNL     1       9.287   6.221   8.481  0.00  0.00    +0.039 C 
ENDROOT
BRANCH   7  11
ATOM     11  C   UNL     1       8.280   9.340   3.609  0.00  0.00    -0.013 C 
ATOM     19  C   UNL     1       8.460   8.551   2.315  0.00  0.00    +0.007 C 
ATOM     20  C   UNL     1       6.803   9.594   3.886  0.00  0.00    +0.007 C 
ENDBRANCH   7  11
BRANCH   8  14
ATOM     14  C   UNL     1       9.422  10.565   6.313  0.00  0.00    +0.112 C 
BRANCH  14   4
ATOM      1  O   UNL     1      11.216  12.313   7.790  0.00  0.00    -0.276 OA
ATOM      4  N   UNL     1       9.224  11.116   7.617  0.00  0.00    -0.315 N 
ATOM     21  C   UNL     1      10.141  11.947   8.250  0.00  0.00    +0.216 C 
ATOM     30  H   UNL     1       8.341  10.929   8.085  0.00  0.00    +0.149 HD
BRANCH  21  15
ATOM     15  C   UNL     1       9.725  12.408   9.608  0.00  0.00    +0.075 C 
ATOM     17  C   UNL     1       8.847  11.522  10.442  0.00  0.00    +0.013 C 
ATOM     18  C   UNL     1      10.287  11.717  10.817  0.00  0.00    +0.013 C 
ENDBRANCH  21  15
ENDBRANCH  14   4
ENDBRANCH   8  14
BRANCH  10  16
ATOM     16  C   UNL     1      10.552   5.928   5.544  0.00  0.00    +0.103 C 
BRANCH  16  23
ATOM      2  O   UNL     1      10.041   3.672   5.028  0.00  0.00    -0.276 OA
ATOM      3  O   UNL     1      14.056   6.093  -0.367  0.00  0.00    -0.276 OA
ATOM      5  N   UNL     1      11.098   4.901   3.366  0.00  0.00    -0.298 N 
ATOM      6  N   UNL     1      13.057   4.846   1.319  0.00  0.00    -0.299 N 
ATOM     23  C   UNL     1      10.536   4.729   4.630  0.00  0.00    +0.216 C 
ATOM     24  C   UNL     1      11.126   3.784   2.419  0.00  0.00    +0.126 C 
ATOM     25  C   UNL     1      11.628   6.164   2.834  0.00  0.00    +0.126 C 
ATOM     26  C   UNL     1      12.529   3.583   1.851  0.00  0.00    +0.126 C 
ATOM     27  C   UNL     1      13.031   5.963   2.266  0.00  0.00    +0.126 C 
ATOM     28  C   UNL     1      13.617   5.019   0.055  0.00  0.00    +0.213 C 
ATOM     29  C   UNL     1      13.675   3.799  -0.830  0.00  0.00    +0.109 C 
ENDBRANCH  16  23
ENDBRANCH  10  16
TORSDOF 6
ENDMDL
MODEL 8
REMARK VINA RESULT:      -5.8     22.973     25.436
REMARK  Name = 38026946
REMARK  10 active torsions:
REMARK  status: ('A' for Active; 'I' for Inactive)
REMARK    1  A    between atoms: N_4  and  C_14
REMARK    2  A    between atoms: C_7  and  C_11
REMARK    3  A    between atoms: C_8  and  C_14
REMARK    4  A    between atoms: C_10  and  C_16
REMARK    5  A    between atoms: C_11  and  C_19
REMARK    6  A    between atoms: C_11  and  C_20
REMARK    7  A    between atoms: C_12  and  C_22
REMARK    8  A    between atoms: C_15  and  C_21
REMARK    9  A    between atoms: C_16  and  C_23
REMARK   10  A    between atoms: C_28  and  C_29
REMARK                            x       y       z     vdW  Elec       q    Type
REMARK                         _______ _______ _______ _____ _____    ______ ____
ROOT
ATOM      7  C   UNL     1      10.249   6.605   6.349  0.00  0.00    +0.000 C 
ATOM      8  C   UNL     1       9.940   7.663   7.437  0.00  0.00    +0.032 C 
ATOM      9  C   UNL     1      11.764   6.378   6.236  0.00  0.00    +0.012 C 
ATOM     10  C   UNL     1      12.523   7.671   5.888  0.00  0.00    +0.023 C 
ATOM     12  C   UNL     1      12.076   8.836   6.749  0.00  0.00    -0.073 C 
ATOM     13  C   UNL     1      10.925   8.809   7.443  0.00  0.00    -0.022 C 
ATOM     22  C   UNL     1      13.004  10.015   6.828  0.00  0.00    +0.039 C 
ENDROOT
BRANCH   7  11
ATOM     11  C   UNL     1       9.544   5.275   6.633  0.00  0.00    -0.013 C 
ATOM     19  C   UNL     1       9.883   4.252   5.554  0.00  0.00    +0.007 C 
ATOM     20  C   UNL     1       9.929   4.753   8.013  0.00  0.00    +0.007 C 
ENDBRANCH   7  11
BRANCH   8  14
ATOM     14  C   UNL     1       8.517   8.214   7.285  0.00  0.00    +0.112 C 
BRANCH  14   4
ATOM      1  O   UNL     1       8.556  10.238   5.198  0.00  0.00    -0.276 OA
ATOM      4  N   UNL     1       8.063   8.083   5.936  0.00  0.00    -0.315 N 
ATOM     21  C   UNL     1       8.121   9.110   5.001  0.00  0.00    +0.216 C 
ATOM     30  H   UNL     1       7.728   7.173   5.631  0.00  0.00    +0.149 HD
BRANCH  21  15
ATOM     15  C   UNL     1       7.594   8.750   3.651  0.00  0.00    +0.075 C 
ATOM     17  C   UNL     1       8.048   9.537   2.457  0.00  0.00    +0.013 C 
ATOM     18  C   UNL     1       8.522   8.126   2.649  0.00  0.00    +0.013 C 
ENDBRANCH  21  15
ENDBRANCH  14   4
ENDBRANCH   8  14
BRANCH  10  16
ATOM     16  C   UNL     1      12.389   8.006   4.399  0.00  0.00    +0.103 C 
BRANCH  16  23
ATOM      2  O   UNL     1      14.638   7.585   3.782  0.00  0.00    -0.276 OA
ATOM      3  O   UNL     1      10.587   3.798  -0.728  0.00  0.00    -0.276 OA
ATOM      5  N   UNL     1      13.016   6.301   2.727  0.00  0.00    -0.298 N 
ATOM      6  N   UNL     1      12.204   5.127   0.279  0.00  0.00    -0.299 N 
ATOM     23  C   UNL     1      13.454   7.284   3.613  0.00  0.00    +0.216 C 
ATOM     24  C   UNL     1      13.987   5.555   1.923  0.00  0.00    +0.126 C 
ATOM     25  C   UNL     1      11.623   5.867   2.557  0.00  0.00    +0.126 C 
ATOM     26  C   UNL     1      13.597   5.562   0.448  0.00  0.00    +0.126 C 
ATOM     27  C   UNL     1      11.232   5.874   1.082  0.00  0.00    +0.126 C 
ATOM     28  C   UNL     1      11.766   4.144  -0.606  0.00  0.00    +0.213 C 
ATOM     29  C   UNL     1      12.823   3.477  -1.450  0.00  0.00    +0.109 C 
ENDBRANCH  16  23
ENDBRANCH  10  16
TORSDOF 6
ENDMDL
MODEL 9
REMARK VINA RESULT:      -5.8     23.809     26.048
REMARK  Name = 38026946
REMARK  10 active torsions:
REMARK  status: ('A' for Active; 'I' for Inactive)
REMARK    1  A    between atoms: N_4  and  C_14
REMARK    2  A    between atoms: C_7  and  C_11
REMARK    3  A    between atoms: C_8  and  C_14
REMARK    4  A    between atoms: C_10  and  C_16
REMARK    5  A    between atoms: C_11  and  C_19
REMARK    6  A    between atoms: C_11  and  C_20
REMARK    7  A    between atoms: C_12  and  C_22
REMARK    8  A    between atoms: C_15  and  C_21
REMARK    9  A    between atoms: C_16  and  C_23
REMARK   10  A    between atoms: C_28  and  C_29
REMARK                            x       y       z     vdW  Elec       q    Type
REMARK                         _______ _______ _______ _____ _____    ______ ____
ROOT
ATOM      7  C   UNL     1      14.095   7.610   4.812  0.00  0.00    +0.000 C 
ATOM      8  C   UNL     1      12.711   7.400   5.474  0.00  0.00    +0.032 C 
ATOM      9  C   UNL     1      13.941   7.802   3.295  0.00  0.00    +0.012 C 
ATOM     10  C   UNL     1      13.257   6.598   2.623  0.00  0.00    +0.023 C 
ATOM     12  C   UNL     1      12.018   6.159   3.378  0.00  0.00    -0.073 C 
ATOM     13  C   UNL     1      11.786   6.538   4.647  0.00  0.00    -0.022 C 
ATOM     22  C   UNL     1      11.031   5.310   2.627  0.00  0.00    +0.039 C 
ENDROOT
BRANCH   7  11
ATOM     11  C   UNL     1      14.837   8.808   5.413  0.00  0.00    -0.013 C 
ATOM     19  C   UNL     1      16.321   8.491   5.570  0.00  0.00    +0.007 C 
ATOM     20  C   UNL     1      14.638  10.047   4.547  0.00  0.00    +0.007 C 
ENDBRANCH   7  11
BRANCH   8  14
ATOM     14  C   UNL     1      12.854   6.797   6.876  0.00  0.00    +0.112 C 
BRANCH  14   4
ATOM      1  O   UNL     1      10.371   7.781   8.026  0.00  0.00    -0.276 OA
ATOM      4  N   UNL     1      11.693   6.038   7.222  0.00  0.00    -0.315 N 
ATOM     21  C   UNL     1      10.543   6.595   7.770  0.00  0.00    +0.216 C 
ATOM     30  H   UNL     1      11.690   5.044   7.007  0.00  0.00    +0.149 HD
BRANCH  21  15
ATOM     15  C   UNL     1       9.452   5.616   8.050  0.00  0.00    +0.075 C 
ATOM     17  C   UNL     1       9.800   4.166   8.226  0.00  0.00    +0.013 C 
ATOM     18  C   UNL     1       9.369   4.983   9.409  0.00  0.00    +0.013 C 
ENDBRANCH  21  15
ENDBRANCH  14   4
ENDBRANCH   8  14
BRANCH  10  16
ATOM     16  C   UNL     1      14.235   5.431   2.450  0.00  0.00    +0.103 C 
BRANCH  16  23
ATOM      2  O   UNL     1      15.724   6.263   0.804  0.00  0.00    -0.276 OA
ATOM      3  O   UNL     1      11.285   1.805  -2.589  0.00  0.00    -0.276 OA
ATOM      5  N   UNL     1      14.300   4.551   0.143  0.00  0.00    -0.298 N 
ATOM      6  N   UNL     1      12.663   3.561  -1.946  0.00  0.00    -0.299 N 
ATOM     23  C   UNL     1      14.825   5.459   1.062  0.00  0.00    +0.216 C 
ATOM     24  C   UNL     1      14.816   4.516  -1.227  0.00  0.00    +0.126 C 
ATOM     25  C   UNL     1      13.285   3.532   0.438  0.00  0.00    +0.126 C 
ATOM     26  C   UNL     1      13.677   4.581  -2.242  0.00  0.00    +0.126 C 
ATOM     27  C   UNL     1      12.146   3.596  -0.576  0.00  0.00    +0.126 C 
ATOM     28  C   UNL     1      12.139   2.652  -2.864  0.00  0.00    +0.213 C 
ATOM     29  C   UNL     1      12.671   2.733  -4.273  0.00  0.00    +0.109 C 
ENDBRANCH  16  23
ENDBRANCH  10  16
TORSDOF 6
ENDMDL
MODEL 10
REMARK VINA RESULT:      -5.8     23.618     26.144
REMARK  Name = 38026946
REMARK  10 active torsions:
REMARK  status: ('A' for Active; 'I' for Inactive)
REMARK    1  A    between atoms: N_4  and  C_14
REMARK    2  A    between atoms: C_7  and  C_11
REMARK    3  A    between atoms: C_8  and  C_14
REMARK    4  A    between atoms: C_10  and  C_16
REMARK    5  A    between atoms: C_11  and  C_19
REMARK    6  A    between atoms: C_11  and  C_20
REMARK    7  A    between atoms: C_12  and  C_22
REMARK    8  A    between atoms: C_15  and  C_21
REMARK    9  A    between atoms: C_16  and  C_23
REMARK   10  A    between atoms: C_28  and  C_29
REMARK                            x       y       z     vdW  Elec       q    Type
REMARK                         _______ _______ _______ _____ _____    ______ ____
ROOT
ATOM      7  C   UNL     1      12.412   4.556   2.014  0.00  0.00    +0.000 C 
ATOM      8  C   UNL     1      12.053   5.591   0.920  0.00  0.00    +0.032 C 
ATOM      9  C   UNL     1      11.142   4.073   2.732  0.00  0.00    +0.012 C 
ATOM     10  C   UNL     1      10.369   5.231   3.390  0.00  0.00    +0.023 C 
ATOM     12  C   UNL     1      10.208   6.408   2.449  0.00  0.00    -0.073 C 
ATOM     13  C   UNL     1      10.960   6.545   1.343  0.00  0.00    -0.022 C 
ATOM     22  C   UNL     1       9.130   7.400   2.784  0.00  0.00    +0.039 C 
ENDROOT
BRANCH   7  11
ATOM     11  C   UNL     1      13.169   3.357   1.436  0.00  0.00    -0.013 C 
ATOM     19  C   UNL     1      12.867   3.204  -0.052  0.00  0.00    +0.007 C 
ATOM     20  C   UNL     1      14.668   3.509   1.671  0.00  0.00    +0.007 C 
ENDBRANCH   7  11
BRANCH   8  14
ATOM     14  C   UNL     1      13.288   6.391   0.487  0.00  0.00    +0.112 C 
BRANCH  14   4
ATOM      1  O   UNL     1      16.110   6.803   1.052  0.00  0.00    -0.276 OA
ATOM      4  N   UNL     1      13.862   7.079   1.601  0.00  0.00    -0.315 N 
ATOM     21  C   UNL     1      15.231   7.228   1.791  0.00  0.00    +0.216 C 
ATOM     30  H   UNL     1      13.233   7.528   2.261  0.00  0.00    +0.149 HD
BRANCH  21  15
ATOM     15  C   UNL     1      15.606   7.987   3.022  0.00  0.00    +0.075 C 
ATOM     17  C   UNL     1      14.568   8.219   4.080  0.00  0.00    +0.013 C 
ATOM     18  C   UNL     1      15.692   7.257   4.331  0.00  0.00    +0.013 C 
ENDBRANCH  21  15
ENDBRANCH  14   4
ENDBRANCH   8  14
BRANCH  10  16
ATOM     16  C   UNL     1      11.034   5.665   4.701  0.00  0.00    +0.103 C 
BRANCH  16  23
ATOM      2  O   UNL     1       8.891   5.439   5.688  0.00  0.00    -0.276 OA
ATOM      3  O   UNL     1      11.933  11.111   8.797  0.00  0.00    -0.276 OA
ATOM      5  N   UNL     1      10.312   7.008   6.643  0.00  0.00    -0.298 N 
ATOM      6  N   UNL     1      10.490   9.588   7.800  0.00  0.00    -0.299 N 
ATOM     23  C   UNL     1       9.978   6.020   5.717  0.00  0.00    +0.216 C 
ATOM     24  C   UNL     1       9.341   7.414   7.662  0.00  0.00    +0.126 C 
ATOM     25  C   UNL     1      11.621   7.665   6.753  0.00  0.00    +0.126 C 
ATOM     26  C   UNL     1       9.180   8.932   7.690  0.00  0.00    +0.126 C 
ATOM     27  C   UNL     1      11.461   9.183   6.781  0.00  0.00    +0.126 C 
ATOM     28  C   UNL     1      10.824  10.574   8.726  0.00  0.00    +0.213 C 
ATOM     29  C   UNL     1       9.742  10.988   9.692  0.00  0.00    +0.109 C 
ENDBRANCH  16  23
ENDBRANCH  10  16
TORSDOF 6
ENDMDL
