MODEL 1
REMARK VINA RESULT:      -6.5      0.000      0.000
REMARK  Name = 11885094
REMARK  19 active torsions:
REMARK  status: ('A' for Active; 'I' for Inactive)
REMARK    1  A    between atoms: O_2  and  C_15
REMARK    2  A    between atoms: O_3  and  C_20
REMARK    3  A    between atoms: O_5  and  C_29
REMARK    4  A    between atoms: N_8  and  CA_26
REMARK    5  A    between atoms: C_10  and  C_18
REMARK    6  A    between atoms: C_12  and  C_20
REMARK    7  A    between atoms: C_12  and  C_21
REMARK    8  A    between atoms: C_13  and  C_23
REMARK    9  A    between atoms: C_23  and  C_24
REMARK   10  A    between atoms: CA_26  and  CB_27
REMARK   11  A    between atoms: CA_26  and  C_29
REMARK   12  A    between atoms: CB_27  and  CG_30
REMARK   13  A    between atoms: C_28  and  C_31
REMARK   14  A    between atoms: CG_30  and  CD1_32
REMARK   15  A    between atoms: CG_30  and  CD2_33
REMARK   16  A    between atoms: C_31  and  C_34
REMARK   17  A    between atoms: C_34  and  C_35
REMARK   18  A    between atoms: C_35  and  C_36
REMARK   19  A    between atoms: C_36  and  C_37
REMARK                            x       y       z     vdW  Elec       q    Type
REMARK                         _______ _______ _______ _____ _____    ______ ____
ROOT
ATOM      1  S   UNL     1      14.052   8.016   6.578  0.00  0.00    -0.057 S 
ATOM      6  O   UNL     1      11.271   5.915   3.483  0.00  0.00    -0.275 OA
ATOM      7  N   UNL     1      13.888   7.144   4.148  0.00  0.00    -0.229 NA
ATOM      9  N   UNL     1      11.940   6.860   5.539  0.00  0.00    -0.265 N 
ATOM     10  C   UNL     1      17.351   8.706   3.490  0.00  0.00    -0.019 C 
ATOM     11  C   UNL     1      17.824   8.483   4.994  0.00  0.00    +0.011 C 
ATOM     12  C   UNL     1      19.231   9.071   5.397  0.00  0.00    +0.021 C 
ATOM     13  C   UNL     1      16.159   7.685   3.192  0.00  0.00    +0.054 C 
ATOM     14  C   UNL     1      18.524   8.384   2.527  0.00  0.00    +0.010 C 
ATOM     15  C   UNL     1      20.274   8.696   4.306  0.00  0.00    +0.123 C 
ATOM     16  C   UNL     1      16.690   8.824   6.004  0.00  0.00    +0.049 C 
ATOM     17  C   UNL     1      19.831   9.070   2.896  0.00  0.00    +0.032 C 
ATOM     18  C   UNL     1      16.870  10.153   3.219  0.00  0.00    +0.012 C 
ATOM     19  C   UNL     1      15.146   7.692   4.309  0.00  0.00    +0.058 A 
ATOM     21  C   UNL     1      19.695   8.412   6.727  0.00  0.00    +0.016 C 
ATOM     22  C   UNL     1      15.412   8.193   5.567  0.00  0.00    +0.015 A 
ATOM     25  C   UNL     1      13.222   7.265   5.276  0.00  0.00    +0.165 A 
ATOM     28  C   UNL     1      11.054   6.222   4.650  0.00  0.00    +0.219 C 
ATOM     41  H   UNL     1      11.616   7.050   6.483  0.00  0.00    +0.157 HD
ENDROOT
BRANCH  15   2
ATOM      2  O   UNL     1      21.529   9.322   4.574  0.00  0.00    -0.391 OA
ATOM     38  H   UNL     1      22.195   8.902   4.003  0.00  0.00    +0.210 HD
ENDBRANCH  15   2
BRANCH  12  20
ATOM     20  C   UNL     1      19.237  10.593   5.663  0.00  0.00    +0.165 C 
BRANCH  20   3
ATOM      3  O   UNL     1      20.128  10.842   6.728  0.00  0.00    -0.394 OA
ATOM     39  H   UNL     1      20.246  10.006   7.208  0.00  0.00    +0.209 HD
ENDBRANCH  20   3
ENDBRANCH  12  20
BRANCH  13  23
ATOM     23  C   UNL     1      15.489   7.869   1.824  0.00  0.00    +0.106 C 
BRANCH  23  24
ATOM      4  O   UNL     1      16.388   6.288   0.228  0.00  0.00    -0.276 OA
ATOM      8  N   UNL     1      14.365   5.832   1.278  0.00  0.00    -0.310 N 
ATOM     24  C   ACE A   0      15.495   6.593   1.014  0.00  0.00    +0.214 C 
ATOM     40  H   UNL     1      13.715   6.148   1.992  0.00  0.00    +0.149 HD
BRANCH   8  26
ATOM     26  CA  UNL     1      14.103   4.561   0.643  0.00  0.00    +0.098 C 
BRANCH  26  27
ATOM     27  CB  UNL     1      12.786   4.604  -0.153  0.00  0.00    +0.027 C 
BRANCH  27  30
ATOM     30  CG  UNL     1      12.899   4.157  -1.627  0.00  0.00    -0.015 C 
ATOM     32  CD1 UNL     1      14.334   4.223  -2.152  0.00  0.00    +0.007 C 
ATOM     33  CD2 UNL     1      12.363   2.730  -1.774  0.00  0.00    +0.007 C 
ENDBRANCH  27  30
ENDBRANCH  26  27
BRANCH  26  29
ATOM     29  C   UNL     1      14.102   3.443   1.691  0.00  0.00    +0.178 C 
BRANCH  29   5
ATOM      5  O   UNL     1      15.412   3.228   2.200  0.00  0.00    -0.393 OA
ATOM     42  H   UNL     1      15.965   3.964   1.884  0.00  0.00    +0.209 HD
ENDBRANCH  29   5
ENDBRANCH  26  29
ENDBRANCH   8  26
ENDBRANCH  23  24
ENDBRANCH  13  23
BRANCH  28  31
ATOM     31  C   UNL     1       9.718   5.930   5.321  0.00  0.00    +0.096 C 
BRANCH  31  34
ATOM     34  C   UNL     1       9.808   4.802   6.346  0.00  0.00    +0.009 C 
BRANCH  34  35
ATOM     35  C   UNL     1       9.660   5.332   7.772  0.00  0.00    +0.000 C 
BRANCH  35  36
ATOM     36  C   UNL     1       9.594   4.191   8.786  0.00  0.00    -0.003 C 
ATOM     37  C   UNL     1       9.052   4.665  10.125  0.00  0.00    +0.004 C 
ENDBRANCH  35  36
ENDBRANCH  34  35
ENDBRANCH  31  34
ENDBRANCH  28  31
TORSDOF 14
ENDMDL
MODEL 2
REMARK VINA RESULT:      -6.0     16.682     19.691
REMARK  Name = 11885094
REMARK  19 active torsions:
REMARK  status: ('A' for Active; 'I' for Inactive)
REMARK    1  A    between atoms: O_2  and  C_15
REMARK    2  A    between atoms: O_3  and  C_20
REMARK    3  A    between atoms: O_5  and  C_29
REMARK    4  A    between atoms: N_8  and  CA_26
REMARK    5  A    between atoms: C_10  and  C_18
REMARK    6  A    between atoms: C_12  and  C_20
REMARK    7  A    between atoms: C_12  and  C_21
REMARK    8  A    between atoms: C_13  and  C_23
REMARK    9  A    between atoms: C_23  and  C_24
REMARK   10  A    between atoms: CA_26  and  CB_27
REMARK   11  A    between atoms: CA_26  and  C_29
REMARK   12  A    between atoms: CB_27  and  CG_30
REMARK   13  A    between atoms: C_28  and  C_31
REMARK   14  A    between atoms: CG_30  and  CD1_32
REMARK   15  A    between atoms: CG_30  and  CD2_33
REMARK   16  A    between atoms: C_31  and  C_34
REMARK   17  A    between atoms: C_34  and  C_35
REMARK   18  A    between atoms: C_35  and  C_36
REMARK   19  A    between atoms: C_36  and  C_37
REMARK                            x       y       z     vdW  Elec       q    Type
REMARK                         _______ _______ _______ _____ _____    ______ ____
ROOT
ATOM      1  S   UNL     1      16.905   5.855  19.839  0.00  0.00    -0.057 S 
ATOM      6  O   UNL     1      21.144   7.333  21.092  0.00  0.00    -0.275 OA
ATOM      7  N   UNL     1      18.226   7.821  20.878  0.00  0.00    -0.229 NA
ATOM      9  N   UNL     1      19.499   5.882  20.224  0.00  0.00    -0.265 N 
ATOM     10  C   UNL     1      14.957   9.865  20.847  0.00  0.00    -0.019 C 
ATOM     11  C   UNL     1      14.053   8.570  21.043  0.00  0.00    +0.011 C 
ATOM     12  C   UNL     1      12.490   8.773  20.989  0.00  0.00    +0.021 C 
ATOM     13  C   UNL     1      16.429   9.523  21.366  0.00  0.00    +0.054 C 
ATOM     14  C   UNL     1      14.392  11.025  21.708  0.00  0.00    +0.010 C 
ATOM     15  C   UNL     1      12.102   9.997  21.866  0.00  0.00    +0.123 C 
ATOM     16  C   UNL     1      14.561   7.384  20.173  0.00  0.00    +0.049 C 
ATOM     17  C   UNL     1      12.898  11.253  21.531  0.00  0.00    +0.032 C 
ATOM     18  C   UNL     1      15.027  10.332  19.371  0.00  0.00    +0.012 C 
ATOM     19  C   UNL     1      16.895   8.191  20.835  0.00  0.00    +0.058 A 
ATOM     21  C   UNL     1      11.795   7.524  21.604  0.00  0.00    +0.016 C 
ATOM     22  C   UNL     1      16.038   7.240  20.320  0.00  0.00    +0.015 A 
ATOM     25  C   UNL     1      18.350   6.613  20.374  0.00  0.00    +0.165 A 
ATOM     28  C   UNL     1      20.803   6.271  20.582  0.00  0.00    +0.219 C 
ATOM     41  H   UNL     1      19.371   4.963  19.808  0.00  0.00    +0.157 HD
ENDROOT
BRANCH  15   2
ATOM      2  O   UNL     1      10.710  10.287  21.737  0.00  0.00    -0.391 OA
ATOM     38  H   UNL     1      10.317  10.246  22.626  0.00  0.00    +0.210 HD
ENDBRANCH  15   2
BRANCH  12  20
ATOM     20  C   UNL     1      11.911   8.911  19.564  0.00  0.00    +0.165 C 
BRANCH  20   3
ATOM      3  O   UNL     1      10.570   8.474  19.598  0.00  0.00    -0.394 OA
ATOM     39  H   UNL     1      10.009   9.266  19.645  0.00  0.00    +0.209 HD
ENDBRANCH  20   3
ENDBRANCH  12  20
BRANCH  13  23
ATOM     23  C   UNL     1      17.467  10.624  21.113  0.00  0.00    +0.106 C 
BRANCH  23  24
ATOM      4  O   UNL     1      18.024  11.694  23.210  0.00  0.00    -0.276 OA
ATOM      8  N   UNL     1      19.468  10.110  22.313  0.00  0.00    -0.310 N 
ATOM     24  C   ACE A   0      18.320  10.889  22.332  0.00  0.00    +0.214 C 
ATOM     40  H   UNL     1      19.589   9.430  21.568  0.00  0.00    +0.149 HD
BRANCH   8  26
ATOM     26  CA  UNL     1      20.471  10.156  23.352  0.00  0.00    +0.098 C 
BRANCH  26  27
ATOM     27  CB  UNL     1      21.862  10.444  22.762  0.00  0.00    +0.027 C 
BRANCH  27  30
ATOM     30  CG  UNL     1      21.869  11.365  21.522  0.00  0.00    -0.015 C 
ATOM     32  CD1 UNL     1      22.604  12.682  21.773  0.00  0.00    +0.007 C 
ATOM     33  CD2 UNL     1      22.514  10.633  20.341  0.00  0.00    +0.007 C 
ENDBRANCH  27  30
ENDBRANCH  26  27
BRANCH  26  29
ATOM     29  C   UNL     1      20.451   8.852  24.158  0.00  0.00    +0.178 C 
BRANCH  29   5
ATOM      5  O   UNL     1      19.613   7.887  23.534  0.00  0.00    -0.393 OA
ATOM     42  H   UNL     1      19.903   7.013  23.847  0.00  0.00    +0.209 HD
ENDBRANCH  29   5
ENDBRANCH  26  29
ENDBRANCH   8  26
ENDBRANCH  23  24
ENDBRANCH  13  23
BRANCH  28  31
ATOM     31  C   UNL     1      21.812   5.177  20.258  0.00  0.00    +0.096 C 
BRANCH  31  34
ATOM     34  C   UNL     1      21.526   3.873  21.000  0.00  0.00    +0.009 C 
BRANCH  34  35
ATOM     35  C   UNL     1      22.804   3.061  21.211  0.00  0.00    +0.000 C 
BRANCH  35  36
ATOM     36  C   UNL     1      24.029   3.799  20.672  0.00  0.00    -0.003 C 
ATOM     37  C   UNL     1      24.898   2.890  19.819  0.00  0.00    +0.004 C 
ENDBRANCH  35  36
ENDBRANCH  34  35
ENDBRANCH  31  34
ENDBRANCH  28  31
TORSDOF 14
ENDMDL
MODEL 3
REMARK VINA RESULT:      -5.8     27.028     30.529
REMARK  Name = 11885094
REMARK  19 active torsions:
REMARK  status: ('A' for Active; 'I' for Inactive)
REMARK    1  A    between atoms: O_2  and  C_15
REMARK    2  A    between atoms: O_3  and  C_20
REMARK    3  A    between atoms: O_5  and  C_29
REMARK    4  A    between atoms: N_8  and  CA_26
REMARK    5  A    between atoms: C_10  and  C_18
REMARK    6  A    between atoms: C_12  and  C_20
REMARK    7  A    between atoms: C_12  and  C_21
REMARK    8  A    between atoms: C_13  and  C_23
REMARK    9  A    between atoms: C_23  and  C_24
REMARK   10  A    between atoms: CA_26  and  CB_27
REMARK   11  A    between atoms: CA_26  and  C_29
REMARK   12  A    between atoms: CB_27  and  CG_30
REMARK   13  A    between atoms: C_28  and  C_31
REMARK   14  A    between atoms: CG_30  and  CD1_32
REMARK   15  A    between atoms: CG_30  and  CD2_33
REMARK   16  A    between atoms: C_31  and  C_34
REMARK   17  A    between atoms: C_34  and  C_35
REMARK   18  A    between atoms: C_35  and  C_36
REMARK   19  A    between atoms: C_36  and  C_37
REMARK                            x       y       z     vdW  Elec       q    Type
REMARK                         _______ _______ _______ _____ _____    ______ ____
ROOT
ATOM      1  S   UNL     1      -6.739 -10.354  10.920  0.00  0.00    -0.057 S 
ATOM      6  O   UNL     1     -10.979  -8.792  12.063  0.00  0.00    -0.275 OA
ATOM      7  N   UNL     1      -8.284  -9.713  12.893  0.00  0.00    -0.229 NA
ATOM      9  N   UNL     1      -9.204  -9.491  10.676  0.00  0.00    -0.265 N 
ATOM     10  C   UNL     1      -5.547 -11.000  15.285  0.00  0.00    -0.019 C 
ATOM     11  C   UNL     1      -4.376 -10.606  14.282  0.00  0.00    +0.011 C 
ATOM     12  C   UNL     1      -2.911 -11.025  14.692  0.00  0.00    +0.021 C 
ATOM     13  C   UNL     1      -6.830 -10.122  14.914  0.00  0.00    +0.054 C 
ATOM     14  C   UNL     1      -5.123 -10.655  16.737  0.00  0.00    +0.010 C 
ATOM     15  C   UNL     1      -2.670 -10.651  16.182  0.00  0.00    +0.123 C 
ATOM     16  C   UNL     1      -4.740 -10.962  12.812  0.00  0.00    +0.049 C 
ATOM     17  C   UNL     1      -3.749 -11.184  17.119  0.00  0.00    +0.032 C 
ATOM     18  C   UNL     1      -5.916 -12.503  15.219  0.00  0.00    +0.012 C 
ATOM     19  C   UNL     1      -7.078 -10.127  13.426  0.00  0.00    +0.058 A 
ATOM     21  C   UNL     1      -1.894 -10.214  13.840  0.00  0.00    +0.016 C 
ATOM     22  C   UNL     1      -6.121 -10.490  12.501  0.00  0.00    +0.015 A 
ATOM     25  C   UNL     1      -8.222  -9.797  11.582  0.00  0.00    +0.165 A 
ATOM     28  C   UNL     1     -10.498  -9.016  10.958  0.00  0.00    +0.219 C 
ATOM     41  H   UNL     1      -8.945  -9.628   9.702  0.00  0.00    +0.157 HD
ENDROOT
BRANCH  15   2
ATOM      2  O   UNL     1      -1.400 -11.132  16.622  0.00  0.00    -0.391 OA
ATOM     38  H   UNL     1      -1.471 -11.324  17.573  0.00  0.00    +0.210 HD
ENDBRANCH  15   2
BRANCH  12  20
ATOM     20  C   UNL     1      -2.576 -12.511  14.437  0.00  0.00    +0.165 C 
BRANCH  20   3
ATOM      3  O   UNL     1      -1.239 -12.581  13.990  0.00  0.00    -0.394 OA
ATOM     39  H   UNL     1      -1.028 -11.729  13.573  0.00  0.00    +0.209 HD
ENDBRANCH  20   3
ENDBRANCH  12  20
BRANCH  13  23
ATOM     23  C   UNL     1      -8.099 -10.485  15.696  0.00  0.00    +0.106 C 
BRANCH  23  24
ATOM      4  O   UNL     1      -8.087  -8.864  17.492  0.00  0.00    -0.276 OA
ATOM      8  N   UNL     1      -9.805  -8.828  15.927  0.00  0.00    -0.310 N 
ATOM     24  C   ACE A   0      -8.631  -9.312  16.487  0.00  0.00    +0.214 C 
ATOM     40  H   UNL     1     -10.139  -9.234  15.058  0.00  0.00    +0.149 HD
BRANCH   8  26
ATOM     26  CA  UNL     1     -10.539  -7.710  16.475  0.00  0.00    +0.098 C 
BRANCH  26  27
ATOM     27  CB  UNL     1     -11.861  -8.177  17.108  0.00  0.00    +0.027 C 
BRANCH  27  30
ATOM     30  CG  UNL     1     -11.893  -9.660  17.537  0.00  0.00    -0.015 C 
ATOM     32  CD1 UNL     1     -11.562  -9.849  19.018  0.00  0.00    +0.007 C 
ATOM     33  CD2 UNL     1     -13.274 -10.252  17.240  0.00  0.00    +0.007 C 
ENDBRANCH  27  30
ENDBRANCH  26  27
BRANCH  26  29
ATOM     29  C   UNL     1     -10.766  -6.650  15.392  0.00  0.00    +0.178 C 
BRANCH  29   5
ATOM      5  O   UNL     1      -9.702  -5.706  15.380  0.00  0.00    -0.393 OA
ATOM     42  H   UNL     1      -9.089  -5.976  14.674  0.00  0.00    +0.209 HD
ENDBRANCH  29   5
ENDBRANCH  26  29
ENDBRANCH   8  26
ENDBRANCH  23  24
ENDBRANCH  13  23
BRANCH  28  31
ATOM     31  C   UNL     1     -11.292  -8.792   9.678  0.00  0.00    +0.096 C 
BRANCH  31  34
ATOM     34  C   UNL     1     -10.599  -7.830   8.715  0.00  0.00    +0.009 C 
BRANCH  34  35
ATOM     35  C   UNL     1     -10.957  -6.376   9.026  0.00  0.00    +0.000 C 
BRANCH  35  36
ATOM     36  C   UNL     1      -9.818  -5.430   8.649  0.00  0.00    -0.003 C 
ATOM     37  C   UNL     1      -8.611  -6.192   8.124  0.00  0.00    +0.004 C 
ENDBRANCH  35  36
ENDBRANCH  34  35
ENDBRANCH  31  34
ENDBRANCH  28  31
TORSDOF 14
ENDMDL
MODEL 4
REMARK VINA RESULT:      -5.7     26.191     29.911
REMARK  Name = 11885094
REMARK  19 active torsions:
REMARK  status: ('A' for Active; 'I' for Inactive)
REMARK    1  A    between atoms: O_2  and  C_15
REMARK    2  A    between atoms: O_3  and  C_20
REMARK    3  A    between atoms: O_5  and  C_29
REMARK    4  A    between atoms: N_8  and  CA_26
REMARK    5  A    between atoms: C_10  and  C_18
REMARK    6  A    between atoms: C_12  and  C_20
REMARK    7  A    between atoms: C_12  and  C_21
REMARK    8  A    between atoms: C_13  and  C_23
REMARK    9  A    between atoms: C_23  and  C_24
REMARK   10  A    between atoms: CA_26  and  CB_27
REMARK   11  A    between atoms: CA_26  and  C_29
REMARK   12  A    between atoms: CB_27  and  CG_30
REMARK   13  A    between atoms: C_28  and  C_31
REMARK   14  A    between atoms: CG_30  and  CD1_32
REMARK   15  A    between atoms: CG_30  and  CD2_33
REMARK   16  A    between atoms: C_31  and  C_34
REMARK   17  A    between atoms: C_34  and  C_35
REMARK   18  A    between atoms: C_35  and  C_36
REMARK   19  A    between atoms: C_36  and  C_37
REMARK                            x       y       z     vdW  Elec       q    Type
REMARK                         _______ _______ _______ _____ _____    ______ ____
ROOT
ATOM      1  S   UNL     1      -7.159  -9.705  12.681  0.00  0.00    -0.057 S 
ATOM      6  O   UNL     1      -3.110  -9.930  10.382  0.00  0.00    -0.275 OA
ATOM      7  N   UNL     1      -4.671 -10.390  12.862  0.00  0.00    -0.229 NA
ATOM      9  N   UNL     1      -5.397  -9.481  10.751  0.00  0.00    -0.265 N 
ATOM     10  C   UNL     1      -5.272 -11.093  16.606  0.00  0.00    -0.019 C 
ATOM     11  C   UNL     1      -6.790 -11.507  16.364  0.00  0.00    +0.011 C 
ATOM     12  C   UNL     1      -7.660 -11.814  17.644  0.00  0.00    +0.021 C 
ATOM     13  C   UNL     1      -4.489 -11.262  15.223  0.00  0.00    +0.054 C 
ATOM     14  C   UNL     1      -4.635 -12.049  17.648  0.00  0.00    +0.010 C 
ATOM     15  C   UNL     1      -6.858 -12.743  18.598  0.00  0.00    +0.123 C 
ATOM     16  C   UNL     1      -7.485 -10.556  15.348  0.00  0.00    +0.049 C 
ATOM     17  C   UNL     1      -5.461 -12.219  18.914  0.00  0.00    +0.032 C 
ATOM     18  C   UNL     1      -5.118  -9.636  17.110  0.00  0.00    +0.012 C 
ATOM     19  C   UNL     1      -5.265 -10.651  14.083  0.00  0.00    +0.058 A 
ATOM     21  C   UNL     1      -8.940 -12.585  17.214  0.00  0.00    +0.016 C 
ATOM     22  C   UNL     1      -6.611 -10.359  14.155  0.00  0.00    +0.015 A 
ATOM     25  C   UNL     1      -5.572  -9.884  12.049  0.00  0.00    +0.165 A 
ATOM     28  C   UNL     1      -4.204  -9.524  10.005  0.00  0.00    +0.219 C 
ATOM     41  H   UNL     1      -6.231  -9.116  10.300  0.00  0.00    +0.157 HD
ENDROOT
BRANCH  15   2
ATOM      2  O   UNL     1      -7.565 -12.936  19.824  0.00  0.00    -0.391 OA
ATOM     38  H   UNL     1      -7.138 -13.671  20.297  0.00  0.00    +0.210 HD
ENDBRANCH  15   2
BRANCH  12  20
ATOM     20  C   UNL     1      -8.163 -10.559  18.392  0.00  0.00    +0.165 C 
BRANCH  20   3
ATOM      3  O   UNL     1      -9.435 -10.855  18.925  0.00  0.00    -0.394 OA
ATOM     39  H   UNL     1     -10.093 -10.627  18.248  0.00  0.00    +0.209 HD
ENDBRANCH  20   3
ENDBRANCH  12  20
BRANCH  13  23
ATOM     23  C   UNL     1      -3.038 -10.764  15.246  0.00  0.00    +0.106 C 
BRANCH  23  24
ATOM      4  O   UNL     1      -0.855 -11.768  14.965  0.00  0.00    -0.276 OA
ATOM      8  N   UNL     1      -2.732 -12.854  14.129  0.00  0.00    -0.310 N 
ATOM     24  C   ACE A   0      -2.067 -11.826  14.783  0.00  0.00    +0.214 C 
ATOM     40  H   UNL     1      -3.747 -12.833  14.084  0.00  0.00    +0.149 HD
BRANCH   8  26
ATOM     26  CA  UNL     1      -2.056 -14.005  13.575  0.00  0.00    +0.098 C 
BRANCH  26  27
ATOM     27  CB  UNL     1      -2.573 -14.319  12.161  0.00  0.00    +0.027 C 
BRANCH  27  30
ATOM     30  CG  UNL     1      -3.956 -13.720  11.822  0.00  0.00    -0.015 C 
ATOM     32  CD1 UNL     1      -4.050 -13.248  10.370  0.00  0.00    +0.007 C 
ATOM     33  CD2 UNL     1      -5.048 -14.757  12.097  0.00  0.00    +0.007 C 
ENDBRANCH  27  30
ENDBRANCH  26  27
BRANCH  26  29
ATOM     29  C   UNL     1      -2.205 -15.204  14.518  0.00  0.00    +0.178 C 
BRANCH  29   5
ATOM      5  O   UNL     1      -3.291 -15.008  15.415  0.00  0.00    -0.393 OA
ATOM     42  H   UNL     1      -3.928 -14.424  14.968  0.00  0.00    +0.209 HD
ENDBRANCH  29   5
ENDBRANCH  26  29
ENDBRANCH   8  26
ENDBRANCH  23  24
ENDBRANCH  13  23
BRANCH  28  31
ATOM     31  C   UNL     1      -4.418  -8.987   8.596  0.00  0.00    +0.096 C 
BRANCH  31  34
ATOM     34  C   UNL     1      -5.575  -9.673   7.873  0.00  0.00    +0.009 C 
BRANCH  34  35
ATOM     35  C   UNL     1      -5.259 -11.141   7.584  0.00  0.00    +0.000 C 
BRANCH  35  36
ATOM     36  C   UNL     1      -4.742 -11.329   6.158  0.00  0.00    -0.003 C 
ATOM     37  C   UNL     1      -5.865 -11.221   5.140  0.00  0.00    +0.004 C 
ENDBRANCH  35  36
ENDBRANCH  34  35
ENDBRANCH  31  34
ENDBRANCH  28  31
TORSDOF 14
ENDMDL
MODEL 5
REMARK VINA RESULT:      -5.7     28.486     31.563
REMARK  Name = 11885094
REMARK  19 active torsions:
REMARK  status: ('A' for Active; 'I' for Inactive)
REMARK    1  A    between atoms: O_2  and  C_15
REMARK    2  A    between atoms: O_3  and  C_20
REMARK    3  A    between atoms: O_5  and  C_29
REMARK    4  A    between atoms: N_8  and  CA_26
REMARK    5  A    between atoms: C_10  and  C_18
REMARK    6  A    between atoms: C_12  and  C_20
REMARK    7  A    between atoms: C_12  and  C_21
REMARK    8  A    between atoms: C_13  and  C_23
REMARK    9  A    between atoms: C_23  and  C_24
REMARK   10  A    between atoms: CA_26  and  CB_27
REMARK   11  A    between atoms: CA_26  and  C_29
REMARK   12  A    between atoms: CB_27  and  CG_30
REMARK   13  A    between atoms: C_28  and  C_31
REMARK   14  A    between atoms: CG_30  and  CD1_32
REMARK   15  A    between atoms: CG_30  and  CD2_33
REMARK   16  A    between atoms: C_31  and  C_34
REMARK   17  A    between atoms: C_34  and  C_35
REMARK   18  A    between atoms: C_35  and  C_36
REMARK   19  A    between atoms: C_36  and  C_37
REMARK                            x       y       z     vdW  Elec       q    Type
REMARK                         _______ _______ _______ _____ _____    ______ ____
ROOT
ATOM      1  S   UNL     1      -6.442 -10.742  12.633  0.00  0.00    -0.057 S 
ATOM      6  O   UNL     1     -10.169  -8.731  10.686  0.00  0.00    -0.275 OA
ATOM      7  N   UNL     1      -8.804  -9.794  13.096  0.00  0.00    -0.229 NA
ATOM      9  N   UNL     1      -8.023  -9.702  10.817  0.00  0.00    -0.265 N 
ATOM     10  C   UNL     1      -8.469 -11.077  16.716  0.00  0.00    -0.019 C 
ATOM     11  C   UNL     1      -6.890 -10.877  16.724  0.00  0.00    +0.011 C 
ATOM     12  C   UNL     1      -6.112 -11.378  18.001  0.00  0.00    +0.021 C 
ATOM     13  C   UNL     1      -9.080 -10.133  15.580  0.00  0.00    +0.054 C 
ATOM     14  C   UNL     1      -9.053 -10.635  18.084  0.00  0.00    +0.010 C 
ATOM     15  C   UNL     1      -6.853 -10.888  19.278  0.00  0.00    +0.123 C 
ATOM     16  C   UNL     1      -6.251 -11.337  15.382  0.00  0.00    +0.049 C 
ATOM     17  C   UNL     1      -8.337 -11.239  19.283  0.00  0.00    +0.032 C 
ATOM     18  C   UNL     1      -8.890 -12.544  16.448  0.00  0.00    +0.012 C 
ATOM     19  C   UNL     1      -8.299 -10.256  14.297  0.00  0.00    +0.058 A 
ATOM     21  C   UNL     1      -4.694 -10.738  18.015  0.00  0.00    +0.016 C 
ATOM     22  C   UNL     1      -7.025 -10.783  14.233  0.00  0.00    +0.015 A 
ATOM     25  C   UNL     1      -7.915 -10.004  12.150  0.00  0.00    +0.165 A 
ATOM     28  C   UNL     1      -9.117  -9.097  10.172  0.00  0.00    +0.219 C 
ATOM     41  H   UNL     1      -7.213  -9.951  10.255  0.00  0.00    +0.157 HD
ENDROOT
BRANCH  15   2
ATOM      2  O   UNL     1      -6.247 -11.432  20.451  0.00  0.00    -0.391 OA
ATOM     38  H   UNL     1      -6.093 -12.378  20.290  0.00  0.00    +0.210 HD
ENDBRANCH  15   2
BRANCH  12  20
ATOM     20  C   UNL     1      -5.879 -12.904  18.053  0.00  0.00    +0.165 C 
BRANCH  20   3
ATOM      3  O   UNL     1      -4.604 -13.128  18.613  0.00  0.00    -0.394 OA
ATOM     39  H   UNL     1      -4.012 -13.394  17.889  0.00  0.00    +0.209 HD
ENDBRANCH  20   3
ENDBRANCH  12  20
BRANCH  13  23
ATOM     23  C   UNL     1     -10.585 -10.314  15.342  0.00  0.00    +0.106 C 
BRANCH  23  24
ATOM      4  O   UNL     1     -11.894  -8.927  16.831  0.00  0.00    -0.276 OA
ATOM      8  N   UNL     1     -11.421  -8.174  14.684  0.00  0.00    -0.310 N 
ATOM     24  C   ACE A   0     -11.371  -9.084  15.731  0.00  0.00    +0.214 C 
ATOM     40  H   UNL     1     -10.903  -8.376  13.833  0.00  0.00    +0.149 HD
BRANCH   8  26
ATOM     26  CA  UNL     1     -12.109  -6.907  14.770  0.00  0.00    +0.098 C 
BRANCH  26  27
ATOM     27  CB  UNL     1     -12.748  -6.535  13.420  0.00  0.00    +0.027 C 
BRANCH  27  30
ATOM     30  CG  UNL     1     -12.419  -5.114  12.912  0.00  0.00    -0.015 C 
ATOM     32  CD1 UNL     1     -12.135  -5.080  11.410  0.00  0.00    +0.007 C 
ATOM     33  CD2 UNL     1     -13.581  -4.170  13.236  0.00  0.00    +0.007 C 
ENDBRANCH  27  30
ENDBRANCH  26  27
BRANCH  26  29
ATOM     29  C   UNL     1     -11.148  -5.821  15.267  0.00  0.00    +0.178 C 
BRANCH  29   5
ATOM      5  O   UNL     1     -11.118  -5.787  16.688  0.00  0.00    -0.393 OA
ATOM     42  H   UNL     1     -10.186  -5.697  16.951  0.00  0.00    +0.209 HD
ENDBRANCH  29   5
ENDBRANCH  26  29
ENDBRANCH   8  26
ENDBRANCH  23  24
ENDBRANCH  13  23
BRANCH  28  31
ATOM     31  C   UNL     1      -8.852  -8.927   8.682  0.00  0.00    +0.096 C 
BRANCH  31  34
ATOM     34  C   UNL     1      -7.921  -7.755   8.379  0.00  0.00    +0.009 C 
BRANCH  34  35
ATOM     35  C   UNL     1      -8.521  -6.825   7.324  0.00  0.00    +0.000 C 
BRANCH  35  36
ATOM     36  C   UNL     1      -9.823  -6.195   7.814  0.00  0.00    -0.003 C 
ATOM     37  C   UNL     1      -9.562  -4.942   8.635  0.00  0.00    +0.004 C 
ENDBRANCH  35  36
ENDBRANCH  34  35
ENDBRANCH  31  34
ENDBRANCH  28  31
TORSDOF 14
ENDMDL
MODEL 6
REMARK VINA RESULT:      -5.7      2.604      7.755
REMARK  Name = 11885094
REMARK  19 active torsions:
REMARK  status: ('A' for Active; 'I' for Inactive)
REMARK    1  A    between atoms: O_2  and  C_15
REMARK    2  A    between atoms: O_3  and  C_20
REMARK    3  A    between atoms: O_5  and  C_29
REMARK    4  A    between atoms: N_8  and  CA_26
REMARK    5  A    between atoms: C_10  and  C_18
REMARK    6  A    between atoms: C_12  and  C_20
REMARK    7  A    between atoms: C_12  and  C_21
REMARK    8  A    between atoms: C_13  and  C_23
REMARK    9  A    between atoms: C_23  and  C_24
REMARK   10  A    between atoms: CA_26  and  CB_27
REMARK   11  A    between atoms: CA_26  and  C_29
REMARK   12  A    between atoms: CB_27  and  CG_30
REMARK   13  A    between atoms: C_28  and  C_31
REMARK   14  A    between atoms: CG_30  and  CD1_32
REMARK   15  A    between atoms: CG_30  and  CD2_33
REMARK   16  A    between atoms: C_31  and  C_34
REMARK   17  A    between atoms: C_34  and  C_35
REMARK   18  A    between atoms: C_35  and  C_36
REMARK   19  A    between atoms: C_36  and  C_37
REMARK                            x       y       z     vdW  Elec       q    Type
REMARK                         _______ _______ _______ _____ _____    ______ ____
ROOT
ATOM      1  S   UNL     1      10.133   5.152   2.994  0.00  0.00    -0.057 S 
ATOM      6  O   UNL     1      13.259   7.289   5.712  0.00  0.00    -0.275 OA
ATOM      7  N   UNL     1      12.537   6.103   3.091  0.00  0.00    -0.229 NA
ATOM      9  N   UNL     1      11.212   6.291   5.096  0.00  0.00    -0.265 N 
ATOM     10  C   UNL     1      13.114   4.651  -0.434  0.00  0.00    -0.019 C 
ATOM     11  C   UNL     1      11.587   4.834  -0.845  0.00  0.00    +0.011 C 
ATOM     12  C   UNL     1      11.151   4.268  -2.251  0.00  0.00    +0.021 C 
ATOM     13  C   UNL     1      13.423   5.653   0.772  0.00  0.00    +0.054 C 
ATOM     14  C   UNL     1      14.021   5.036  -1.633  0.00  0.00    +0.010 C 
ATOM     15  C   UNL     1      12.188   4.706  -3.324  0.00  0.00    +0.123 C 
ATOM     16  C   UNL     1      10.633   4.430   0.316  0.00  0.00    +0.049 C 
ATOM     17  C   UNL     1      13.626   4.371  -2.943  0.00  0.00    +0.032 C 
ATOM     18  C   UNL     1      13.452   3.203  -0.001  0.00  0.00    +0.012 C 
ATOM     19  C   UNL     1      12.346   5.581   1.825  0.00  0.00    +0.058 A 
ATOM     21  C   UNL     1       9.783   4.892  -2.647  0.00  0.00    +0.016 C 
ATOM     22  C   UNL     1      11.096   5.045   1.594  0.00  0.00    +0.015 A 
ATOM     25  C   UNL     1      11.440   5.927   3.795  0.00  0.00    +0.165 A 
ATOM     28  C   UNL     1      12.112   6.937   5.964  0.00  0.00    +0.219 C 
ATOM     41  H   UNL     1      10.287   6.060   5.450  0.00  0.00    +0.157 HD
ENDROOT
BRANCH  15   2
ATOM      2  O   UNL     1      11.893   4.103  -4.584  0.00  0.00    -0.391 OA
ATOM     38  H   UNL     1      11.619   3.185  -4.414  0.00  0.00    +0.210 HD
ENDBRANCH  15   2
BRANCH  12  20
ATOM     20  C   UNL     1      10.936   2.739  -2.287  0.00  0.00    +0.165 C 
BRANCH  20   3
ATOM      3  O   UNL     1       9.793   2.481  -3.072  0.00  0.00    -0.394 OA
ATOM     39  H   UNL     1       9.851   3.045  -3.861  0.00  0.00    +0.209 HD
ENDBRANCH  20   3
ENDBRANCH  12  20
BRANCH  13  23
ATOM     23  C   UNL     1      14.821   5.499   1.386  0.00  0.00    +0.106 C 
BRANCH  23  24
ATOM      4  O   UNL     1      16.056   7.483   0.758  0.00  0.00    -0.276 OA
ATOM      8  N   UNL     1      15.355   7.218   2.958  0.00  0.00    -0.310 N 
ATOM     24  C   ACE A   0      15.482   6.836   1.630  0.00  0.00    +0.214 C 
ATOM     40  H   UNL     1      14.808   6.636   3.586  0.00  0.00    +0.149 HD
BRANCH   8  26
ATOM     26  CA  UNL     1      15.894   8.452   3.480  0.00  0.00    +0.098 C 
BRANCH  26  27
ATOM     27  CB  UNL     1      16.550   8.229   4.854  0.00  0.00    +0.027 C 
BRANCH  27  30
ATOM     30  CG  UNL     1      18.078   8.452   4.892  0.00  0.00    -0.015 C 
ATOM     32  CD1 UNL     1      18.716   8.385   3.504  0.00  0.00    +0.007 C 
ATOM     33  CD2 UNL     1      18.384   9.809   5.534  0.00  0.00    +0.007 C 
ENDBRANCH  27  30
ENDBRANCH  26  27
BRANCH  26  29
ATOM     29  C   UNL     1      14.798   9.521   3.537  0.00  0.00    +0.178 C 
BRANCH  29   5
ATOM      5  O   UNL     1      13.515   8.938   3.342  0.00  0.00    -0.393 OA
ATOM     42  H   UNL     1      12.856   9.606   3.597  0.00  0.00    +0.209 HD
ENDBRANCH  29   5
ENDBRANCH  26  29
ENDBRANCH   8  26
ENDBRANCH  23  24
ENDBRANCH  13  23
BRANCH  28  31
ATOM     31  C   UNL     1      11.483   7.172   7.331  0.00  0.00    +0.096 C 
BRANCH  31  34
ATOM     34  C   UNL     1       9.980   7.430   7.253  0.00  0.00    +0.009 C 
BRANCH  34  35
ATOM     35  C   UNL     1       9.196   6.416   8.085  0.00  0.00    +0.000 C 
BRANCH  35  36
ATOM     36  C   UNL     1      10.132   5.469   8.834  0.00  0.00    -0.003 C 
ATOM     37  C   UNL     1       9.418   4.194   9.252  0.00  0.00    +0.004 C 
ENDBRANCH  35  36
ENDBRANCH  34  35
ENDBRANCH  31  34
ENDBRANCH  28  31
TORSDOF 14
ENDMDL
MODEL 7
REMARK VINA RESULT:      -5.6     27.066     31.933
REMARK  Name = 11885094
REMARK  19 active torsions:
REMARK  status: ('A' for Active; 'I' for Inactive)
REMARK    1  A    between atoms: O_2  and  C_15
REMARK    2  A    between atoms: O_3  and  C_20
REMARK    3  A    between atoms: O_5  and  C_29
REMARK    4  A    between atoms: N_8  and  CA_26
REMARK    5  A    between atoms: C_10  and  C_18
REMARK    6  A    between atoms: C_12  and  C_20
REMARK    7  A    between atoms: C_12  and  C_21
REMARK    8  A    between atoms: C_13  and  C_23
REMARK    9  A    between atoms: C_23  and  C_24
REMARK   10  A    between atoms: CA_26  and  CB_27
REMARK   11  A    between atoms: CA_26  and  C_29
REMARK   12  A    between atoms: CB_27  and  CG_30
REMARK   13  A    between atoms: C_28  and  C_31
REMARK   14  A    between atoms: CG_30  and  CD1_32
REMARK   15  A    between atoms: CG_30  and  CD2_33
REMARK   16  A    between atoms: C_31  and  C_34
REMARK   17  A    between atoms: C_34  and  C_35
REMARK   18  A    between atoms: C_35  and  C_36
REMARK   19  A    between atoms: C_36  and  C_37
REMARK                            x       y       z     vdW  Elec       q    Type
REMARK                         _______ _______ _______ _____ _____    ______ ____
ROOT
ATOM      1  S   UNL     1      -9.922  -9.797  12.993  0.00  0.00    -0.057 S 
ATOM      6  O   UNL     1      -5.296  -9.598  12.457  0.00  0.00    -0.275 OA
ATOM      7  N   UNL     1      -7.653  -9.911  14.231  0.00  0.00    -0.229 NA
ATOM      9  N   UNL     1      -7.574  -9.570  11.846  0.00  0.00    -0.265 N 
ATOM     10  C   UNL     1      -9.615 -10.030  17.548  0.00  0.00    -0.019 C 
ATOM     11  C   UNL     1     -10.848 -10.784  16.882  0.00  0.00    +0.011 C 
ATOM     12  C   UNL     1     -12.115 -11.025  17.790  0.00  0.00    +0.021 C 
ATOM     13  C   UNL     1      -8.329 -10.283  16.633  0.00  0.00    +0.054 C 
ATOM     14  C   UNL     1      -9.340 -10.629  18.952  0.00  0.00    +0.010 C 
ATOM     15  C   UNL     1     -11.658 -11.580  19.169  0.00  0.00    +0.123 C 
ATOM     16  C   UNL     1     -11.185 -10.198  15.481  0.00  0.00    +0.049 C 
ATOM     17  C   UNL     1     -10.577 -10.732  19.831  0.00  0.00    +0.032 C 
ATOM     18  C   UNL     1      -9.849  -8.506  17.696  0.00  0.00    +0.012 C 
ATOM     19  C   UNL     1      -8.650 -10.062  15.176  0.00  0.00    +0.058 A 
ATOM     21  C   UNL     1     -13.014 -12.109  17.130  0.00  0.00    +0.016 C 
ATOM     22  C   UNL     1      -9.937 -10.046  14.678  0.00  0.00    +0.015 A 
ATOM     25  C   UNL     1      -8.206  -9.757  13.047  0.00  0.00    +0.165 A 
ATOM     28  C   UNL     1      -6.187  -9.501  11.620  0.00  0.00    +0.219 C 
ATOM     41  H   UNL     1      -8.195  -9.473  11.046  0.00  0.00    +0.157 HD
ENDROOT
BRANCH  15   2
ATOM      2  O   UNL     1     -12.768 -11.688  20.061  0.00  0.00    -0.391 OA
ATOM     38  H   UNL     1     -12.414 -11.803  20.959  0.00  0.00    +0.210 HD
ENDBRANCH  15   2
BRANCH  12  20
ATOM     20  C   UNL     1     -13.020  -9.787  17.969  0.00  0.00    +0.165 C 
BRANCH  20   3
ATOM      3  O   UNL     1     -14.353 -10.237  18.075  0.00  0.00    -0.394 OA
ATOM     39  H   UNL     1     -14.927  -9.519  17.760  0.00  0.00    +0.209 HD
ENDBRANCH  20   3
ENDBRANCH  12  20
BRANCH  13  23
ATOM     23  C   UNL     1      -7.080  -9.501  17.057  0.00  0.00    +0.106 C 
BRANCH  23  24
ATOM      4  O   UNL     1      -5.465 -10.563  18.513  0.00  0.00    -0.276 OA
ATOM      8  N   UNL     1      -5.457 -11.054  16.242  0.00  0.00    -0.310 N 
ATOM     24  C   ACE A   0      -5.922 -10.417  17.384  0.00  0.00    +0.214 C 
ATOM     40  H   UNL     1      -5.946 -10.908  15.363  0.00  0.00    +0.149 HD
BRANCH   8  26
ATOM     26  CA  UNL     1      -4.354 -11.987  16.252  0.00  0.00    +0.098 C 
BRANCH  26  27
ATOM     27  CB  UNL     1      -3.621 -11.989  14.899  0.00  0.00    +0.027 C 
BRANCH  27  30
ATOM     30  CG  UNL     1      -2.194 -11.398  14.927  0.00  0.00    -0.015 C 
ATOM     32  CD1 UNL     1      -1.961 -10.374  13.815  0.00  0.00    +0.007 C 
ATOM     33  CD2 UNL     1      -1.935 -10.746  16.289  0.00  0.00    +0.007 C 
ENDBRANCH  27  30
ENDBRANCH  26  27
BRANCH  26  29
ATOM     29  C   UNL     1      -4.852 -13.384  16.634  0.00  0.00    +0.178 C 
BRANCH  29   5
ATOM      5  O   UNL     1      -4.615 -13.644  18.012  0.00  0.00    -0.393 OA
ATOM     42  H   UNL     1      -3.771 -14.124  18.071  0.00  0.00    +0.209 HD
ENDBRANCH  29   5
ENDBRANCH  26  29
ENDBRANCH   8  26
ENDBRANCH  23  24
ENDBRANCH  13  23
BRANCH  28  31
ATOM     31  C   UNL     1      -5.880  -9.286  10.144  0.00  0.00    +0.096 C 
BRANCH  31  34
ATOM     34  C   UNL     1      -4.455  -9.688   9.773  0.00  0.00    +0.009 C 
BRANCH  34  35
ATOM     35  C   UNL     1      -4.445 -10.845   8.773  0.00  0.00    +0.000 C 
BRANCH  35  36
ATOM     36  C   UNL     1      -4.127 -12.172   9.462  0.00  0.00    -0.003 C 
ATOM     37  C   UNL     1      -3.380 -11.957  10.768  0.00  0.00    +0.004 C 
ENDBRANCH  35  36
ENDBRANCH  34  35
ENDBRANCH  31  34
ENDBRANCH  28  31
TORSDOF 14
ENDMDL
MODEL 8
REMARK VINA RESULT:      -5.6      2.081      6.529
REMARK  Name = 11885094
REMARK  19 active torsions:
REMARK  status: ('A' for Active; 'I' for Inactive)
REMARK    1  A    between atoms: O_2  and  C_15
REMARK    2  A    between atoms: O_3  and  C_20
REMARK    3  A    between atoms: O_5  and  C_29
REMARK    4  A    between atoms: N_8  and  CA_26
REMARK    5  A    between atoms: C_10  and  C_18
REMARK    6  A    between atoms: C_12  and  C_20
REMARK    7  A    between atoms: C_12  and  C_21
REMARK    8  A    between atoms: C_13  and  C_23
REMARK    9  A    between atoms: C_23  and  C_24
REMARK   10  A    between atoms: CA_26  and  CB_27
REMARK   11  A    between atoms: CA_26  and  C_29
REMARK   12  A    between atoms: CB_27  and  CG_30
REMARK   13  A    between atoms: C_28  and  C_31
REMARK   14  A    between atoms: CG_30  and  CD1_32
REMARK   15  A    between atoms: CG_30  and  CD2_33
REMARK   16  A    between atoms: C_31  and  C_34
REMARK   17  A    between atoms: C_34  and  C_35
REMARK   18  A    between atoms: C_35  and  C_36
REMARK   19  A    between atoms: C_36  and  C_37
REMARK                            x       y       z     vdW  Elec       q    Type
REMARK                         _______ _______ _______ _____ _____    ______ ____
ROOT
ATOM      1  S   UNL     1      15.842   7.195   1.382  0.00  0.00    -0.057 S 
ATOM      6  O   UNL     1      12.416   4.212   2.426  0.00  0.00    -0.275 OA
ATOM      7  N   UNL     1      14.049   6.582   3.143  0.00  0.00    -0.229 NA
ATOM      9  N   UNL     1      14.171   5.183   1.184  0.00  0.00    -0.265 N 
ATOM     10  C   UNL     1      15.528   9.325   5.414  0.00  0.00    -0.019 C 
ATOM     11  C   UNL     1      15.979  10.217   4.175  0.00  0.00    +0.011 C 
ATOM     12  C   UNL     1      16.809  11.520   4.495  0.00  0.00    +0.021 C 
ATOM     13  C   UNL     1      14.366   8.346   4.920  0.00  0.00    +0.054 C 
ATOM     14  C   UNL     1      14.955  10.240   6.528  0.00  0.00    +0.010 C 
ATOM     15  C   UNL     1      16.124  12.290   5.659  0.00  0.00    +0.123 C 
ATOM     16  C   UNL     1      16.592   9.347   3.040  0.00  0.00    +0.049 C 
ATOM     17  C   UNL     1      15.851  11.418   6.880  0.00  0.00    +0.032 C 
ATOM     18  C   UNL     1      16.689   8.488   6.007  0.00  0.00    +0.012 C 
ATOM     19  C   UNL     1      14.731   7.690   3.612  0.00  0.00    +0.058 A 
ATOM     21  C   UNL     1      16.792  12.451   3.250  0.00  0.00    +0.016 C 
ATOM     22  C   UNL     1      15.720   8.166   2.776  0.00  0.00    +0.015 A 
ATOM     25  C   UNL     1      14.553   6.231   1.981  0.00  0.00    +0.165 A 
ATOM     28  C   UNL     1      13.148   4.252   1.443  0.00  0.00    +0.219 C 
ATOM     41  H   UNL     1      14.696   5.089   0.319  0.00  0.00    +0.157 HD
ENDROOT
BRANCH  15   2
ATOM      2  O   UNL     1      16.920  13.406   6.060  0.00  0.00    -0.391 OA
ATOM     38  H   UNL     1      16.754  14.127   5.429  0.00  0.00    +0.210 HD
ENDBRANCH  15   2
BRANCH  12  20
ATOM     20  C   UNL     1      18.301  11.268   4.806  0.00  0.00    +0.165 C 
BRANCH  20   3
ATOM      3  O   UNL     1      19.062  11.855   3.773  0.00  0.00    -0.394 OA
ATOM     39  H   UNL     1      19.942  11.443   3.792  0.00  0.00    +0.209 HD
ENDBRANCH  20   3
ENDBRANCH  12  20
BRANCH  13  23
ATOM     23  C   UNL     1      13.917   7.312   5.961  0.00  0.00    +0.106 C 
BRANCH  23  24
ATOM      4  O   UNL     1      11.835   8.223   6.792  0.00  0.00    -0.276 OA
ATOM      8  N   UNL     1      11.817   6.235   5.590  0.00  0.00    -0.310 N 
ATOM     24  C   ACE A   0      12.421   7.338   6.175  0.00  0.00    +0.214 C 
ATOM     40  H   UNL     1      12.388   5.590   5.050  0.00  0.00    +0.149 HD
BRANCH   8  26
ATOM     26  CA  UNL     1      10.393   5.995   5.639  0.00  0.00    +0.098 C 
BRANCH  26  27
ATOM     27  CB  UNL     1      10.052   4.906   6.670  0.00  0.00    +0.027 C 
BRANCH  27  30
ATOM     30  CG  UNL     1       9.954   5.398   8.132  0.00  0.00    -0.015 C 
ATOM     32  CD1 UNL     1       9.003   6.584   8.288  0.00  0.00    +0.007 C 
ATOM     33  CD2 UNL     1       9.493   4.247   9.031  0.00  0.00    +0.007 C 
ENDBRANCH  27  30
ENDBRANCH  26  27
BRANCH  26  29
ATOM     29  C   UNL     1       9.873   5.642   4.241  0.00  0.00    +0.178 C 
BRANCH  29   5
ATOM      5  O   UNL     1      10.689   6.230   3.236  0.00  0.00    -0.393 OA
ATOM     42  H   UNL     1      10.154   6.278   2.425  0.00  0.00    +0.209 HD
ENDBRANCH  29   5
ENDBRANCH  26  29
ENDBRANCH   8  26
ENDBRANCH  23  24
ENDBRANCH  13  23
BRANCH  28  31
ATOM     31  C   UNL     1      13.028   3.239   0.313  0.00  0.00    +0.096 C 
BRANCH  31  34
ATOM     34  C   UNL     1      12.319   3.805  -0.915  0.00  0.00    +0.009 C 
BRANCH  34  35
ATOM     35  C   UNL     1      13.151   3.604  -2.182  0.00  0.00    +0.000 C 
BRANCH  35  36
ATOM     36  C   UNL     1      12.366   2.841  -3.248  0.00  0.00    -0.003 C 
ATOM     37  C   UNL     1      11.123   2.190  -2.665  0.00  0.00    +0.004 C 
ENDBRANCH  35  36
ENDBRANCH  34  35
ENDBRANCH  31  34
ENDBRANCH  28  31
TORSDOF 14
ENDMDL
MODEL 9
REMARK VINA RESULT:      -5.5     27.289     31.487
REMARK  Name = 11885094
REMARK  19 active torsions:
REMARK  status: ('A' for Active; 'I' for Inactive)
REMARK    1  A    between atoms: O_2  and  C_15
REMARK    2  A    between atoms: O_3  and  C_20
REMARK    3  A    between atoms: O_5  and  C_29
REMARK    4  A    between atoms: N_8  and  CA_26
REMARK    5  A    between atoms: C_10  and  C_18
REMARK    6  A    between atoms: C_12  and  C_20
REMARK    7  A    between atoms: C_12  and  C_21
REMARK    8  A    between atoms: C_13  and  C_23
REMARK    9  A    between atoms: C_23  and  C_24
REMARK   10  A    between atoms: CA_26  and  CB_27
REMARK   11  A    between atoms: CA_26  and  C_29
REMARK   12  A    between atoms: CB_27  and  CG_30
REMARK   13  A    between atoms: C_28  and  C_31
REMARK   14  A    between atoms: CG_30  and  CD1_32
REMARK   15  A    between atoms: CG_30  and  CD2_33
REMARK   16  A    between atoms: C_31  and  C_34
REMARK   17  A    between atoms: C_34  and  C_35
REMARK   18  A    between atoms: C_35  and  C_36
REMARK   19  A    between atoms: C_36  and  C_37
REMARK                            x       y       z     vdW  Elec       q    Type
REMARK                         _______ _______ _______ _____ _____    ______ ____
ROOT
ATOM      1  S   UNL     1      -6.219 -10.688  12.624  0.00  0.00    -0.057 S 
ATOM      6  O   UNL     1      -9.926  -8.748  10.571  0.00  0.00    -0.275 OA
ATOM      7  N   UNL     1      -8.622  -9.812  13.013  0.00  0.00    -0.229 NA
ATOM      9  N   UNL     1      -7.760  -9.662  10.767  0.00  0.00    -0.265 N 
ATOM     10  C   UNL     1      -8.384 -11.146  16.623  0.00  0.00    -0.019 C 
ATOM     11  C   UNL     1      -6.813 -10.903  16.693  0.00  0.00    +0.011 C 
ATOM     12  C   UNL     1      -6.068 -11.403  17.991  0.00  0.00    +0.021 C 
ATOM     13  C   UNL     1      -8.979 -10.200  15.480  0.00  0.00    +0.054 C 
ATOM     14  C   UNL     1      -9.030 -10.743  17.975  0.00  0.00    +0.010 C 
ATOM     15  C   UNL     1      -6.870 -10.955  19.246  0.00  0.00    +0.123 C 
ATOM     16  C   UNL     1      -6.112 -11.323  15.368  0.00  0.00    +0.049 C 
ATOM     17  C   UNL     1      -8.342 -11.347  19.191  0.00  0.00    +0.032 C 
ATOM     18  C   UNL     1      -8.753 -12.619  16.317  0.00  0.00    +0.012 C 
ATOM     19  C   UNL     1      -8.148 -10.280  14.225  0.00  0.00    +0.058 A 
ATOM     21  C   UNL     1      -4.671 -10.725  18.067  0.00  0.00    +0.016 C 
ATOM     22  C   UNL     1      -6.859 -10.771  14.201  0.00  0.00    +0.015 A 
ATOM     25  C   UNL     1      -7.693  -9.983  12.098  0.00  0.00    +0.165 A 
ATOM     28  C   UNL     1      -8.847  -9.076  10.091  0.00  0.00    +0.219 C 
ATOM     41  H   UNL     1      -6.923  -9.879  10.232  0.00  0.00    +0.157 HD
ENDROOT
BRANCH  15   2
ATOM      2  O   UNL     1      -6.292 -11.501  20.432  0.00  0.00    -0.391 OA
ATOM     38  H   UNL     1      -6.918 -12.154  20.790  0.00  0.00    +0.210 HD
ENDBRANCH  15   2
BRANCH  12  20
ATOM     20  C   UNL     1      -5.795 -12.923  18.027  0.00  0.00    +0.165 C 
BRANCH  20   3
ATOM      3  O   UNL     1      -4.521 -13.120  18.601  0.00  0.00    -0.394 OA
ATOM     39  H   UNL     1      -3.863 -12.792  17.964  0.00  0.00    +0.209 HD
ENDBRANCH  20   3
ENDBRANCH  12  20
BRANCH  13  23
ATOM     23  C   UNL     1     -10.469 -10.418  15.183  0.00  0.00    +0.106 C 
BRANCH  23  24
ATOM      4  O   UNL     1     -12.033  -9.224  16.591  0.00  0.00    -0.276 OA
ATOM      8  N   UNL     1     -11.149  -8.177  14.714  0.00  0.00    -0.310 N 
ATOM     24  C   ACE A   0     -11.308  -9.233  15.600  0.00  0.00    +0.214 C 
ATOM     40  H   UNL     1     -10.478  -8.267  13.957  0.00  0.00    +0.149 HD
BRANCH   8  26
ATOM     26  CA  UNL     1     -11.834  -6.913  14.860  0.00  0.00    +0.098 C 
BRANCH  26  27
ATOM     27  CB  UNL     1     -12.385  -6.425  13.510  0.00  0.00    +0.027 C 
BRANCH  27  30
ATOM     30  CG  UNL     1     -12.975  -4.997  13.522  0.00  0.00    -0.015 C 
ATOM     32  CD1 UNL     1     -12.293  -4.072  12.513  0.00  0.00    +0.007 C 
ATOM     33  CD2 UNL     1     -14.477  -5.059  13.229  0.00  0.00    +0.007 C 
ENDBRANCH  27  30
ENDBRANCH  26  27
BRANCH  26  29
ATOM     29  C   UNL     1     -10.899  -5.882  15.503  0.00  0.00    +0.178 C 
BRANCH  29   5
ATOM      5  O   UNL     1     -11.033  -5.893  16.918  0.00  0.00    -0.393 OA
ATOM     42  H   UNL     1     -10.141  -6.009  17.289  0.00  0.00    +0.209 HD
ENDBRANCH  29   5
ENDBRANCH  26  29
ENDBRANCH   8  26
ENDBRANCH  23  24
ENDBRANCH  13  23
BRANCH  28  31
ATOM     31  C   UNL     1      -8.531  -8.874   8.615  0.00  0.00    +0.096 C 
BRANCH  31  34
ATOM     34  C   UNL     1      -7.053  -8.589   8.362  0.00  0.00    +0.009 C 
BRANCH  34  35
ATOM     35  C   UNL     1      -6.464  -9.564   7.341  0.00  0.00    +0.000 C 
BRANCH  35  36
ATOM     36  C   UNL     1      -5.077 -10.044   7.766  0.00  0.00    -0.003 C 
ATOM     37  C   UNL     1      -4.544  -9.239   8.940  0.00  0.00    +0.004 C 
ENDBRANCH  35  36
ENDBRANCH  34  35
ENDBRANCH  31  34
ENDBRANCH  28  31
TORSDOF 14
ENDMDL
MODEL 10
REMARK VINA RESULT:      -5.4     27.452     30.270
REMARK  Name = 11885094
REMARK  19 active torsions:
REMARK  status: ('A' for Active; 'I' for Inactive)
REMARK    1  A    between atoms: O_2  and  C_15
REMARK    2  A    between atoms: O_3  and  C_20
REMARK    3  A    between atoms: O_5  and  C_29
REMARK    4  A    between atoms: N_8  and  CA_26
REMARK    5  A    between atoms: C_10  and  C_18
REMARK    6  A    between atoms: C_12  and  C_20
REMARK    7  A    between atoms: C_12  and  C_21
REMARK    8  A    between atoms: C_13  and  C_23
REMARK    9  A    between atoms: C_23  and  C_24
REMARK   10  A    between atoms: CA_26  and  CB_27
REMARK   11  A    between atoms: CA_26  and  C_29
REMARK   12  A    between atoms: CB_27  and  CG_30
REMARK   13  A    between atoms: C_28  and  C_31
REMARK   14  A    between atoms: CG_30  and  CD1_32
REMARK   15  A    between atoms: CG_30  and  CD2_33
REMARK   16  A    between atoms: C_31  and  C_34
REMARK   17  A    between atoms: C_34  and  C_35
REMARK   18  A    between atoms: C_35  and  C_36
REMARK   19  A    between atoms: C_36  and  C_37
REMARK                            x       y       z     vdW  Elec       q    Type
REMARK                         _______ _______ _______ _____ _____    ______ ____
ROOT
ATOM      1  S   UNL     1      -5.300  -9.204  10.786  0.00  0.00    -0.057 S 
ATOM      6  O   UNL     1      -9.830  -8.464   9.973  0.00  0.00    -0.275 OA
ATOM      7  N   UNL     1      -7.683  -9.474  11.754  0.00  0.00    -0.229 NA
ATOM      9  N   UNL     1      -7.504  -8.462   9.574  0.00  0.00    -0.265 N 
ATOM     10  C   UNL     1      -6.127 -11.426  14.693  0.00  0.00    -0.019 C 
ATOM     11  C   UNL     1      -4.766 -10.604  14.621  0.00  0.00    +0.011 C 
ATOM     12  C   UNL     1      -3.602 -11.062  15.581  0.00  0.00    +0.021 C 
ATOM     13  C   UNL     1      -7.270 -10.551  13.998  0.00  0.00    +0.054 C 
ATOM     14  C   UNL     1      -6.518 -11.649  16.178  0.00  0.00    +0.010 C 
ATOM     15  C   UNL     1      -4.173 -11.284  17.010  0.00  0.00    +0.123 C 
ATOM     16  C   UNL     1      -4.313 -10.381  13.149  0.00  0.00    +0.049 C 
ATOM     17  C   UNL     1      -5.390 -12.202  17.035  0.00  0.00    +0.032 C 
ATOM     18  C   UNL     1      -6.037 -12.804  13.992  0.00  0.00    +0.012 C 
ATOM     19  C   UNL     1      -6.797  -9.991  12.680  0.00  0.00    +0.058 A 
ATOM     21  C   UNL     1      -2.545  -9.925  15.675  0.00  0.00    +0.016 C 
ATOM     22  C   UNL     1      -5.465  -9.908  12.328  0.00  0.00    +0.015 A 
ATOM     25  C   UNL     1      -7.007  -9.038  10.714  0.00  0.00    +0.165 A 
ATOM     28  C   UNL     1      -8.856  -8.212   9.272  0.00  0.00    +0.219 C 
ATOM     41  H   UNL     1      -6.802  -8.194   8.889  0.00  0.00    +0.157 HD
ENDROOT
BRANCH  15   2
ATOM      2  O   UNL     1      -3.172 -11.823  17.874  0.00  0.00    -0.391 OA
ATOM     38  H   UNL     1      -2.892 -12.677  17.503  0.00  0.00    +0.210 HD
ENDBRANCH  15   2
BRANCH  12  20
ATOM     20  C   UNL     1      -2.828 -12.309  15.099  0.00  0.00    +0.165 C 
BRANCH  20   3
ATOM      3  O   UNL     1      -1.449 -12.037  15.224  0.00  0.00    -0.394 OA
ATOM     39  H   UNL     1      -1.045 -12.794  15.680  0.00  0.00    +0.209 HD
ENDBRANCH  20   3
ENDBRANCH  12  20
BRANCH  13  23
ATOM     23  C   UNL     1      -8.621 -11.264  13.853  0.00  0.00    +0.106 C 
BRANCH  23  24
ATOM      4  O   UNL     1     -10.303 -11.465  15.581  0.00  0.00    -0.276 OA
ATOM      8  N   UNL     1      -9.730  -9.361  14.778  0.00  0.00    -0.310 N 
ATOM     24  C   ACE A   0      -9.643 -10.744  14.838  0.00  0.00    +0.214 C 
ATOM     40  H   UNL     1      -9.095  -8.854  14.168  0.00  0.00    +0.149 HD
BRANCH   8  26
ATOM     26  CA  UNL     1     -10.630  -8.590  15.605  0.00  0.00    +0.098 C 
BRANCH  26  27
ATOM     27  CB  UNL     1     -11.714  -7.907  14.753  0.00  0.00    +0.027 C 
BRANCH  27  30
ATOM     30  CG  UNL     1     -12.214  -6.550  15.296  0.00  0.00    -0.015 C 
ATOM     32  CD1 UNL     1     -12.142  -5.437  14.249  0.00  0.00    +0.007 C 
ATOM     33  CD2 UNL     1     -13.655  -6.695  15.793  0.00  0.00    +0.007 C 
ENDBRANCH  27  30
ENDBRANCH  26  27
BRANCH  26  29
ATOM     29  C   UNL     1      -9.837  -7.577  16.439  0.00  0.00    +0.178 C 
BRANCH  29   5
ATOM      5  O   UNL     1      -9.628  -8.064  17.758  0.00  0.00    -0.393 OA
ATOM     42  H   UNL     1     -10.506  -8.243  18.138  0.00  0.00    +0.209 HD
ENDBRANCH  29   5
ENDBRANCH  26  29
ENDBRANCH   8  26
ENDBRANCH  23  24
ENDBRANCH  13  23
BRANCH  28  31
ATOM     31  C   UNL     1      -9.001  -7.554   7.906  0.00  0.00    +0.096 C 
BRANCH  31  34
ATOM     34  C   UNL     1      -8.993  -6.029   7.981  0.00  0.00    +0.009 C 
BRANCH  34  35
ATOM     35  C   UNL     1     -10.306  -5.493   8.552  0.00  0.00    +0.000 C 
BRANCH  35  36
ATOM     36  C   UNL     1     -10.167  -4.038   8.996  0.00  0.00    -0.003 C 
ATOM     37  C   UNL     1     -11.433  -3.537   9.672  0.00  0.00    +0.004 C 
ENDBRANCH  35  36
ENDBRANCH  34  35
ENDBRANCH  31  34
ENDBRANCH  28  31
TORSDOF 14
ENDMDL
