MODEL 1
REMARK VINA RESULT:      -7.5      0.000      0.000
REMARK  Name = 75536087
REMARK  7 active torsions:
REMARK  status: ('A' for Active; 'I' for Inactive)
REMARK    1  A    between atoms: O_1  and  C_10
REMARK    2  A    between atoms: O_2  and  C_12
REMARK    3  A    between atoms: N_5  and  C_9
REMARK    4  A    between atoms: N_7  and  C_18
REMARK    5  A    between atoms: C_8  and  C_13
REMARK    6  A    between atoms: C_16  and  C_19
REMARK    7  A    between atoms: C_24  and  C_27
REMARK                            x       y       z     vdW  Elec       q    Type
REMARK                         _______ _______ _______ _____ _____    ______ ____
ROOT
ATOM      8  C   UNL     1      14.076   9.185  19.059  0.00  0.00    +0.046 C 
ATOM      9  C   UNL     1      12.855   8.929  19.973  0.00  0.00    +0.112 C 
ATOM     10  C   UNL     1      11.672   8.986  19.008  0.00  0.00    +0.164 C 
ATOM     11  C   UNL     1      13.625   8.787  17.631  0.00  0.00    +0.044 C 
ATOM     12  C   UNL     1      12.198   8.263  17.774  0.00  0.00    +0.145 C 
ENDROOT
BRANCH   8  13
ATOM      6  N   UNL     1      17.373   8.560  20.827  0.00  0.00    -0.240 NA
ATOM     13  C   UNL     1      15.330   8.484  19.537  0.00  0.00    -0.024 A 
ATOM     14  C   UNL     1      15.610   7.176  19.157  0.00  0.00    +0.009 A 
ATOM     15  C   UNL     1      16.236   9.126  20.367  0.00  0.00    +0.116 A 
ATOM     17  C   UNL     1      16.770   6.559  19.611  0.00  0.00    +0.044 A 
ATOM     18  C   UNL     1      17.611   7.287  20.436  0.00  0.00    +0.121 A 
BRANCH  18   7
ATOM      4  O   UNL     1      20.951   5.178  21.878  0.00  0.00    -0.377 OA
ATOM      7  N   UNL     1      18.776   6.654  20.884  0.00  0.00    -0.311 N 
ATOM     20  C   UNL     1      19.161   5.384  20.254  0.00  0.00    +0.134 C 
ATOM     21  C   UNL     1      19.207   6.817  22.277  0.00  0.00    +0.134 C 
ATOM     22  C   UNL     1      20.646   5.125  20.484  0.00  0.00    +0.178 C 
ATOM     23  C   UNL     1      20.689   6.480  22.399  0.00  0.00    +0.178 C 
ENDBRANCH  18   7
ENDBRANCH   8  13
BRANCH   9   5
ATOM      3  O   UNL     1      11.610   8.582  22.537  0.00  0.00    -0.270 OA
ATOM      5  N   UNL     1      12.745   9.917  21.017  0.00  0.00    -0.305 N 
ATOM     16  C   UNL     1      12.122   9.656  22.230  0.00  0.00    +0.245 C 
ATOM     30  H   UNL     1      13.180  10.824  20.871  0.00  0.00    +0.149 HD
BRANCH  16  19
ATOM     19  C   UNL     1      12.068  10.788  23.191  0.00  0.00    +0.040 A 
ATOM     24  C   UNL     1      13.234  11.345  23.715  0.00  0.00    -0.038 A 
ATOM     25  C   UNL     1      10.823  11.293  23.567  0.00  0.00    +0.013 A 
ATOM     26  C   UNL     1      13.157  12.408  24.615  0.00  0.00    +0.004 A 
ATOM     27  C   UNL     1      14.581  10.824  23.328  0.00  0.00    +0.044 C 
ATOM     28  C   UNL     1      10.745  12.355  24.468  0.00  0.00    +0.001 A 
ATOM     29  C   UNL     1      11.912  12.913  24.992  0.00  0.00    +0.000 A 
ENDBRANCH  16  19
ENDBRANCH   9   5
BRANCH  10   1
ATOM      1  O   UNL     1      10.525   8.340  19.528  0.00  0.00    -0.387 OA
ATOM     31  H   UNL     1      10.790   7.443  19.792  0.00  0.00    +0.210 HD
ENDBRANCH  10   1
BRANCH  12   2
ATOM      2  O   UNL     1      12.246   6.856  17.988  0.00  0.00    -0.389 OA
ATOM     32  H   UNL     1      12.834   6.478  17.311  0.00  0.00    +0.210 HD
ENDBRANCH  12   2
TORSDOF 6
ENDMDL
MODEL 2
REMARK VINA RESULT:      -7.2      3.187      7.480
REMARK  Name = 75536087
REMARK  7 active torsions:
REMARK  status: ('A' for Active; 'I' for Inactive)
REMARK    1  A    between atoms: O_1  and  C_10
REMARK    2  A    between atoms: O_2  and  C_12
REMARK    3  A    between atoms: N_5  and  C_9
REMARK    4  A    between atoms: N_7  and  C_18
REMARK    5  A    between atoms: C_8  and  C_13
REMARK    6  A    between atoms: C_16  and  C_19
REMARK    7  A    between atoms: C_24  and  C_27
REMARK                            x       y       z     vdW  Elec       q    Type
REMARK                         _______ _______ _______ _____ _____    ______ ____
ROOT
ATOM      8  C   UNL     1      13.311   9.208  20.172  0.00  0.00    +0.046 C 
ATOM      9  C   UNL     1      13.475   7.673  20.245  0.00  0.00    +0.112 C 
ATOM     10  C   UNL     1      12.550   7.272  21.392  0.00  0.00    +0.164 C 
ATOM     11  C   UNL     1      11.937   9.517  20.818  0.00  0.00    +0.044 C 
ATOM     12  C   UNL     1      11.333   8.163  21.183  0.00  0.00    +0.145 C 
ENDROOT
BRANCH   8  13
ATOM      6  N   UNL     1      14.647  11.240  17.260  0.00  0.00    -0.240 NA
ATOM     13  C   UNL     1      13.479   9.756  18.770  0.00  0.00    -0.024 A 
ATOM     14  C   UNL     1      12.669   9.320  17.727  0.00  0.00    +0.009 A 
ATOM     15  C   UNL     1      14.445  10.709  18.486  0.00  0.00    +0.116 A 
ATOM     17  C   UNL     1      12.847   9.843  16.451  0.00  0.00    +0.044 A 
ATOM     18  C   UNL     1      13.840  10.791  16.271  0.00  0.00    +0.121 A 
BRANCH  18   7
ATOM      4  O   UNL     1      14.261  12.101  12.297  0.00  0.00    -0.377 OA
ATOM      7  N   UNL     1      14.006  11.309  14.982  0.00  0.00    -0.311 N 
ATOM     20  C   UNL     1      12.814  11.462  14.137  0.00  0.00    +0.134 C 
ATOM     21  C   UNL     1      15.261  11.078  14.258  0.00  0.00    +0.134 C 
ATOM     22  C   UNL     1      13.094  12.473  13.031  0.00  0.00    +0.178 C 
ATOM     23  C   UNL     1      15.410  12.109  13.145  0.00  0.00    +0.178 C 
ENDBRANCH  18   7
ENDBRANCH   8  13
BRANCH   9   5
ATOM      3  O   UNL     1      15.473   7.065  18.273  0.00  0.00    -0.270 OA
ATOM      5  N   UNL     1      14.841   7.287  20.494  0.00  0.00    -0.305 N 
ATOM     16  C   UNL     1      15.739   7.011  19.472  0.00  0.00    +0.245 C 
ATOM     30  H   UNL     1      15.166   7.259  21.457  0.00  0.00    +0.149 HD
BRANCH  16  19
ATOM     19  C   UNL     1      17.103   6.601  19.895  0.00  0.00    +0.040 A 
ATOM     24  C   UNL     1      17.818   7.339  20.839  0.00  0.00    -0.038 A 
ATOM     25  C   UNL     1      17.666   5.456  19.333  0.00  0.00    +0.013 A 
ATOM     26  C   UNL     1      19.096   6.933  21.220  0.00  0.00    +0.004 A 
ATOM     27  C   UNL     1      17.237   8.570  21.457  0.00  0.00    +0.044 C 
ATOM     28  C   UNL     1      18.945   5.049  19.714  0.00  0.00    +0.001 A 
ATOM     29  C   UNL     1      19.660   5.787  20.658  0.00  0.00    +0.000 A 
ENDBRANCH  16  19
ENDBRANCH   9   5
BRANCH  10   1
ATOM      1  O   UNL     1      12.196   5.902  21.340  0.00  0.00    -0.387 OA
ATOM     31  H   UNL     1      12.464   5.500  22.184  0.00  0.00    +0.210 HD
ENDBRANCH  10   1
BRANCH  12   2
ATOM      2  O   UNL     1      10.546   7.704  20.088  0.00  0.00    -0.389 OA
ATOM     32  H   UNL     1      10.779   8.245  19.314  0.00  0.00    +0.210 HD
ENDBRANCH  12   2
TORSDOF 6
ENDMDL
MODEL 3
REMARK VINA RESULT:      -6.9      3.909      7.876
REMARK  Name = 75536087
REMARK  7 active torsions:
REMARK  status: ('A' for Active; 'I' for Inactive)
REMARK    1  A    between atoms: O_1  and  C_10
REMARK    2  A    between atoms: O_2  and  C_12
REMARK    3  A    between atoms: N_5  and  C_9
REMARK    4  A    between atoms: N_7  and  C_18
REMARK    5  A    between atoms: C_8  and  C_13
REMARK    6  A    between atoms: C_16  and  C_19
REMARK    7  A    between atoms: C_24  and  C_27
REMARK                            x       y       z     vdW  Elec       q    Type
REMARK                         _______ _______ _______ _____ _____    ______ ____
ROOT
ATOM      8  C   UNL     1      13.523   8.602  20.781  0.00  0.00    +0.046 C 
ATOM      9  C   UNL     1      12.928   8.644  19.355  0.00  0.00    +0.112 C 
ATOM     10  C   UNL     1      12.899   7.174  18.940  0.00  0.00    +0.164 C 
ATOM     11  C   UNL     1      13.247   7.173  21.313  0.00  0.00    +0.044 C 
ATOM     12  C   UNL     1      12.458   6.463  20.214  0.00  0.00    +0.145 C 
ENDROOT
BRANCH   8  13
ATOM      6  N   UNL     1      13.451  11.391  23.352  0.00  0.00    -0.240 NA
ATOM     13  C   UNL     1      13.003   9.711  21.672  0.00  0.00    -0.024 A 
ATOM     14  C   UNL     1      11.661  10.074  21.656  0.00  0.00    +0.009 A 
ATOM     15  C   UNL     1      13.849  10.395  22.530  0.00  0.00    +0.116 A 
ATOM     17  C   UNL     1      11.213  11.095  22.487  0.00  0.00    +0.044 A 
ATOM     18  C   UNL     1      12.139  11.716  23.308  0.00  0.00    +0.121 A 
BRANCH  18   7
ATOM      4  O   UNL     1      10.619  14.602  25.962  0.00  0.00    -0.377 OA
ATOM      7  N   UNL     1      11.673  12.741  24.139  0.00  0.00    -0.311 N 
ATOM     20  C   UNL     1      12.186  12.805  25.515  0.00  0.00    +0.134 C 
ATOM     21  C   UNL     1      10.322  13.279  23.950  0.00  0.00    +0.134 C 
ATOM     22  C   UNL     1      11.987  14.210  26.073  0.00  0.00    +0.178 C 
ATOM     23  C   UNL     1      10.222  14.658  24.592  0.00  0.00    +0.178 C 
ENDBRANCH  18   7
ENDBRANCH   8  13
BRANCH   9   5
ATOM      3  O   UNL     1      12.115   9.703  16.813  0.00  0.00    -0.270 OA
ATOM      5  N   UNL     1      13.728   9.440  18.459  0.00  0.00    -0.305 N 
ATOM     16  C   UNL     1      13.246   9.910  17.244  0.00  0.00    +0.245 C 
ATOM     30  H   UNL     1      14.665   9.700  18.752  0.00  0.00    +0.149 HD
BRANCH  16  19
ATOM     19  C   UNL     1      14.205  10.694  16.423  0.00  0.00    +0.040 A 
ATOM     24  C   UNL     1      14.525  12.012  16.750  0.00  0.00    -0.038 A 
ATOM     25  C   UNL     1      14.787  10.091  15.309  0.00  0.00    +0.013 A 
ATOM     26  C   UNL     1      15.428  12.727  15.964  0.00  0.00    +0.004 A 
ATOM     27  C   UNL     1      13.916  12.681  17.940  0.00  0.00    +0.044 C 
ATOM     28  C   UNL     1      15.690  10.805  14.521  0.00  0.00    +0.001 A 
ATOM     29  C   UNL     1      16.011  12.123  14.849  0.00  0.00    +0.000 A 
ENDBRANCH  16  19
ENDBRANCH   9   5
BRANCH  10   1
ATOM      1  O   UNL     1      11.991   6.934  17.881  0.00  0.00    -0.387 OA
ATOM     31  H   UNL     1      12.178   6.046  17.533  0.00  0.00    +0.210 HD
ENDBRANCH  10   1
BRANCH  12   2
ATOM      2  O   UNL     1      11.068   6.658  20.452  0.00  0.00    -0.389 OA
ATOM     32  H   UNL     1      10.664   6.935  19.611  0.00  0.00    +0.210 HD
ENDBRANCH  12   2
TORSDOF 6
ENDMDL
MODEL 4
REMARK VINA RESULT:      -6.8     15.673     18.867
REMARK  Name = 75536087
REMARK  7 active torsions:
REMARK  status: ('A' for Active; 'I' for Inactive)
REMARK    1  A    between atoms: O_1  and  C_10
REMARK    2  A    between atoms: O_2  and  C_12
REMARK    3  A    between atoms: N_5  and  C_9
REMARK    4  A    between atoms: N_7  and  C_18
REMARK    5  A    between atoms: C_8  and  C_13
REMARK    6  A    between atoms: C_16  and  C_19
REMARK    7  A    between atoms: C_24  and  C_27
REMARK                            x       y       z     vdW  Elec       q    Type
REMARK                         _______ _______ _______ _____ _____    ______ ____
ROOT
ATOM      8  C   UNL     1       9.616   5.074   5.130  0.00  0.00    +0.046 C 
ATOM      9  C   UNL     1       9.511   6.527   5.646  0.00  0.00    +0.112 C 
ATOM     10  C   UNL     1       9.120   6.355   7.113  0.00  0.00    +0.164 C 
ATOM     11  C   UNL     1       9.870   4.198   6.383  0.00  0.00    +0.044 C 
ATOM     12  C   UNL     1       9.964   5.168   7.559  0.00  0.00    +0.145 C 
ENDROOT
BRANCH   8  13
ATOM      6  N   UNL     1      12.471   5.849   2.756  0.00  0.00    -0.240 NA
ATOM     13  C   UNL     1      10.646   4.909   4.033  0.00  0.00    -0.024 A 
ATOM     14  C   UNL     1      10.734   3.728   3.303  0.00  0.00    +0.009 A 
ATOM     15  C   UNL     1      11.530   5.930   3.722  0.00  0.00    +0.116 A 
ATOM     17  C   UNL     1      11.690   3.607   2.301  0.00  0.00    +0.044 A 
ATOM     18  C   UNL     1      12.526   4.686   2.068  0.00  0.00    +0.121 A 
BRANCH  18   7
ATOM      4  O   UNL     1      15.286   4.031  -1.036  0.00  0.00    -0.377 OA
ATOM      7  N   UNL     1      13.482   4.550   1.055  0.00  0.00    -0.311 N 
ATOM     20  C   UNL     1      13.019   4.537  -0.339  0.00  0.00    +0.134 C 
ATOM     21  C   UNL     1      14.716   3.799   1.311  0.00  0.00    +0.134 C 
ATOM     22  C   UNL     1      14.173   4.895  -1.268  0.00  0.00    +0.178 C 
ATOM     23  C   UNL     1      15.780   4.195   0.293  0.00  0.00    +0.178 C 
ENDBRANCH  18   7
ENDBRANCH   8  13
BRANCH   9   5
ATOM      3  O   UNL     1       9.814   9.209   4.664  0.00  0.00    -0.270 OA
ATOM      5  N   UNL     1       8.532   7.291   4.915  0.00  0.00    -0.305 N 
ATOM     16  C   UNL     1       8.770   8.588   4.479  0.00  0.00    +0.245 C 
ATOM     30  H   UNL     1       7.653   6.844   4.674  0.00  0.00    +0.149 HD
BRANCH  16  19
ATOM     19  C   UNL     1       7.649   9.249   3.761  0.00  0.00    +0.040 A 
ATOM     24  C   UNL     1       7.579   9.239   2.368  0.00  0.00    -0.038 A 
ATOM     25  C   UNL     1       6.657   9.888   4.505  0.00  0.00    +0.013 A 
ATOM     26  C   UNL     1       6.516   9.866   1.718  0.00  0.00    +0.004 A 
ATOM     27  C   UNL     1       8.628   8.561   1.547  0.00  0.00    +0.044 C 
ATOM     28  C   UNL     1       5.595  10.517   3.855  0.00  0.00    +0.001 A 
ATOM     29  C   UNL     1       5.523  10.505   2.462  0.00  0.00    +0.000 A 
ENDBRANCH  16  19
ENDBRANCH   9   5
BRANCH  10   1
ATOM      1  O   UNL     1       9.410   7.507   7.884  0.00  0.00    -0.387 OA
ATOM     31  H   UNL     1       8.724   8.168   7.690  0.00  0.00    +0.210 HD
ENDBRANCH  10   1
BRANCH  12   2
ATOM      2  O   UNL     1      11.326   5.546   7.732  0.00  0.00    -0.389 OA
ATOM     32  H   UNL     1      11.407   5.949   8.614  0.00  0.00    +0.210 HD
ENDBRANCH  12   2
TORSDOF 6
ENDMDL
MODEL 5
REMARK VINA RESULT:      -6.7      1.363      2.184
REMARK  Name = 75536087
REMARK  7 active torsions:
REMARK  status: ('A' for Active; 'I' for Inactive)
REMARK    1  A    between atoms: O_1  and  C_10
REMARK    2  A    between atoms: O_2  and  C_12
REMARK    3  A    between atoms: N_5  and  C_9
REMARK    4  A    between atoms: N_7  and  C_18
REMARK    5  A    between atoms: C_8  and  C_13
REMARK    6  A    between atoms: C_16  and  C_19
REMARK    7  A    between atoms: C_24  and  C_27
REMARK                            x       y       z     vdW  Elec       q    Type
REMARK                         _______ _______ _______ _____ _____    ______ ____
ROOT
ATOM      8  C   UNL     1      14.188   8.616  20.111  0.00  0.00    +0.046 C 
ATOM      9  C   UNL     1      13.213   8.180  21.229  0.00  0.00    +0.112 C 
ATOM     10  C   UNL     1      11.852   8.187  20.535  0.00  0.00    +0.164 C 
ATOM     11  C   UNL     1      13.479   8.275  18.776  0.00  0.00    +0.044 C 
ATOM     12  C   UNL     1      12.162   7.606  19.161  0.00  0.00    +0.145 C 
ENDROOT
BRANCH   8  13
ATOM      6  N   UNL     1      17.081   6.183  19.787  0.00  0.00    -0.240 NA
ATOM     13  C   UNL     1      15.567   8.009  20.259  0.00  0.00    -0.024 A 
ATOM     14  C   UNL     1      16.568   8.665  20.968  0.00  0.00    +0.009 A 
ATOM     15  C   UNL     1      15.873   6.782  19.692  0.00  0.00    +0.116 A 
ATOM     17  C   UNL     1      17.824   8.081  21.087  0.00  0.00    +0.044 A 
ATOM     18  C   UNL     1      18.028   6.851  20.485  0.00  0.00    +0.121 A 
BRANCH  18   7
ATOM      4  O   UNL     1      21.910   5.242  20.634  0.00  0.00    -0.377 OA
ATOM      7  N   UNL     1      19.296   6.276  20.614  0.00  0.00    -0.311 N 
ATOM     20  C   UNL     1      20.447   7.170  20.806  0.00  0.00    +0.134 C 
ATOM     21  C   UNL     1      19.596   5.006  19.942  0.00  0.00    +0.134 C 
ATOM     22  C   UNL     1      21.605   6.392  21.422  0.00  0.00    +0.178 C 
ATOM     23  C   UNL     1      20.800   4.345  20.604  0.00  0.00    +0.178 C 
ENDBRANCH  18   7
ENDBRANCH   8  13
BRANCH   9   5
ATOM      3  O   UNL     1      13.203  11.050  21.135  0.00  0.00    -0.270 OA
ATOM      5  N   UNL     1      13.247   9.078  22.355  0.00  0.00    -0.305 N 
ATOM     16  C   UNL     1      13.239  10.459  22.211  0.00  0.00    +0.245 C 
ATOM     30  H   UNL     1      13.232   8.680  23.290  0.00  0.00    +0.149 HD
BRANCH  16  19
ATOM     19  C   UNL     1      13.304  11.245  23.470  0.00  0.00    +0.040 A 
ATOM     24  C   UNL     1      12.144  11.610  24.154  0.00  0.00    -0.038 A 
ATOM     25  C   UNL     1      14.553  11.619  23.966  0.00  0.00    +0.013 A 
ATOM     26  C   UNL     1      12.232  12.348  25.334  0.00  0.00    +0.004 A 
ATOM     27  C   UNL     1      10.793  11.222  23.645  0.00  0.00    +0.044 C 
ATOM     28  C   UNL     1      14.642  12.358  25.147  0.00  0.00    +0.001 A 
ATOM     29  C   UNL     1      13.481  12.722  25.831  0.00  0.00    +0.000 A 
ENDBRANCH  16  19
ENDBRANCH   9   5
BRANCH  10   1
ATOM      1  O   UNL     1      10.897   7.397  21.220  0.00  0.00    -0.387 OA
ATOM     31  H   UNL     1      11.381   6.694  21.685  0.00  0.00    +0.210 HD
ENDBRANCH  10   1
BRANCH  12   2
ATOM      2  O   UNL     1      12.369   6.199  19.236  0.00  0.00    -0.389 OA
ATOM     32  H   UNL     1      13.234   6.053  19.656  0.00  0.00    +0.210 HD
ENDBRANCH  12   2
TORSDOF 6
ENDMDL
MODEL 6
REMARK VINA RESULT:      -6.6     15.107     18.622
REMARK  Name = 75536087
REMARK  7 active torsions:
REMARK  status: ('A' for Active; 'I' for Inactive)
REMARK    1  A    between atoms: O_1  and  C_10
REMARK    2  A    between atoms: O_2  and  C_12
REMARK    3  A    between atoms: N_5  and  C_9
REMARK    4  A    between atoms: N_7  and  C_18
REMARK    5  A    between atoms: C_8  and  C_13
REMARK    6  A    between atoms: C_16  and  C_19
REMARK    7  A    between atoms: C_24  and  C_27
REMARK                            x       y       z     vdW  Elec       q    Type
REMARK                         _______ _______ _______ _____ _____    ______ ____
ROOT
ATOM      8  C   UNL     1      10.138   6.302   4.945  0.00  0.00    +0.046 C 
ATOM      9  C   UNL     1      11.379   6.212   5.861  0.00  0.00    +0.112 C 
ATOM     10  C   UNL     1      10.780   6.007   7.251  0.00  0.00    +0.164 C 
ATOM     11  C   UNL     1       8.998   5.578   5.705  0.00  0.00    +0.044 C 
ATOM     12  C   UNL     1       9.626   5.047   6.992  0.00  0.00    +0.145 C 
ENDROOT
BRANCH   8  13
ATOM      6  N   UNL     1      11.283   4.026   2.135  0.00  0.00    -0.240 NA
ATOM     13  C   UNL     1      10.392   5.773   3.549  0.00  0.00    -0.024 A 
ATOM     14  C   UNL     1      10.002   6.493   2.426  0.00  0.00    +0.009 A 
ATOM     15  C   UNL     1      11.024   4.555   3.351  0.00  0.00    +0.116 A 
ATOM     17  C   UNL     1      10.251   5.981   1.158  0.00  0.00    +0.044 A 
ATOM     18  C   UNL     1      10.888   4.755   1.067  0.00  0.00    +0.121 A 
BRANCH  18   7
ATOM      4  O   UNL     1      11.827   3.433  -2.813  0.00  0.00    -0.377 OA
ATOM      7  N   UNL     1      11.133   4.253  -0.216  0.00  0.00    -0.311 N 
ATOM     20  C   UNL     1      12.415   3.578  -0.464  0.00  0.00    +0.134 C 
ATOM     21  C   UNL     1      10.535   4.909  -1.385  0.00  0.00    +0.134 C 
ATOM     22  C   UNL     1      12.296   2.683  -1.693  0.00  0.00    +0.178 C 
ATOM     23  C   UNL     1      10.517   3.943  -2.564  0.00  0.00    +0.178 C 
ENDBRANCH  18   7
ENDBRANCH   8  13
BRANCH   9   5
ATOM      3  O   UNL     1      13.985   6.582   7.010  0.00  0.00    -0.270 OA
ATOM      5  N   UNL     1      12.188   7.403   5.794  0.00  0.00    -0.305 N 
ATOM     16  C   UNL     1      13.442   7.489   6.384  0.00  0.00    +0.245 C 
ATOM     30  H   UNL     1      11.840   8.192   5.257  0.00  0.00    +0.149 HD
BRANCH  16  19
ATOM     19  C   UNL     1      14.137   8.795   6.248  0.00  0.00    +0.040 A 
ATOM     24  C   UNL     1      15.275   8.928   5.451  0.00  0.00    -0.038 A 
ATOM     25  C   UNL     1      13.635   9.900   6.935  0.00  0.00    +0.013 A 
ATOM     26  C   UNL     1      15.909  10.164   5.339  0.00  0.00    +0.004 A 
ATOM     27  C   UNL     1      15.834   7.760   4.704  0.00  0.00    +0.044 C 
ATOM     28  C   UNL     1      14.269  11.138   6.824  0.00  0.00    +0.001 A 
ATOM     29  C   UNL     1      15.406  11.270   6.025  0.00  0.00    +0.000 A 
ENDBRANCH  16  19
ENDBRANCH   9   5
BRANCH  10   1
ATOM      1  O   UNL     1      11.713   5.451   8.160  0.00  0.00    -0.387 OA
ATOM     31  H   UNL     1      11.663   4.485   8.074  0.00  0.00    +0.210 HD
ENDBRANCH  10   1
BRANCH  12   2
ATOM      2  O   UNL     1      10.104   3.726   6.756  0.00  0.00    -0.389 OA
ATOM     32  H   UNL     1      10.848   3.792   6.133  0.00  0.00    +0.210 HD
ENDBRANCH  12   2
TORSDOF 6
ENDMDL
MODEL 7
REMARK VINA RESULT:      -6.5     28.111     30.673
REMARK  Name = 75536087
REMARK  7 active torsions:
REMARK  status: ('A' for Active; 'I' for Inactive)
REMARK    1  A    between atoms: O_1  and  C_10
REMARK    2  A    between atoms: O_2  and  C_12
REMARK    3  A    between atoms: N_5  and  C_9
REMARK    4  A    between atoms: N_7  and  C_18
REMARK    5  A    between atoms: C_8  and  C_13
REMARK    6  A    between atoms: C_16  and  C_19
REMARK    7  A    between atoms: C_24  and  C_27
REMARK                            x       y       z     vdW  Elec       q    Type
REMARK                         _______ _______ _______ _____ _____    ______ ____
ROOT
ATOM      8  C   UNL     1      -5.782 -10.207  17.254  0.00  0.00    +0.046 C 
ATOM      9  C   UNL     1      -5.330 -11.189  16.150  0.00  0.00    +0.112 C 
ATOM     10  C   UNL     1      -4.077 -11.834  16.740  0.00  0.00    +0.164 C 
ATOM     11  C   UNL     1      -5.175 -10.746  18.574  0.00  0.00    +0.044 C 
ATOM     12  C   UNL     1      -4.451 -12.039  18.203  0.00  0.00    +0.145 C 
ENDROOT
BRANCH   8  13
ATOM      6  N   UNL     1      -9.250  -8.945  16.374  0.00  0.00    -0.240 NA
ATOM     13  C   UNL     1      -7.283 -10.010  17.292  0.00  0.00    -0.024 A 
ATOM     14  C   UNL     1      -8.070 -10.669  18.231  0.00  0.00    +0.009 A 
ATOM     15  C   UNL     1      -7.917  -9.166  16.394  0.00  0.00    +0.116 A 
ATOM     17  C   UNL     1      -9.445 -10.468  18.241  0.00  0.00    +0.044 A 
ATOM     18  C   UNL     1      -9.981  -9.603  17.301  0.00  0.00    +0.121 A 
BRANCH  18   7
ATOM      4  O   UNL     1     -14.098  -8.760  17.459  0.00  0.00    -0.377 OA
ATOM      7  N   UNL     1     -11.367  -9.409  17.325  0.00  0.00    -0.311 N 
ATOM     20  C   UNL     1     -11.949  -8.446  16.380  0.00  0.00    +0.134 C 
ATOM     21  C   UNL     1     -12.108  -9.579  18.580  0.00  0.00    +0.134 C 
ATOM     22  C   UNL     1     -13.434  -8.738  16.196  0.00  0.00    +0.178 C 
ATOM     23  C   UNL     1     -13.584  -9.810  18.278  0.00  0.00    +0.178 C 
ENDBRANCH  18   7
ENDBRANCH   8  13
BRANCH   9   5
ATOM      3  O   UNL     1      -5.374 -12.347  13.522  0.00  0.00    -0.270 OA
ATOM      5  N   UNL     1      -5.052 -10.514  14.907  0.00  0.00    -0.305 N 
ATOM     16  C   UNL     1      -5.098 -11.160  13.679  0.00  0.00    +0.245 C 
ATOM     30  H   UNL     1      -4.857  -9.517  14.933  0.00  0.00    +0.149 HD
BRANCH  16  19
ATOM     19  C   UNL     1      -4.759 -10.330  12.494  0.00  0.00    +0.040 A 
ATOM     24  C   UNL     1      -3.498 -10.400  11.901  0.00  0.00    -0.038 A 
ATOM     25  C   UNL     1      -5.728  -9.472  11.974  0.00  0.00    +0.013 A 
ATOM     26  C   UNL     1      -3.205  -9.611  10.789  0.00  0.00    +0.004 A 
ATOM     27  C   UNL     1      -2.443 -11.312  12.437  0.00  0.00    +0.044 C 
ATOM     28  C   UNL     1      -5.435  -8.682  10.862  0.00  0.00    +0.001 A 
ATOM     29  C   UNL     1      -4.174  -8.752  10.269  0.00  0.00    +0.000 A 
ENDBRANCH  16  19
ENDBRANCH   9   5
BRANCH  10   1
ATOM      1  O   UNL     1      -3.763 -13.066  16.116  0.00  0.00    -0.387 OA
ATOM     31  H   UNL     1      -4.266 -13.760  16.574  0.00  0.00    +0.210 HD
ENDBRANCH  10   1
BRANCH  12   2
ATOM      2  O   UNL     1      -5.356 -13.128  18.351  0.00  0.00    -0.389 OA
ATOM     32  H   UNL     1      -5.098 -13.811  17.709  0.00  0.00    +0.210 HD
ENDBRANCH  12   2
TORSDOF 6
ENDMDL
MODEL 8
REMARK VINA RESULT:      -6.5      1.655      2.160
REMARK  Name = 75536087
REMARK  7 active torsions:
REMARK  status: ('A' for Active; 'I' for Inactive)
REMARK    1  A    between atoms: O_1  and  C_10
REMARK    2  A    between atoms: O_2  and  C_12
REMARK    3  A    between atoms: N_5  and  C_9
REMARK    4  A    between atoms: N_7  and  C_18
REMARK    5  A    between atoms: C_8  and  C_13
REMARK    6  A    between atoms: C_16  and  C_19
REMARK    7  A    between atoms: C_24  and  C_27
REMARK                            x       y       z     vdW  Elec       q    Type
REMARK                         _______ _______ _______ _____ _____    ______ ____
ROOT
ATOM      8  C   UNL     1      13.566   9.277  19.560  0.00  0.00    +0.046 C 
ATOM      9  C   UNL     1      12.372   9.114  20.527  0.00  0.00    +0.112 C 
ATOM     10  C   UNL     1      11.252   8.600  19.624  0.00  0.00    +0.164 C 
ATOM     11  C   UNL     1      13.276   8.332  18.367  0.00  0.00    +0.044 C 
ATOM     12  C   UNL     1      11.970   7.617  18.708  0.00  0.00    +0.145 C 
ENDROOT
BRANCH   8  13
ATOM      6  N   UNL     1      16.423   7.526  21.339  0.00  0.00    -0.240 NA
ATOM     13  C   UNL     1      14.905   9.046  20.229  0.00  0.00    -0.024 A 
ATOM     14  C   UNL     1      15.829  10.076  20.360  0.00  0.00    +0.009 A 
ATOM     15  C   UNL     1      15.248   7.800  20.730  0.00  0.00    +0.116 A 
ATOM     17  C   UNL     1      17.050   9.833  20.980  0.00  0.00    +0.044 A 
ATOM     18  C   UNL     1      17.296   8.553  21.448  0.00  0.00    +0.121 A 
BRANCH  18   7
ATOM      4  O   UNL     1      21.122   7.948  23.086  0.00  0.00    -0.377 OA
ATOM      7  N   UNL     1      18.528   8.324  22.071  0.00  0.00    -0.311 N 
ATOM     20  C   UNL     1      19.392   9.480  22.347  0.00  0.00    +0.134 C 
ATOM     21  C   UNL     1      19.232   7.055  21.854  0.00  0.00    +0.134 C 
ATOM     22  C   UNL     1      20.394   9.124  23.440  0.00  0.00    +0.178 C 
ATOM     23  C   UNL     1      20.242   6.829  22.972  0.00  0.00    +0.178 C 
ENDBRANCH  18   7
ENDBRANCH   8  13
BRANCH   9   5
ATOM      3  O   UNL     1      13.409  10.121  23.009  0.00  0.00    -0.270 OA
ATOM      5  N   UNL     1      12.020  10.357  21.166  0.00  0.00    -0.305 N 
ATOM     16  C   UNL     1      12.577  10.762  22.372  0.00  0.00    +0.245 C 
ATOM     30  H   UNL     1      11.371  10.977  20.690  0.00  0.00    +0.149 HD
BRANCH  16  19
ATOM     19  C   UNL     1      12.089  12.057  22.912  0.00  0.00    +0.040 A 
ATOM     24  C   UNL     1      12.746  13.253  22.623  0.00  0.00    -0.038 A 
ATOM     25  C   UNL     1      10.954  12.063  23.722  0.00  0.00    +0.013 A 
ATOM     26  C   UNL     1      12.268  14.456  23.141  0.00  0.00    +0.004 A 
ATOM     27  C   UNL     1      13.964  13.274  21.757  0.00  0.00    +0.044 C 
ATOM     28  C   UNL     1      10.475  13.266  24.242  0.00  0.00    +0.001 A 
ATOM     29  C   UNL     1      11.132  14.463  23.952  0.00  0.00    +0.000 A 
ENDBRANCH  16  19
ENDBRANCH   9   5
BRANCH  10   1
ATOM      1  O   UNL     1      10.225   7.958  20.357  0.00  0.00    -0.387 OA
ATOM     31  H   UNL     1       9.539   7.689  19.723  0.00  0.00    +0.210 HD
ENDBRANCH  10   1
BRANCH  12   2
ATOM      2  O   UNL     1      12.277   6.409  19.396  0.00  0.00    -0.389 OA
ATOM     32  H   UNL     1      13.142   6.101  19.074  0.00  0.00    +0.210 HD
ENDBRANCH  12   2
TORSDOF 6
ENDMDL
MODEL 9
REMARK VINA RESULT:      -6.3     16.946     20.898
REMARK  Name = 75536087
REMARK  7 active torsions:
REMARK  status: ('A' for Active; 'I' for Inactive)
REMARK    1  A    between atoms: O_1  and  C_10
REMARK    2  A    between atoms: O_2  and  C_12
REMARK    3  A    between atoms: N_5  and  C_9
REMARK    4  A    between atoms: N_7  and  C_18
REMARK    5  A    between atoms: C_8  and  C_13
REMARK    6  A    between atoms: C_16  and  C_19
REMARK    7  A    between atoms: C_24  and  C_27
REMARK                            x       y       z     vdW  Elec       q    Type
REMARK                         _______ _______ _______ _____ _____    ______ ____
ROOT
ATOM      8  C   UNL     1      13.084   5.892   1.408  0.00  0.00    +0.046 C 
ATOM      9  C   UNL     1      12.407   4.871   0.466  0.00  0.00    +0.112 C 
ATOM     10  C   UNL     1      13.586   4.200  -0.236  0.00  0.00    +0.164 C 
ATOM     11  C   UNL     1      14.523   5.365   1.638  0.00  0.00    +0.044 C 
ATOM     12  C   UNL     1      14.610   4.042   0.881  0.00  0.00    +0.145 C 
ENDROOT
BRANCH   8  13
ATOM      6  N   UNL     1      11.752   7.610   4.517  0.00  0.00    -0.240 NA
ATOM     13  C   UNL     1      12.298   6.137   2.679  0.00  0.00    -0.024 A 
ATOM     14  C   UNL     1      11.431   5.174   3.183  0.00  0.00    +0.009 A 
ATOM     15  C   UNL     1      12.422   7.328   3.378  0.00  0.00    +0.116 A 
ATOM     17  C   UNL     1      10.724   5.428   4.353  0.00  0.00    +0.044 A 
ATOM     18  C   UNL     1      10.918   6.649   4.976  0.00  0.00    +0.121 A 
BRANCH  18   7
ATOM      4  O   UNL     1       8.535   7.281   8.383  0.00  0.00    -0.377 OA
ATOM      7  N   UNL     1      10.201   6.890   6.153  0.00  0.00    -0.311 N 
ATOM     20  C   UNL     1       9.635   5.738   6.869  0.00  0.00    +0.134 C 
ATOM     21  C   UNL     1       9.467   8.150   6.318  0.00  0.00    +0.134 C 
ATOM     22  C   UNL     1       9.360   6.118   8.320  0.00  0.00    +0.178 C 
ATOM     23  C   UNL     1       9.200   8.400   7.798  0.00  0.00    +0.178 C 
ENDBRANCH  18   7
ENDBRANCH   8  13
BRANCH   9   5
ATOM      3  O   UNL     1       9.564   4.509   0.290  0.00  0.00    -0.270 OA
ATOM      5  N   UNL     1      11.515   5.508  -0.470  0.00  0.00    -0.305 N 
ATOM     16  C   UNL     1      10.147   5.269  -0.479  0.00  0.00    +0.245 C 
ATOM     30  H   UNL     1      11.901   6.189  -1.117  0.00  0.00    +0.149 HD
BRANCH  16  19
ATOM     19  C   UNL     1       9.369   5.983  -1.524  0.00  0.00    +0.040 A 
ATOM     24  C   UNL     1       9.008   7.321  -1.366  0.00  0.00    -0.038 A 
ATOM     25  C   UNL     1       8.999   5.293  -2.678  0.00  0.00    +0.013 A 
ATOM     26  C   UNL     1       8.278   7.970  -2.361  0.00  0.00    +0.004 A 
ATOM     27  C   UNL     1       9.392   8.085  -0.140  0.00  0.00    +0.044 C 
ATOM     28  C   UNL     1       8.268   5.940  -3.674  0.00  0.00    +0.001 A 
ATOM     29  C   UNL     1       7.907   7.279  -3.516  0.00  0.00    +0.000 A 
ENDBRANCH  16  19
ENDBRANCH   9   5
BRANCH  10   1
ATOM      1  O   UNL     1      13.237   2.945  -0.791  0.00  0.00    -0.387 OA
ATOM     31  H   UNL     1      12.839   2.414  -0.081  0.00  0.00    +0.210 HD
ENDBRANCH  10   1
BRANCH  12   2
ATOM      2  O   UNL     1      14.243   2.985   1.763  0.00  0.00    -0.389 OA
ATOM     32  H   UNL     1      14.147   2.179   1.228  0.00  0.00    +0.210 HD
ENDBRANCH  12   2
TORSDOF 6
ENDMDL
MODEL 10
REMARK VINA RESULT:      -6.2      3.292      8.982
REMARK  Name = 75536087
REMARK  7 active torsions:
REMARK  status: ('A' for Active; 'I' for Inactive)
REMARK    1  A    between atoms: O_1  and  C_10
REMARK    2  A    between atoms: O_2  and  C_12
REMARK    3  A    between atoms: N_5  and  C_9
REMARK    4  A    between atoms: N_7  and  C_18
REMARK    5  A    between atoms: C_8  and  C_13
REMARK    6  A    between atoms: C_16  and  C_19
REMARK    7  A    between atoms: C_24  and  C_27
REMARK                            x       y       z     vdW  Elec       q    Type
REMARK                         _______ _______ _______ _____ _____    ______ ____
ROOT
ATOM      8  C   UNL     1      19.558   9.664  21.539  0.00  0.00    +0.046 C 
ATOM      9  C   UNL     1      20.107   8.942  22.790  0.00  0.00    +0.112 C 
ATOM     10  C   UNL     1      20.919  10.026  23.498  0.00  0.00    +0.164 C 
ATOM     11  C   UNL     1      19.566  11.174  21.886  0.00  0.00    +0.044 C 
ATOM     12  C   UNL     1      20.055  11.270  23.329  0.00  0.00    +0.145 C 
ENDROOT
BRANCH   8  13
ATOM      6  N   UNL     1      15.912   9.578  20.494  0.00  0.00    -0.240 NA
ATOM     13  C   UNL     1      18.212   9.132  21.092  0.00  0.00    -0.024 A 
ATOM     14  C   UNL     1      18.014   7.774  20.873  0.00  0.00    +0.009 A 
ATOM     15  C   UNL     1      17.139   9.985  20.890  0.00  0.00    +0.116 A 
ATOM     17  C   UNL     1      16.767   7.316  20.464  0.00  0.00    +0.044 A 
ATOM     18  C   UNL     1      15.758   8.249  20.291  0.00  0.00    +0.121 A 
BRANCH  18   7
ATOM      4  O   UNL     1      12.104   6.564  19.070  0.00  0.00    -0.377 OA
ATOM      7  N   UNL     1      14.508   7.774  19.881  0.00  0.00    -0.311 N 
ATOM     20  C   UNL     1      13.730   6.961  20.826  0.00  0.00    +0.134 C 
ATOM     21  C   UNL     1      14.263   7.489  18.462  0.00  0.00    +0.134 C 
ATOM     22  C   UNL     1      12.258   6.976  20.428  0.00  0.00    +0.178 C 
ATOM     23  C   UNL     1      12.763   7.475  18.191  0.00  0.00    +0.178 C 
ENDBRANCH  18   7
ENDBRANCH   8  13
BRANCH   9   5
ATOM      3  O   UNL     1      19.876   6.284  23.855  0.00  0.00    -0.270 OA
ATOM      5  N   UNL     1      20.919   7.802  22.444  0.00  0.00    -0.305 N 
ATOM     16  C   UNL     1      20.732   6.550  23.014  0.00  0.00    +0.245 C 
ATOM     30  H   UNL     1      21.626   7.915  21.723  0.00  0.00    +0.149 HD
BRANCH  16  19
ATOM     19  C   UNL     1      21.669   5.486  22.571  0.00  0.00    +0.040 A 
ATOM     24  C   UNL     1      21.435   4.760  21.402  0.00  0.00    -0.038 A 
ATOM     25  C   UNL     1      22.798   5.218  23.344  0.00  0.00    +0.013 A 
ATOM     26  C   UNL     1      22.330   3.766  21.007  0.00  0.00    +0.004 A 
ATOM     27  C   UNL     1      20.233   5.028  20.555  0.00  0.00    +0.044 C 
ATOM     28  C   UNL     1      23.694   4.223  22.949  0.00  0.00    +0.001 A 
ATOM     29  C   UNL     1      23.460   3.498  21.780  0.00  0.00    +0.000 A 
ENDBRANCH  16  19
ENDBRANCH   9   5
BRANCH  10   1
ATOM      1  O   UNL     1      21.128   9.731  24.867  0.00  0.00    -0.387 OA
ATOM     31  H   UNL     1      20.257   9.707  25.296  0.00  0.00    +0.210 HD
ENDBRANCH  10   1
BRANCH  12   2
ATOM      2  O   UNL     1      18.928  11.230  24.198  0.00  0.00    -0.389 OA
ATOM     32  H   UNL     1      18.480  10.378  24.056  0.00  0.00    +0.210 HD
ENDBRANCH  12   2
TORSDOF 6
ENDMDL
