REMARK  Name = 11882078
REMARK  14 active torsions:
REMARK  status: ('A' for Active; 'I' for Inactive)
REMARK    1  A    between atoms: S_1  and  C_35
REMARK    2  A    between atoms: S_1  and  C_38
REMARK    3  A    between atoms: N_7  and  C_12
REMARK    4  A    between atoms: N_8  and  C_22
REMARK    5  A    between atoms: N_9  and  C_27
REMARK    6  A    between atoms: C_11  and  C_16
REMARK    7  A    between atoms: C_15  and  C_17
REMARK    8  A    between atoms: C_17  and  C_18
REMARK    9  A    between atoms: C_18  and  C_19
REMARK   10  A    between atoms: C_18  and  C_20
REMARK   11  A    between atoms: C_18  and  C_21
REMARK   12  A    between atoms: C_22  and  C_24
REMARK   13  A    between atoms: C_22  and  C_25
REMARK   14  A    between atoms: C_24  and  C_26
REMARK                            x       y       z     vdW  Elec       q    Type
REMARK                         _______ _______ _______ _____ _____    ______ ____
ROOT
ATOM      2  O   UNL     1       3.291  -1.712  -1.542  0.00  0.00    -0.276 OA
ATOM      6  N   UNL     1       2.355  -1.674   0.574  0.00  0.00    -0.288 N 
ATOM     11  C   UNL     1       1.301  -0.711   0.272  0.00  0.00    +0.182 C 
ATOM     12  C   UNL     1       0.328  -0.805   1.448  0.00  0.00    +0.105 C 
ATOM     13  C   UNL     1       1.216  -1.262   2.609  0.00  0.00    +0.043 C 
ATOM     14  C   UNL     1       2.247  -2.166   1.945  0.00  0.00    +0.110 C 
ATOM     15  C   UNL     1       3.226  -2.151  -0.393  0.00  0.00    +0.217 C 
ENDROOT
BRANCH  12   7
ATOM      4  O   UNL     1      -2.252  -0.255   0.333  0.00  0.00    -0.252 OA
ATOM      7  N   UNL     1      -0.717  -1.764   1.178  0.00  0.00    -0.294 N 
ATOM      9  N   UNL     1      -2.762  -2.542   0.482  0.00  0.00    -0.269 N 
ATOM     23  C   UNL     1      -1.955  -1.410   0.630  0.00  0.00    +0.304 C 
ATOM     39  H   UNL     1      -0.524  -2.748   1.334  0.00  0.00    +0.151 HD
ATOM     41  H   UNL     1      -2.363  -3.428   0.780  0.00  0.00    +0.156 HD
BRANCH   9  27
ATOM     27  C   UNL     1      -4.077  -2.609  -0.033  0.00  0.00    +0.036 A 
ATOM     30  C   UNL     1      -4.717  -1.448  -0.468  0.00  0.00    +0.038 A 
ATOM     31  C   UNL     1      -4.736  -3.837  -0.104  0.00  0.00    +0.023 A 
ATOM     35  C   UNL     1      -6.015  -1.515  -0.975  0.00  0.00    +0.009 A 
ATOM     36  C   UNL     1      -6.033  -3.904  -0.611  0.00  0.00    +0.003 A 
ATOM     37  C   UNL     1      -6.673  -2.743  -1.047  0.00  0.00    +0.015 A 
BRANCH  35   1
ATOM      1  S   UNL     1      -6.833  -0.033  -1.532  0.00  0.00    -0.129 S 
ATOM     38  C   UNL     1      -6.847   0.971  -0.019  0.00  0.00    +0.090 C 
ENDBRANCH  35   1
ENDBRANCH   9  27
ENDBRANCH  12   7
BRANCH  11  16
ATOM      3  O   UNL     1       2.945   0.907   0.889  0.00  0.00    -0.274 OA
ATOM      8  N   UNL     1       1.311   1.496  -0.661  0.00  0.00    -0.302 N 
ATOM     16  C   UNL     1       1.958   0.636   0.210  0.00  0.00    +0.236 C 
ATOM     40  H   UNL     1       0.532   1.145  -1.211  0.00  0.00    +0.150 HD
BRANCH   8  22
ATOM     22  C   UNL     1       1.732   2.860  -0.884  0.00  0.00    +0.163 C 
BRANCH  22  25
ATOM      5  O   UNL     1       2.772   2.045  -2.924  0.00  0.00    -0.274 OA
ATOM     10  N   UNL     1       3.748   3.809  -1.822  0.00  0.00    -0.328 N 
ATOM     25  C   UNL     1       2.791   2.828  -1.978  0.00  0.00    +0.231 C 
ATOM     42  H   UNL     1       4.505   3.908  -2.491  0.00  0.00    +0.145 HD
ATOM     43  H   UNL     1       3.736   4.465  -1.048  0.00  0.00    +0.145 HD
ENDBRANCH  22  25
BRANCH  22  24
ATOM     24  C   UNL     1       0.567   3.767  -1.295  0.00  0.00    +0.067 C 
BRANCH  24  26
ATOM     26  C   UNL     1      -0.276   4.202  -0.121  0.00  0.00    -0.045 A 
ATOM     28  C   UNL     1      -1.369   3.432   0.276  0.00  0.00    +0.004 A 
ATOM     29  C   UNL     1       0.038   5.374   0.567  0.00  0.00    +0.004 A 
ATOM     32  C   UNL     1      -2.148   3.834   1.361  0.00  0.00    +0.000 A 
ATOM     33  C   UNL     1      -0.740   5.776   1.652  0.00  0.00    +0.000 A 
ATOM     34  C   UNL     1      -1.834   5.006   2.049  0.00  0.00    +0.000 A 
ENDBRANCH  24  26
ENDBRANCH  22  24
ENDBRANCH   8  22
ENDBRANCH  11  16
BRANCH  15  17
ATOM     17  C   UNL     1       4.135  -3.272   0.046  0.00  0.00    +0.102 C 
BRANCH  17  18
ATOM     18  C   UNL     1       5.625  -2.895  -0.022  0.00  0.00    -0.029 C 
ATOM     19  C   UNL     1       5.846  -1.673   0.890  0.00  0.00    +0.011 C 
ATOM     20  C   UNL     1       6.037  -2.517  -1.456  0.00  0.00    +0.011 C 
ATOM     21  C   UNL     1       6.513  -4.047   0.478  0.00  0.00    +0.011 C 
ENDBRANCH  17  18
ENDBRANCH  15  17
TORSDOF 10
