MODEL 1
REMARK VINA RESULT:      -7.5      0.000      0.000
REMARK  Name = 51137298
REMARK  4 active torsions:
REMARK  status: ('A' for Active; 'I' for Inactive)
REMARK    1  A    between atoms: N_3  and  C_11
REMARK    2  A    between atoms: C_7  and  C_12
REMARK    3  A    between atoms: C_11  and  C_13
REMARK    4  A    between atoms: C_16  and  C_19
REMARK                            x       y       z     vdW  Elec       q    Type
REMARK                         _______ _______ _______ _____ _____    ______ ____
ROOT
ATOM      3  N   UNL     1      10.926   9.893  22.266  0.00  0.00    -0.297 NA
ATOM      7  C   UNL     1      11.442   8.797  20.258  0.00  0.00    +0.092 C 
ATOM      8  C   UNL     1      10.657   7.845  21.177  0.00  0.00    +0.029 C 
ATOM      9  C   UNL     1      11.909   9.931  21.182  0.00  0.00    +0.097 C 
ATOM     10  C   UNL     1      10.745   8.472  22.562  0.00  0.00    +0.085 C 
ENDROOT
BRANCH   7  12
ATOM      2  O   UNL     1      13.724   7.910  20.190  0.00  0.00    -0.420 OA
ATOM      4  N   UNL     1      12.636   7.778  18.241  0.00  0.00    -0.112 NA
ATOM      5  N   UNL     1      13.900   7.248  18.062  0.00  0.00    -0.107 NA
ATOM     12  C   UNL     1      12.578   8.153  19.498  0.00  0.00    +0.222 A 
ATOM     16  C   UNL     1      14.499   7.346  19.225  0.00  0.00    +0.248 A 
BRANCH  16  19
ATOM      6  N   UNL     1      18.392   6.196  20.414  0.00  0.00    -0.263 NA
ATOM     19  C   UNL     1      15.820   6.957  19.628  0.00  0.00    +0.041 A 
ATOM     21  C   UNL     1      16.357   7.438  20.817  0.00  0.00    +0.033 A 
ATOM     22  C   UNL     1      16.567   6.095  18.832  0.00  0.00    +0.033 A 
ATOM     23  C   UNL     1      17.636   7.032  21.161  0.00  0.00    +0.111 A 
ATOM     24  C   UNL     1      17.836   5.749  19.266  0.00  0.00    +0.111 A 
ENDBRANCH  16  19
ENDBRANCH   7  12
BRANCH   3  11
ATOM     11  C   UNL     1      11.355  10.651  23.433  0.00  0.00    +0.122 C 
BRANCH  11  13
ATOM      1  F   UNL     1      10.602  12.107  25.743  0.00  0.00    -0.205 F 
ATOM     13  C   UNL     1      10.871  12.076  23.385  0.00  0.00    +0.002 A 
ATOM     14  C   UNL     1      10.516  12.734  24.563  0.00  0.00    +0.128 A 
ATOM     15  C   UNL     1      10.778  12.738  22.161  0.00  0.00    +0.008 A 
ATOM     17  C   UNL     1      10.067  14.055  24.515  0.00  0.00    +0.038 A 
ATOM     18  C   UNL     1      10.329  14.057  22.114  0.00  0.00    +0.000 A 
ATOM     20  C   UNL     1       9.974  14.716  23.291  0.00  0.00    +0.003 A 
ENDBRANCH  11  13
ENDBRANCH   3  11
TORSDOF 4
ENDMDL
MODEL 2
REMARK VINA RESULT:      -7.4      2.943      8.310
REMARK  Name = 51137298
REMARK  4 active torsions:
REMARK  status: ('A' for Active; 'I' for Inactive)
REMARK    1  A    between atoms: N_3  and  C_11
REMARK    2  A    between atoms: C_7  and  C_12
REMARK    3  A    between atoms: C_11  and  C_13
REMARK    4  A    between atoms: C_16  and  C_19
REMARK                            x       y       z     vdW  Elec       q    Type
REMARK                         _______ _______ _______ _____ _____    ______ ____
ROOT
ATOM      3  N   UNL     1      14.820   7.156  20.184  0.00  0.00    -0.297 NA
ATOM      7  C   UNL     1      12.812   7.179  21.395  0.00  0.00    +0.092 C 
ATOM      8  C   UNL     1      12.537   6.721  19.953  0.00  0.00    +0.029 C 
ATOM      9  C   UNL     1      14.210   7.811  21.343  0.00  0.00    +0.097 C 
ATOM     10  C   UNL     1      13.771   7.140  19.164  0.00  0.00    +0.085 C 
ENDROOT
BRANCH   7  12
ATOM      2  O   UNL     1      12.112   9.416  22.105  0.00  0.00    -0.420 OA
ATOM      4  N   UNL     1      10.551   7.840  22.389  0.00  0.00    -0.112 NA
ATOM      5  N   UNL     1      10.030   9.042  22.827  0.00  0.00    -0.107 NA
ATOM     12  C   UNL     1      11.769   8.105  21.977  0.00  0.00    +0.222 A 
ATOM     16  C   UNL     1      10.975   9.934  22.642  0.00  0.00    +0.248 A 
BRANCH  16  19
ATOM      6  N   UNL     1      11.030  14.086  23.443  0.00  0.00    -0.263 NA
ATOM     19  C   UNL     1      10.993  11.342  22.914  0.00  0.00    +0.041 A 
ATOM     21  C   UNL     1      10.744  11.808  24.200  0.00  0.00    +0.033 A 
ATOM     22  C   UNL     1      11.261  12.247  21.892  0.00  0.00    +0.033 A 
ATOM     23  C   UNL     1      10.773  13.177  24.410  0.00  0.00    +0.111 A 
ATOM     24  C   UNL     1      11.267  13.596  22.206  0.00  0.00    +0.111 A 
ENDBRANCH  16  19
ENDBRANCH   7  12
BRANCH   3  11
ATOM     11  C   UNL     1      16.024   7.837  19.730  0.00  0.00    +0.122 C 
BRANCH  11  13
ATOM      1  F   UNL     1      16.954   5.578  18.296  0.00  0.00    -0.205 F 
ATOM     13  C   UNL     1      17.271   7.081  20.106  0.00  0.00    +0.002 A 
ATOM     14  C   UNL     1      17.672   5.976  19.354  0.00  0.00    +0.128 A 
ATOM     15  C   UNL     1      18.026   7.488  21.206  0.00  0.00    +0.008 A 
ATOM     17  C   UNL     1      18.828   5.278  19.704  0.00  0.00    +0.038 A 
ATOM     18  C   UNL     1      19.181   6.789  21.556  0.00  0.00    +0.000 A 
ATOM     20  C   UNL     1      19.583   5.684  20.804  0.00  0.00    +0.003 A 
ENDBRANCH  11  13
ENDBRANCH   3  11
TORSDOF 4
ENDMDL
MODEL 3
REMARK VINA RESULT:      -7.0     26.179     28.462
REMARK  Name = 51137298
REMARK  4 active torsions:
REMARK  status: ('A' for Active; 'I' for Inactive)
REMARK    1  A    between atoms: N_3  and  C_11
REMARK    2  A    between atoms: C_7  and  C_12
REMARK    3  A    between atoms: C_11  and  C_13
REMARK    4  A    between atoms: C_16  and  C_19
REMARK                            x       y       z     vdW  Elec       q    Type
REMARK                         _______ _______ _______ _____ _____    ______ ____
ROOT
ATOM      3  N   UNL     1      -2.172 -10.989  13.805  0.00  0.00    -0.297 NA
ATOM      7  C   UNL     1      -3.127 -10.285  15.827  0.00  0.00    +0.092 C 
ATOM      8  C   UNL     1      -1.738 -10.888  16.097  0.00  0.00    +0.029 C 
ATOM      9  C   UNL     1      -3.484 -10.751  14.408  0.00  0.00    +0.097 C 
ATOM     10  C   UNL     1      -1.400 -11.678  14.840  0.00  0.00    +0.085 C 
ENDROOT
BRANCH   7  12
ATOM      2  O   UNL     1      -5.414 -10.084  16.680  0.00  0.00    -0.420 OA
ATOM      4  N   UNL     1      -4.102 -11.427  17.896  0.00  0.00    -0.112 NA
ATOM      5  N   UNL     1      -5.352 -11.403  18.484  0.00  0.00    -0.107 NA
ATOM     12  C   UNL     1      -4.183 -10.642  16.847  0.00  0.00    +0.222 A 
ATOM     16  C   UNL     1      -6.085 -10.608  17.741  0.00  0.00    +0.248 A 
BRANCH  16  19
ATOM      6  N   UNL     1     -10.134  -9.449  18.127  0.00  0.00    -0.263 NA
ATOM     19  C   UNL     1      -7.458 -10.214  17.872  0.00  0.00    +0.041 A 
ATOM     21  C   UNL     1      -7.962  -9.174  17.101  0.00  0.00    +0.033 A 
ATOM     22  C   UNL     1      -8.291 -10.873  18.771  0.00  0.00    +0.033 A 
ATOM     23  C   UNL     1      -9.295  -8.832  17.264  0.00  0.00    +0.111 A 
ATOM     24  C   UNL     1      -9.608 -10.455  18.860  0.00  0.00    +0.111 A 
ENDBRANCH  16  19
ENDBRANCH   7  12
BRANCH   3  11
ATOM     11  C   UNL     1      -2.259 -11.761  12.573  0.00  0.00    +0.122 C 
BRANCH  11  13
ATOM      1  F   UNL     1      -1.191  -9.371  11.489  0.00  0.00    -0.205 F 
ATOM     13  C   UNL     1      -2.932 -10.986  11.472  0.00  0.00    +0.002 A 
ATOM     14  C   UNL     1      -2.350  -9.815  10.984  0.00  0.00    +0.128 A 
ATOM     15  C   UNL     1      -4.139 -11.439  10.939  0.00  0.00    +0.008 A 
ATOM     17  C   UNL     1      -2.977  -9.098   9.964  0.00  0.00    +0.038 A 
ATOM     18  C   UNL     1      -4.764 -10.723   9.920  0.00  0.00    +0.000 A 
ATOM     20  C   UNL     1      -4.183  -9.552   9.431  0.00  0.00    +0.003 A 
ENDBRANCH  11  13
ENDBRANCH   3  11
TORSDOF 4
ENDMDL
MODEL 4
REMARK VINA RESULT:      -6.9      5.346     11.049
REMARK  Name = 51137298
REMARK  4 active torsions:
REMARK  status: ('A' for Active; 'I' for Inactive)
REMARK    1  A    between atoms: N_3  and  C_11
REMARK    2  A    between atoms: C_7  and  C_12
REMARK    3  A    between atoms: C_11  and  C_13
REMARK    4  A    between atoms: C_16  and  C_19
REMARK                            x       y       z     vdW  Elec       q    Type
REMARK                         _______ _______ _______ _____ _____    ______ ____
ROOT
ATOM      3  N   UNL     1      21.290   5.420  21.692  0.00  0.00    -0.297 NA
ATOM      7  C   UNL     1      19.616   6.465  20.424  0.00  0.00    +0.092 C 
ATOM      8  C   UNL     1      19.729   7.155  21.793  0.00  0.00    +0.029 C 
ATOM      9  C   UNL     1      20.362   5.133  20.597  0.00  0.00    +0.097 C 
ATOM     10  C   UNL     1      20.501   6.174  22.667  0.00  0.00    +0.085 C 
ENDROOT
BRANCH   7  12
ATOM      2  O   UNL     1      17.216   6.909  20.615  0.00  0.00    -0.420 OA
ATOM      4  N   UNL     1      17.767   5.609  18.880  0.00  0.00    -0.112 NA
ATOM      5  N   UNL     1      16.395   5.777  18.870  0.00  0.00    -0.107 NA
ATOM     12  C   UNL     1      18.204   6.286  19.917  0.00  0.00    +0.222 A 
ATOM     16  C   UNL     1      16.118   6.543  19.900  0.00  0.00    +0.248 A 
BRANCH  16  19
ATOM      6  N   UNL     1      12.412   8.015  21.309  0.00  0.00    -0.263 NA
ATOM     19  C   UNL     1      14.861   7.043  20.377  0.00  0.00    +0.041 A 
ATOM     21  C   UNL     1      13.705   6.851  19.629  0.00  0.00    +0.033 A 
ATOM     22  C   UNL     1      14.795   7.719  21.590  0.00  0.00    +0.033 A 
ATOM     23  C   UNL     1      12.517   7.353  20.134  0.00  0.00    +0.111 A 
ATOM     24  C   UNL     1      13.557   8.182  22.008  0.00  0.00    +0.111 A 
ENDBRANCH  16  19
ENDBRANCH   7  12
BRANCH   3  11
ATOM     11  C   UNL     1      21.866   4.211  22.263  0.00  0.00    +0.122 C 
BRANCH  11  13
ATOM      1  F   UNL     1      23.142   1.729  22.746  0.00  0.00    -0.205 F 
ATOM     13  C   UNL     1      23.058   3.733  21.476  0.00  0.00    +0.002 A 
ATOM     14  C   UNL     1      23.638   2.498  21.767  0.00  0.00    +0.128 A 
ATOM     15  C   UNL     1      23.581   4.526  20.455  0.00  0.00    +0.008 A 
ATOM     17  C   UNL     1      24.742   2.057  21.036  0.00  0.00    +0.038 A 
ATOM     18  C   UNL     1      24.684   4.086  19.725  0.00  0.00    +0.000 A 
ATOM     20  C   UNL     1      25.265   2.850  20.015  0.00  0.00    +0.003 A 
ENDBRANCH  11  13
ENDBRANCH   3  11
TORSDOF 4
ENDMDL
MODEL 5
REMARK VINA RESULT:      -6.9      4.952      9.223
REMARK  Name = 51137298
REMARK  4 active torsions:
REMARK  status: ('A' for Active; 'I' for Inactive)
REMARK    1  A    between atoms: N_3  and  C_11
REMARK    2  A    between atoms: C_7  and  C_12
REMARK    3  A    between atoms: C_11  and  C_13
REMARK    4  A    between atoms: C_16  and  C_19
REMARK                            x       y       z     vdW  Elec       q    Type
REMARK                         _______ _______ _______ _____ _____    ______ ____
ROOT
ATOM      3  N   UNL     1      18.401   6.321  20.637  0.00  0.00    -0.297 NA
ATOM      7  C   UNL     1      16.116   6.798  20.409  0.00  0.00    +0.092 C 
ATOM      8  C   UNL     1      16.562   5.863  19.272  0.00  0.00    +0.029 C 
ATOM      9  C   UNL     1      17.424   7.351  20.993  0.00  0.00    +0.097 C 
ATOM     10  C   UNL     1      18.082   5.960  19.255  0.00  0.00    +0.085 C 
ENDROOT
BRANCH   7  12
ATOM      2  O   UNL     1      14.426   7.667  18.864  0.00  0.00    -0.420 OA
ATOM      4  N   UNL     1      14.889   9.035  20.573  0.00  0.00    -0.112 NA
ATOM      5  N   UNL     1      13.930   9.643  19.786  0.00  0.00    -0.107 NA
ATOM     12  C   UNL     1      15.150   7.884  19.997  0.00  0.00    +0.222 A 
ATOM     16  C   UNL     1      13.689   8.810  18.801  0.00  0.00    +0.248 A 
BRANCH  16  19
ATOM      6  N   UNL     1      11.030   9.123  15.527  0.00  0.00    -0.263 NA
ATOM     19  C   UNL     1      12.787   8.915  17.691  0.00  0.00    +0.041 A 
ATOM     21  C   UNL     1      11.469   8.495  17.821  0.00  0.00    +0.033 A 
ATOM     22  C   UNL     1      13.228   9.440  16.481  0.00  0.00    +0.033 A 
ATOM     23  C   UNL     1      10.638   8.618  16.719  0.00  0.00    +0.111 A 
ATOM     24  C   UNL     1      12.319   9.522  15.439  0.00  0.00    +0.111 A 
ENDBRANCH  16  19
ENDBRANCH   7  12
BRANCH   3  11
ATOM     11  C   UNL     1      19.774   6.781  20.787  0.00  0.00    +0.122 C 
BRANCH  11  13
ATOM      1  F   UNL     1      21.074   6.950  23.297  0.00  0.00    -0.205 F 
ATOM     13  C   UNL     1      20.673   5.698  21.321  0.00  0.00    +0.002 A 
ATOM     14  C   UNL     1      21.283   5.846  22.566  0.00  0.00    +0.128 A 
ATOM     15  C   UNL     1      20.896   4.545  20.568  0.00  0.00    +0.008 A 
ATOM     17  C   UNL     1      22.116   4.841  23.059  0.00  0.00    +0.038 A 
ATOM     18  C   UNL     1      21.729   3.541  21.060  0.00  0.00    +0.000 A 
ATOM     20  C   UNL     1      22.339   3.688  22.306  0.00  0.00    +0.003 A 
ENDBRANCH  11  13
ENDBRANCH   3  11
TORSDOF 4
ENDMDL
MODEL 6
REMARK VINA RESULT:      -6.8     18.379     20.589
REMARK  Name = 51137298
REMARK  4 active torsions:
REMARK  status: ('A' for Active; 'I' for Inactive)
REMARK    1  A    between atoms: N_3  and  C_11
REMARK    2  A    between atoms: C_7  and  C_12
REMARK    3  A    between atoms: C_11  and  C_13
REMARK    4  A    between atoms: C_16  and  C_19
REMARK                            x       y       z     vdW  Elec       q    Type
REMARK                         _______ _______ _______ _____ _____    ______ ____
ROOT
ATOM      3  N   UNL     1      10.894   5.244   3.969  0.00  0.00    -0.297 NA
ATOM      7  C   UNL     1      12.307   4.396   2.300  0.00  0.00    +0.092 C 
ATOM      8  C   UNL     1      12.599   5.891   2.511  0.00  0.00    +0.029 C 
ATOM      9  C   UNL     1      10.949   4.166   2.980  0.00  0.00    +0.097 C 
ATOM     10  C   UNL     1      11.390   6.427   3.266  0.00  0.00    +0.085 C 
ENDROOT
BRANCH   7  12
ATOM      2  O   UNL     1      11.241   4.248   0.100  0.00  0.00    -0.420 OA
ATOM      4  N   UNL     1      13.254   3.279   0.205  0.00  0.00    -0.112 NA
ATOM      5  N   UNL     1      12.771   3.123  -1.080  0.00  0.00    -0.107 NA
ATOM     12  C   UNL     1      12.328   3.941   0.859  0.00  0.00    +0.222 A 
ATOM     16  C   UNL     1      11.594   3.704  -1.096  0.00  0.00    +0.248 A 
BRANCH  16  19
ATOM      6  N   UNL     1       8.783   4.135  -4.227  0.00  0.00    -0.263 NA
ATOM     19  C   UNL     1      10.641   3.850  -2.158  0.00  0.00    +0.041 A 
ATOM     21  C   UNL     1      10.522   2.863  -3.129  0.00  0.00    +0.033 A 
ATOM     22  C   UNL     1       9.832   4.980  -2.220  0.00  0.00    +0.033 A 
ATOM     23  C   UNL     1       9.586   3.051  -4.134  0.00  0.00    +0.111 A 
ATOM     24  C   UNL     1       8.928   5.074  -3.265  0.00  0.00    +0.111 A 
ENDBRANCH  16  19
ENDBRANCH   7  12
BRANCH   3  11
ATOM     11  C   UNL     1       9.554   5.439   4.504  0.00  0.00    +0.122 C 
BRANCH  11  13
ATOM      1  F   UNL     1      10.019   3.141   6.094  0.00  0.00    -0.205 F 
ATOM     13  C   UNL     1       9.550   5.467   6.010  0.00  0.00    +0.002 A 
ATOM     14  C   UNL     1       9.787   4.297   6.731  0.00  0.00    +0.128 A 
ATOM     15  C   UNL     1       9.310   6.665   6.682  0.00  0.00    +0.008 A 
ATOM     17  C   UNL     1       9.783   4.326   8.127  0.00  0.00    +0.038 A 
ATOM     18  C   UNL     1       9.305   6.694   8.076  0.00  0.00    +0.000 A 
ATOM     20  C   UNL     1       9.543   5.524   8.799  0.00  0.00    +0.003 A 
ENDBRANCH  11  13
ENDBRANCH   3  11
TORSDOF 4
ENDMDL
MODEL 7
REMARK VINA RESULT:      -6.8      4.477      7.225
REMARK  Name = 51137298
REMARK  4 active torsions:
REMARK  status: ('A' for Active; 'I' for Inactive)
REMARK    1  A    between atoms: N_3  and  C_11
REMARK    2  A    between atoms: C_7  and  C_12
REMARK    3  A    between atoms: C_11  and  C_13
REMARK    4  A    between atoms: C_16  and  C_19
REMARK                            x       y       z     vdW  Elec       q    Type
REMARK                         _______ _______ _______ _____ _____    ______ ____
ROOT
ATOM      3  N   UNL     1      16.488   7.550  20.529  0.00  0.00    -0.297 NA
ATOM      7  C   UNL     1      18.730   6.873  20.422  0.00  0.00    +0.092 C 
ATOM      8  C   UNL     1      17.875   5.965  19.522  0.00  0.00    +0.029 C 
ATOM      9  C   UNL     1      17.717   7.592  21.324  0.00  0.00    +0.097 C 
ATOM     10  C   UNL     1      16.440   6.196  19.978  0.00  0.00    +0.085 C 
ENDROOT
BRANCH   7  12
ATOM      2  O   UNL     1      20.731   5.461  20.482  0.00  0.00    -0.420 OA
ATOM      4  N   UNL     1      20.006   6.104  22.499  0.00  0.00    -0.112 NA
ATOM      5  N   UNL     1      21.130   5.319  22.678  0.00  0.00    -0.107 NA
ATOM     12  C   UNL     1      19.809   6.159  21.202  0.00  0.00    +0.222 A 
ATOM     16  C   UNL     1      21.519   4.967  21.475  0.00  0.00    +0.248 A 
BRANCH  16  19
ATOM      6  N   UNL     1      24.782   2.579  20.235  0.00  0.00    -0.263 NA
ATOM     19  C   UNL     1      22.625   4.157  21.054  0.00  0.00    +0.041 A 
ATOM     21  C   UNL     1      23.674   4.725  20.340  0.00  0.00    +0.033 A 
ATOM     22  C   UNL     1      22.654   2.801  21.360  0.00  0.00    +0.033 A 
ATOM     23  C   UNL     1      24.719   3.901  19.957  0.00  0.00    +0.111 A 
ATOM     24  C   UNL     1      23.745   2.062  20.931  0.00  0.00    +0.111 A 
ENDBRANCH  16  19
ENDBRANCH   7  12
BRANCH   3  11
ATOM     11  C   UNL     1      15.306   7.870  21.318  0.00  0.00    +0.122 C 
BRANCH  11  13
ATOM      1  F   UNL     1      12.676   6.977  21.877  0.00  0.00    -0.205 F 
ATOM     13  C   UNL     1      14.123   8.200  20.446  0.00  0.00    +0.002 A 
ATOM     14  C   UNL     1      12.854   7.727  20.781  0.00  0.00    +0.128 A 
ATOM     15  C   UNL     1      14.298   8.980  19.303  0.00  0.00    +0.008 A 
ATOM     17  C   UNL     1      11.760   8.035  19.972  0.00  0.00    +0.038 A 
ATOM     18  C   UNL     1      13.204   9.288  18.495  0.00  0.00    +0.000 A 
ATOM     20  C   UNL     1      11.935   8.815  18.829  0.00  0.00    +0.003 A 
ENDBRANCH  11  13
ENDBRANCH   3  11
TORSDOF 4
ENDMDL
MODEL 8
REMARK VINA RESULT:      -6.8     26.683     29.013
REMARK  Name = 51137298
REMARK  4 active torsions:
REMARK  status: ('A' for Active; 'I' for Inactive)
REMARK    1  A    between atoms: N_3  and  C_11
REMARK    2  A    between atoms: C_7  and  C_12
REMARK    3  A    between atoms: C_11  and  C_13
REMARK    4  A    between atoms: C_16  and  C_19
REMARK                            x       y       z     vdW  Elec       q    Type
REMARK                         _______ _______ _______ _____ _____    ______ ____
ROOT
ATOM      3  N   UNL     1      -3.804 -10.744  14.282  0.00  0.00    -0.297 NA
ATOM      7  C   UNL     1      -4.178 -10.384  16.569  0.00  0.00    +0.092 C 
ATOM      8  C   UNL     1      -2.699 -10.739  16.339  0.00  0.00    +0.029 C 
ATOM      9  C   UNL     1      -4.884 -10.798  15.269  0.00  0.00    +0.097 C 
ATOM     10  C   UNL     1      -2.654 -11.356  14.947  0.00  0.00    +0.085 C 
ENDROOT
BRANCH   7  12
ATOM      2  O   UNL     1      -6.157 -11.025  17.861  0.00  0.00    -0.420 OA
ATOM      4  N   UNL     1      -4.217 -11.546  18.845  0.00  0.00    -0.112 NA
ATOM      5  N   UNL     1      -5.242 -11.959  19.675  0.00  0.00    -0.107 NA
ATOM     12  C   UNL     1      -4.797 -11.005  17.798  0.00  0.00    +0.222 A 
ATOM     16  C   UNL     1      -6.356 -11.635  19.061  0.00  0.00    +0.248 A 
BRANCH  16  19
ATOM      6  N   UNL     1     -10.388 -12.185  20.215  0.00  0.00    -0.263 NA
ATOM     19  C   UNL     1      -7.723 -11.822  19.451  0.00  0.00    +0.041 A 
ATOM     21  C   UNL     1      -8.147 -13.053  19.939  0.00  0.00    +0.033 A 
ATOM     22  C   UNL     1      -8.630 -10.773  19.345  0.00  0.00    +0.033 A 
ATOM     23  C   UNL     1      -9.478 -13.182  20.303  0.00  0.00    +0.111 A 
ATOM     24  C   UNL     1      -9.938 -11.003  19.736  0.00  0.00    +0.111 A 
ENDBRANCH  16  19
ENDBRANCH   7  12
BRANCH   3  11
ATOM     11  C   UNL     1      -4.152 -11.423  13.041  0.00  0.00    +0.122 C 
BRANCH  11  13
ATOM      1  F   UNL     1      -1.771 -10.628  11.729  0.00  0.00    -0.205 F 
ATOM     13  C   UNL     1      -4.137 -10.483  11.865  0.00  0.00    +0.002 A 
ATOM     14  C   UNL     1      -2.927 -10.133  11.265  0.00  0.00    +0.128 A 
ATOM     15  C   UNL     1      -5.335  -9.963  11.375  0.00  0.00    +0.008 A 
ATOM     17  C   UNL     1      -2.916  -9.262  10.175  0.00  0.00    +0.038 A 
ATOM     18  C   UNL     1      -5.323  -9.093  10.286  0.00  0.00    +0.000 A 
ATOM     20  C   UNL     1      -4.114  -8.742   9.685  0.00  0.00    +0.003 A 
ENDBRANCH  11  13
ENDBRANCH   3  11
TORSDOF 4
ENDMDL
MODEL 9
REMARK VINA RESULT:      -6.7      4.243      6.779
REMARK  Name = 51137298
REMARK  4 active torsions:
REMARK  status: ('A' for Active; 'I' for Inactive)
REMARK    1  A    between atoms: N_3  and  C_11
REMARK    2  A    between atoms: C_7  and  C_12
REMARK    3  A    between atoms: C_11  and  C_13
REMARK    4  A    between atoms: C_16  and  C_19
REMARK                            x       y       z     vdW  Elec       q    Type
REMARK                         _______ _______ _______ _____ _____    ______ ____
ROOT
ATOM      3  N   UNL     1      16.000   7.949  20.957  0.00  0.00    -0.297 NA
ATOM      7  C   UNL     1      18.200   7.188  20.672  0.00  0.00    +0.092 C 
ATOM      8  C   UNL     1      17.224   6.194  20.021  0.00  0.00    +0.029 C 
ATOM      9  C   UNL     1      17.319   8.058  21.581  0.00  0.00    +0.097 C 
ATOM     10  C   UNL     1      15.862   6.533  20.612  0.00  0.00    +0.085 C 
ENDROOT
BRANCH   7  12
ATOM      2  O   UNL     1      20.224   5.809  20.667  0.00  0.00    -0.420 OA
ATOM      4  N   UNL     1      19.670   6.607  22.682  0.00  0.00    -0.112 NA
ATOM      5  N   UNL     1      20.819   5.853  22.822  0.00  0.00    -0.107 NA
ATOM     12  C   UNL     1      19.357   6.553  21.407  0.00  0.00    +0.222 A 
ATOM     16  C   UNL     1      21.106   5.407  21.621  0.00  0.00    +0.248 A 
BRANCH  16  19
ATOM      6  N   UNL     1      24.288   2.961  20.286  0.00  0.00    -0.263 NA
ATOM     19  C   UNL     1      22.185   4.577  21.169  0.00  0.00    +0.041 A 
ATOM     21  C   UNL     1      22.143   3.204  21.375  0.00  0.00    +0.033 A 
ATOM     22  C   UNL     1      23.278   5.145  20.522  0.00  0.00    +0.033 A 
ATOM     23  C   UNL     1      23.210   2.446  20.919  0.00  0.00    +0.111 A 
ATOM     24  C   UNL     1      24.294   4.301  20.104  0.00  0.00    +0.111 A 
ENDBRANCH  16  19
ENDBRANCH   7  12
BRANCH   3  11
ATOM     11  C   UNL     1      14.931   8.413  21.831  0.00  0.00    +0.122 C 
BRANCH  11  13
ATOM      1  F   UNL     1      14.426  10.022  19.555  0.00  0.00    -0.205 F 
ATOM     13  C   UNL     1      13.602   8.442  21.124  0.00  0.00    +0.002 A 
ATOM     14  C   UNL     1      13.422   9.259  20.008  0.00  0.00    +0.128 A 
ATOM     15  C   UNL     1      12.551   7.651  21.588  0.00  0.00    +0.008 A 
ATOM     17  C   UNL     1      12.189   9.284  19.355  0.00  0.00    +0.038 A 
ATOM     18  C   UNL     1      11.319   7.677  20.936  0.00  0.00    +0.000 A 
ATOM     20  C   UNL     1      11.137   8.493  19.818  0.00  0.00    +0.003 A 
ENDBRANCH  11  13
ENDBRANCH   3  11
TORSDOF 4
ENDMDL
MODEL 10
REMARK VINA RESULT:      -6.7      4.546      6.339
REMARK  Name = 51137298
REMARK  4 active torsions:
REMARK  status: ('A' for Active; 'I' for Inactive)
REMARK    1  A    between atoms: N_3  and  C_11
REMARK    2  A    between atoms: C_7  and  C_12
REMARK    3  A    between atoms: C_11  and  C_13
REMARK    4  A    between atoms: C_16  and  C_19
REMARK                            x       y       z     vdW  Elec       q    Type
REMARK                         _______ _______ _______ _____ _____    ______ ____
ROOT
ATOM      3  N   UNL     1      14.087   7.870  19.400  0.00  0.00    -0.297 NA
ATOM      7  C   UNL     1      16.185   6.916  19.831  0.00  0.00    +0.092 C 
ATOM      8  C   UNL     1      15.127   6.260  20.733  0.00  0.00    +0.029 C 
ATOM      9  C   UNL     1      15.512   8.193  19.307  0.00  0.00    +0.097 C 
ATOM     10  C   UNL     1      13.934   7.206  20.695  0.00  0.00    +0.085 C 
ENDROOT
BRANCH   7  12
ATOM      2  O   UNL     1      18.544   6.355  20.177  0.00  0.00    -0.420 OA
ATOM      4  N   UNL     1      17.841   8.113  21.367  0.00  0.00    -0.112 NA
ATOM      5  N   UNL     1      19.177   7.908  21.655  0.00  0.00    -0.107 NA
ATOM     12  C   UNL     1      17.513   7.183  20.500  0.00  0.00    +0.222 A 
ATOM     16  C   UNL     1      19.545   6.872  20.938  0.00  0.00    +0.248 A 
BRANCH  16  19
ATOM      6  N   UNL     1      23.292   4.934  20.634  0.00  0.00    -0.263 NA
ATOM     19  C   UNL     1      20.816   6.215  20.836  0.00  0.00    +0.041 A 
ATOM     21  C   UNL     1      20.896   4.831  20.946  0.00  0.00    +0.033 A 
ATOM     22  C   UNL     1      21.972   6.959  20.625  0.00  0.00    +0.033 A 
ATOM     23  C   UNL     1      22.147   4.245  20.839  0.00  0.00    +0.111 A 
ATOM     24  C   UNL     1      23.174   6.277  20.533  0.00  0.00    +0.111 A 
ENDBRANCH  16  19
ENDBRANCH   7  12
BRANCH   3  11
ATOM     11  C   UNL     1      13.241   9.050  19.279  0.00  0.00    +0.122 C 
BRANCH  11  13
ATOM      1  F   UNL     1      14.320  10.211  16.932  0.00  0.00    -0.205 F 
ATOM     13  C   UNL     1      12.506   9.081  17.965  0.00  0.00    +0.002 A 
ATOM     14  C   UNL     1      13.097   9.670  16.848  0.00  0.00    +0.128 A 
ATOM     15  C   UNL     1      11.233   8.519  17.867  0.00  0.00    +0.008 A 
ATOM     17  C   UNL     1      12.414   9.697  15.631  0.00  0.00    +0.038 A 
ATOM     18  C   UNL     1      10.551   8.547  16.652  0.00  0.00    +0.000 A 
ATOM     20  C   UNL     1      11.141   9.136  15.533  0.00  0.00    +0.003 A 
ENDBRANCH  11  13
ENDBRANCH   3  11
TORSDOF 4
ENDMDL
