MODEL 1
REMARK VINA RESULT:      -7.4      0.000      0.000
REMARK  Name = 75367037
REMARK  8 active torsions:
REMARK  status: ('A' for Active; 'I' for Inactive)
REMARK    1  A    between atoms: O_3  and  C_12
REMARK    2  A    between atoms: N_6  and  C_18
REMARK    3  A    between atoms: N_7  and  C_16
REMARK    4  A    between atoms: C_10  and  C_15
REMARK    5  A    between atoms: C_11  and  C_16
REMARK    6  A    between atoms: C_15  and  C_17
REMARK    7  A    between atoms: C_18  and  C_21
REMARK    8  A    between atoms: C_25  and  C_26
REMARK                            x       y       z     vdW  Elec       q    Type
REMARK                         _______ _______ _______ _____ _____    ______ ____
ROOT
ATOM      2  O   UNL     1     -16.072   2.023  25.052  0.00  0.00    -0.369 OA
ATOM     10  C   UNL     1     -17.242   2.060  25.873  0.00  0.00    +0.125 C 
ATOM     11  C   UNL     1     -16.017   3.020  24.023  0.00  0.00    +0.164 C 
ATOM     12  C   UNL     1     -17.259   2.963  23.123  0.00  0.00    +0.145 C 
ATOM     13  C   UNL     1     -18.501   1.887  25.026  0.00  0.00    +0.034 C 
ATOM     14  C   UNL     1     -18.557   2.941  23.924  0.00  0.00    +0.036 C 
ENDROOT
BRANCH  12   3
ATOM      3  O   UNL     1     -17.206   1.765  22.343  0.00  0.00    -0.389 OA
ATOM     32  H   UNL     1     -17.309   2.018  21.409  0.00  0.00    +0.210 HD
ENDBRANCH  12   3
BRANCH  10  15
ATOM     15  C   UNL     1     -17.118   0.939  26.896  0.00  0.00    +0.090 C 
BRANCH  15  17
ATOM      4  O   UNL     1     -15.046   1.112  29.840  0.00  0.00    -0.358 OA
ATOM      9  N   UNL     1     -15.782   0.410  28.894  0.00  0.00    -0.083 NA
ATOM     17  C   UNL     1     -16.260   1.342  28.066  0.00  0.00    +0.086 A 
ATOM     21  C   UNL     1     -15.102   2.438  29.557  0.00  0.00    +0.151 A 
ATOM     22  C   UNL     1     -15.863   2.639  28.437  0.00  0.00    +0.072 A 
BRANCH  21  18
ATOM     18  C   UNL     1     -14.373   3.333  30.464  0.00  0.00    +0.161 C 
BRANCH  18   6
ATOM      6  N   UNL     1     -14.893   3.319  31.829  0.00  0.00    -0.293 NA
ATOM      8  N   UNL     1     -15.778   4.604  34.272  0.00  0.00    -0.314 NA
ATOM     19  C   UNL     1     -16.189   4.007  31.901  0.00  0.00    +0.100 C 
ATOM     20  C   UNL     1     -13.934   3.927  32.760  0.00  0.00    +0.100 C 
ATOM     23  C   UNL     1     -16.727   4.000  33.335  0.00  0.00    +0.096 C 
ATOM     24  C   UNL     1     -14.485   3.921  34.188  0.00  0.00    +0.096 C 
ATOM     34  H   UNL     1     -16.142   4.529  35.222  0.00  0.00    +0.122 HD
ENDBRANCH  18   6
ENDBRANCH  21  18
ENDBRANCH  15  17
ENDBRANCH  10  15
BRANCH  11  16
ATOM     16  C   UNL     1     -15.773   4.407  24.614  0.00  0.00    +0.138 C 
BRANCH  16   7
ATOM      5  O   UNL     1     -16.329   6.410  22.633  0.00  0.00    -0.270 OA
ATOM      7  N   UNL     1     -14.813   5.134  23.840  0.00  0.00    -0.309 N 
ATOM     25  C   UNL     1     -15.172   6.093  22.895  0.00  0.00    +0.247 C 
ATOM     33  H   UNL     1     -13.836   4.887  23.960  0.00  0.00    +0.149 HD
BRANCH  25  26
ATOM      1  F   UNL     1     -15.015   8.887  22.501  0.00  0.00    -0.205 F 
ATOM     26  C   UNL     1     -14.058   6.740  22.157  0.00  0.00    +0.072 A 
ATOM     27  C   UNL     1     -14.035   8.125  21.994  0.00  0.00    +0.135 A 
ATOM     28  C   UNL     1     -13.031   5.959  21.625  0.00  0.00    +0.016 A 
ATOM     29  C   UNL     1     -12.987   8.729  21.300  0.00  0.00    +0.039 A 
ATOM     30  C   UNL     1     -11.983   6.562  20.932  0.00  0.00    +0.001 A 
ATOM     31  C   UNL     1     -11.960   7.947  20.769  0.00  0.00    +0.003 A 
ENDBRANCH  25  26
ENDBRANCH  16   7
ENDBRANCH  11  16
TORSDOF 8
ENDMDL
MODEL 2
REMARK VINA RESULT:      -7.3     28.364     31.211
REMARK  Name = 75367037
REMARK  8 active torsions:
REMARK  status: ('A' for Active; 'I' for Inactive)
REMARK    1  A    between atoms: O_3  and  C_12
REMARK    2  A    between atoms: N_6  and  C_18
REMARK    3  A    between atoms: N_7  and  C_16
REMARK    4  A    between atoms: C_10  and  C_15
REMARK    5  A    between atoms: C_11  and  C_16
REMARK    6  A    between atoms: C_15  and  C_17
REMARK    7  A    between atoms: C_18  and  C_21
REMARK    8  A    between atoms: C_25  and  C_26
REMARK                            x       y       z     vdW  Elec       q    Type
REMARK                         _______ _______ _______ _____ _____    ______ ____
ROOT
ATOM      2  O   UNL     1      12.421   8.002  22.063  0.00  0.00    -0.369 OA
ATOM     10  C   UNL     1      11.797   9.163  21.507  0.00  0.00    +0.125 C 
ATOM     11  C   UNL     1      13.434   7.402  21.245  0.00  0.00    +0.164 C 
ATOM     12  C   UNL     1      12.894   7.057  19.851  0.00  0.00    +0.145 C 
ATOM     13  C   UNL     1      11.142   8.833  20.167  0.00  0.00    +0.034 C 
ATOM     14  C   UNL     1      12.161   8.228  19.205  0.00  0.00    +0.036 C 
ENDROOT
BRANCH  12   3
ATOM      3  O   UNL     1      11.967   5.974  19.972  0.00  0.00    -0.389 OA
ATOM     32  H   UNL     1      11.901   5.545  19.102  0.00  0.00    +0.210 HD
ENDBRANCH  12   3
BRANCH  10  15
ATOM     15  C   UNL     1      10.763   9.652  22.511  0.00  0.00    +0.090 C 
BRANCH  15  17
ATOM      4  O   UNL     1      11.556  11.634  25.415  0.00  0.00    -0.358 OA
ATOM      9  N   UNL     1      10.721  10.790  24.692  0.00  0.00    -0.083 NA
ATOM     17  C   UNL     1      11.377  10.548  23.554  0.00  0.00    +0.086 A 
ATOM     21  C   UNL     1      12.682  11.874  24.696  0.00  0.00    +0.151 A 
ATOM     22  C   UNL     1      12.618  11.205  23.503  0.00  0.00    +0.072 A 
BRANCH  21  18
ATOM     18  C   UNL     1      13.680  12.754  25.316  0.00  0.00    +0.161 C 
BRANCH  18   6
ATOM      6  N   UNL     1      14.046  12.347  26.671  0.00  0.00    -0.293 NA
ATOM      8  N   UNL     1      15.819  12.290  28.963  0.00  0.00    -0.314 NA
ATOM     19  C   UNL     1      14.197  13.517  27.544  0.00  0.00    +0.100 C 
ATOM     20  C   UNL     1      15.278  11.548  26.661  0.00  0.00    +0.100 C 
ATOM     23  C   UNL     1      14.591  13.089  28.961  0.00  0.00    +0.096 C 
ATOM     24  C   UNL     1      15.665  11.130  28.082  0.00  0.00    +0.096 C 
ATOM     34  H   UNL     1      16.018  11.974  29.912  0.00  0.00    +0.122 HD
ENDBRANCH  18   6
ENDBRANCH  21  18
ENDBRANCH  15  17
ENDBRANCH  10  15
BRANCH  11  16
ATOM     16  C   UNL     1      14.689   8.271  21.200  0.00  0.00    +0.138 C 
BRANCH  16   7
ATOM      5  O   UNL     1      17.377   9.188  20.777  0.00  0.00    -0.270 OA
ATOM      7  N   UNL     1      15.870   7.464  21.153  0.00  0.00    -0.309 N 
ATOM     25  C   UNL     1      17.142   7.995  20.942  0.00  0.00    +0.247 C 
ATOM     33  H   UNL     1      15.750   6.459  21.225  0.00  0.00    +0.149 HD
BRANCH  25  26
ATOM      1  F   UNL     1      19.320   8.080  22.740  0.00  0.00    -0.205 F 
ATOM     26  C   UNL     1      18.262   7.020  20.895  0.00  0.00    +0.072 A 
ATOM     27  C   UNL     1      19.311   7.113  21.810  0.00  0.00    +0.135 A 
ATOM     28  C   UNL     1      18.264   6.010  19.933  0.00  0.00    +0.016 A 
ATOM     29  C   UNL     1      20.361   6.197  21.763  0.00  0.00    +0.039 A 
ATOM     30  C   UNL     1      19.314   5.093  19.886  0.00  0.00    +0.001 A 
ATOM     31  C   UNL     1      20.362   5.186  20.801  0.00  0.00    +0.003 A 
ENDBRANCH  25  26
ENDBRANCH  16   7
ENDBRANCH  11  16
TORSDOF 8
ENDMDL
MODEL 3
REMARK VINA RESULT:      -7.2     28.481     32.531
REMARK  Name = 75367037
REMARK  8 active torsions:
REMARK  status: ('A' for Active; 'I' for Inactive)
REMARK    1  A    between atoms: O_3  and  C_12
REMARK    2  A    between atoms: N_6  and  C_18
REMARK    3  A    between atoms: N_7  and  C_16
REMARK    4  A    between atoms: C_10  and  C_15
REMARK    5  A    between atoms: C_11  and  C_16
REMARK    6  A    between atoms: C_15  and  C_17
REMARK    7  A    between atoms: C_18  and  C_21
REMARK    8  A    between atoms: C_25  and  C_26
REMARK                            x       y       z     vdW  Elec       q    Type
REMARK                         _______ _______ _______ _____ _____    ______ ____
ROOT
ATOM      2  O   UNL     1      13.066   8.393  21.949  0.00  0.00    -0.369 OA
ATOM     10  C   UNL     1      13.084   9.427  20.961  0.00  0.00    +0.125 C 
ATOM     11  C   UNL     1      12.375   7.196  21.567  0.00  0.00    +0.164 C 
ATOM     12  C   UNL     1      10.933   7.497  21.136  0.00  0.00    +0.145 C 
ATOM     13  C   UNL     1      11.662   9.840  20.588  0.00  0.00    +0.034 C 
ATOM     14  C   UNL     1      10.855   8.632  20.120  0.00  0.00    +0.036 C 
ENDROOT
BRANCH  12   3
ATOM      3  O   UNL     1      10.181   7.889  22.287  0.00  0.00    -0.389 OA
ATOM     32  H   UNL     1      10.792   8.331  22.901  0.00  0.00    +0.210 HD
ENDBRANCH  12   3
BRANCH  10  15
ATOM     15  C   UNL     1      13.856  10.603  21.544  0.00  0.00    +0.090 C 
BRANCH  15  17
ATOM      4  O   UNL     1      15.184  13.216  19.447  0.00  0.00    -0.358 OA
ATOM      9  N   UNL     1      14.532  12.767  20.589  0.00  0.00    -0.083 NA
ATOM     17  C   UNL     1      14.498  11.438  20.468  0.00  0.00    +0.086 A 
ATOM     21  C   UNL     1      15.522  12.151  18.676  0.00  0.00    +0.151 A 
ATOM     22  C   UNL     1      15.108  10.994  19.281  0.00  0.00    +0.072 A 
BRANCH  21  18
ATOM     18  C   UNL     1      16.223  12.446  17.421  0.00  0.00    +0.161 C 
BRANCH  18   6
ATOM      6  N   UNL     1      15.635  11.779  16.261  0.00  0.00    -0.293 NA
ATOM      8  N   UNL     1      14.626  11.727  13.545  0.00  0.00    -0.314 NA
ATOM     19  C   UNL     1      16.546  11.836  15.110  0.00  0.00    +0.100 C 
ATOM     20  C   UNL     1      14.336  12.371  15.921  0.00  0.00    +0.100 C 
ATOM     23  C   UNL     1      15.924  11.145  13.894  0.00  0.00    +0.096 C 
ATOM     24  C   UNL     1      13.726  11.677  14.700  0.00  0.00    +0.096 C 
ATOM     34  H   UNL     1      14.215  11.205  12.770  0.00  0.00    +0.122 HD
ENDBRANCH  18   6
ENDBRANCH  21  18
ENDBRANCH  15  17
ENDBRANCH  10  15
BRANCH  11  16
ATOM     16  C   UNL     1      13.162   6.419  20.514  0.00  0.00    +0.138 C 
BRANCH  16   7
ATOM      5  O   UNL     1      15.219   7.395  18.763  0.00  0.00    -0.270 OA
ATOM      7  N   UNL     1      14.566   6.463  20.786  0.00  0.00    -0.309 N 
ATOM     25  C   UNL     1      15.499   6.955  19.875  0.00  0.00    +0.247 C 
ATOM     33  H   UNL     1      14.882   6.065  21.665  0.00  0.00    +0.149 HD
BRANCH  25  26
ATOM      1  F   UNL     1      17.374   5.167  18.747  0.00  0.00    -0.205 F 
ATOM     26  C   UNL     1      16.922   6.909  20.299  0.00  0.00    +0.072 A 
ATOM     27  C   UNL     1      17.802   6.003  19.705  0.00  0.00    +0.135 A 
ATOM     28  C   UNL     1      17.379   7.774  21.293  0.00  0.00    +0.016 A 
ATOM     29  C   UNL     1      19.136   5.962  20.106  0.00  0.00    +0.039 A 
ATOM     30  C   UNL     1      18.715   7.733  21.694  0.00  0.00    +0.001 A 
ATOM     31  C   UNL     1      19.593   6.828  21.100  0.00  0.00    +0.003 A 
ENDBRANCH  25  26
ENDBRANCH  16   7
ENDBRANCH  11  16
TORSDOF 8
ENDMDL
MODEL 4
REMARK VINA RESULT:      -7.2     32.571     35.852
REMARK  Name = 75367037
REMARK  8 active torsions:
REMARK  status: ('A' for Active; 'I' for Inactive)
REMARK    1  A    between atoms: O_3  and  C_12
REMARK    2  A    between atoms: N_6  and  C_18
REMARK    3  A    between atoms: N_7  and  C_16
REMARK    4  A    between atoms: C_10  and  C_15
REMARK    5  A    between atoms: C_11  and  C_16
REMARK    6  A    between atoms: C_15  and  C_17
REMARK    7  A    between atoms: C_18  and  C_21
REMARK    8  A    between atoms: C_25  and  C_26
REMARK                            x       y       z     vdW  Elec       q    Type
REMARK                         _______ _______ _______ _____ _____    ______ ____
ROOT
ATOM      2  O   UNL     1      20.907   7.982  21.013  0.00  0.00    -0.369 OA
ATOM     10  C   UNL     1      19.774   7.485  21.731  0.00  0.00    +0.125 C 
ATOM     11  C   UNL     1      22.093   7.183  21.116  0.00  0.00    +0.164 C 
ATOM     12  C   UNL     1      22.491   6.960  22.580  0.00  0.00    +0.145 C 
ATOM     13  C   UNL     1      20.092   7.359  23.219  0.00  0.00    +0.034 C 
ATOM     14  C   UNL     1      21.322   6.480  23.434  0.00  0.00    +0.036 C 
ENDROOT
BRANCH  12   3
ATOM      3  O   UNL     1      22.951   8.200  23.126  0.00  0.00    -0.389 OA
ATOM     32  H   UNL     1      22.174   8.681  23.456  0.00  0.00    +0.210 HD
ENDBRANCH  12   3
BRANCH  10  15
ATOM     15  C   UNL     1      18.624   8.457  21.502  0.00  0.00    +0.090 C 
BRANCH  15  17
ATOM      4  O   UNL     1      16.445   6.312  19.596  0.00  0.00    -0.358 OA
ATOM      9  N   UNL     1      17.642   6.583  20.247  0.00  0.00    -0.083 NA
ATOM     17  C   UNL     1      17.503   7.822  20.724  0.00  0.00    +0.086 A 
ATOM     21  C   UNL     1      15.625   7.388  19.699  0.00  0.00    +0.151 A 
ATOM     22  C   UNL     1      16.250   8.378  20.408  0.00  0.00    +0.072 A 
BRANCH  21  18
ATOM     18  C   UNL     1      14.308   7.271  19.062  0.00  0.00    +0.161 C 
BRANCH  18   6
ATOM      6  N   UNL     1      13.209   7.702  19.924  0.00  0.00    -0.293 NA
ATOM      8  N   UNL     1      10.469   7.607  20.861  0.00  0.00    -0.314 NA
ATOM     19  C   UNL     1      12.726   6.589  20.750  0.00  0.00    +0.100 C 
ATOM     20  C   UNL     1      12.113   8.268  19.128  0.00  0.00    +0.100 C 
ATOM     23  C   UNL     1      11.569   7.041  21.644  0.00  0.00    +0.096 C 
ATOM     24  C   UNL     1      10.959   8.710  20.032  0.00  0.00    +0.096 C 
ATOM     34  H   UNL     1       9.743   7.951  21.491  0.00  0.00    +0.122 HD
ENDBRANCH  18   6
ENDBRANCH  21  18
ENDBRANCH  15  17
ENDBRANCH  10  15
BRANCH  11  16
ATOM     16  C   UNL     1      21.947   5.880  20.332  0.00  0.00    +0.138 C 
BRANCH  16   7
ATOM      5  O   UNL     1      21.066   3.203  20.879  0.00  0.00    -0.270 OA
ATOM      7  N   UNL     1      22.717   4.833  20.929  0.00  0.00    -0.309 N 
ATOM     25  C   UNL     1      22.208   3.556  21.160  0.00  0.00    +0.247 C 
ATOM     33  H   UNL     1      23.655   5.065  21.241  0.00  0.00    +0.149 HD
BRANCH  25  26
ATOM      1  F   UNL     1      22.421   3.302  23.966  0.00  0.00    -0.205 F 
ATOM     26  C   UNL     1      23.128   2.589  21.813  0.00  0.00    +0.072 A 
ATOM     27  C   UNL     1      23.188   2.509  23.204  0.00  0.00    +0.135 A 
ATOM     28  C   UNL     1      23.930   1.758  21.031  0.00  0.00    +0.016 A 
ATOM     29  C   UNL     1      24.052   1.600  23.813  0.00  0.00    +0.039 A 
ATOM     30  C   UNL     1      24.794   0.848  21.640  0.00  0.00    +0.001 A 
ATOM     31  C   UNL     1      24.855   0.769  23.031  0.00  0.00    +0.003 A 
ENDBRANCH  25  26
ENDBRANCH  16   7
ENDBRANCH  11  16
TORSDOF 8
ENDMDL
MODEL 5
REMARK VINA RESULT:      -7.0     27.848     30.485
REMARK  Name = 75367037
REMARK  8 active torsions:
REMARK  status: ('A' for Active; 'I' for Inactive)
REMARK    1  A    between atoms: O_3  and  C_12
REMARK    2  A    between atoms: N_6  and  C_18
REMARK    3  A    between atoms: N_7  and  C_16
REMARK    4  A    between atoms: C_10  and  C_15
REMARK    5  A    between atoms: C_11  and  C_16
REMARK    6  A    between atoms: C_15  and  C_17
REMARK    7  A    between atoms: C_18  and  C_21
REMARK    8  A    between atoms: C_25  and  C_26
REMARK                            x       y       z     vdW  Elec       q    Type
REMARK                         _______ _______ _______ _____ _____    ______ ____
ROOT
ATOM      2  O   UNL     1      13.835  11.335  16.914  0.00  0.00    -0.369 OA
ATOM     10  C   UNL     1      15.169  11.576  17.370  0.00  0.00    +0.125 C 
ATOM     11  C   UNL     1      13.726  10.464  15.780  0.00  0.00    +0.164 C 
ATOM     12  C   UNL     1      14.570  10.971  14.603  0.00  0.00    +0.145 C 
ATOM     13  C   UNL     1      16.015  12.193  16.258  0.00  0.00    +0.034 C 
ATOM     14  C   UNL     1      15.999  11.308  15.015  0.00  0.00    +0.036 C 
ENDROOT
BRANCH  12   3
ATOM      3  O   UNL     1      13.971  12.164  14.088  0.00  0.00    -0.389 OA
ATOM     32  H   UNL     1      14.577  12.534  13.424  0.00  0.00    +0.210 HD
ENDBRANCH  12   3
BRANCH  10  15
ATOM     15  C   UNL     1      15.080  12.512  18.568  0.00  0.00    +0.090 C 
BRANCH  15  17
ATOM      4  O   UNL     1      13.362  10.576  21.076  0.00  0.00    -0.358 OA
ATOM      9  N   UNL     1      14.371  10.754  20.137  0.00  0.00    -0.083 NA
ATOM     17  C   UNL     1      14.160  11.972  19.631  0.00  0.00    +0.086 A 
ATOM     21  C   UNL     1      12.579  11.684  21.108  0.00  0.00    +0.151 A 
ATOM     22  C   UNL     1      13.043  12.603  20.206  0.00  0.00    +0.072 A 
BRANCH  21  18
ATOM     18  C   UNL     1      11.455  11.664  22.052  0.00  0.00    +0.161 C 
BRANCH  18   6
ATOM      6  N   UNL     1      11.695  12.463  23.252  0.00  0.00    -0.293 NA
ATOM      8  N   UNL     1      11.938  12.813  26.118  0.00  0.00    -0.314 NA
ATOM     19  C   UNL     1      12.869  11.968  23.981  0.00  0.00    +0.100 C 
ATOM     20  C   UNL     1      10.512  12.468  24.120  0.00  0.00    +0.100 C 
ATOM     23  C   UNL     1      13.113  12.799  25.244  0.00  0.00    +0.096 C 
ATOM     24  C   UNL     1      10.769  13.298  25.382  0.00  0.00    +0.096 C 
ATOM     34  H   UNL     1      12.115  13.422  26.917  0.00  0.00    +0.122 HD
ENDBRANCH  18   6
ENDBRANCH  21  18
ENDBRANCH  15  17
ENDBRANCH  10  15
BRANCH  11  16
ATOM     16  C   UNL     1      14.044   9.020  16.163  0.00  0.00    +0.138 C 
BRANCH  16   7
ATOM      5  O   UNL     1      11.640   7.657  16.945  0.00  0.00    -0.270 OA
ATOM      7  N   UNL     1      13.618   8.738  17.499  0.00  0.00    -0.309 N 
ATOM     25  C   UNL     1      12.431   8.068  17.790  0.00  0.00    +0.247 C 
ATOM     33  H   UNL     1      14.192   9.096  18.256  0.00  0.00    +0.149 HD
BRANCH  25  26
ATOM      1  F   UNL     1      14.083   6.573  19.528  0.00  0.00    -0.205 F 
ATOM     26  C   UNL     1      12.119   7.875  19.230  0.00  0.00    +0.072 A 
ATOM     27  C   UNL     1      12.974   7.127  20.039  0.00  0.00    +0.135 A 
ATOM     28  C   UNL     1      10.968   8.447  19.773  0.00  0.00    +0.016 A 
ATOM     29  C   UNL     1      12.677   6.948  21.390  0.00  0.00    +0.039 A 
ATOM     30  C   UNL     1      10.672   8.269  21.125  0.00  0.00    +0.001 A 
ATOM     31  C   UNL     1      11.526   7.520  21.933  0.00  0.00    +0.003 A 
ENDBRANCH  25  26
ENDBRANCH  16   7
ENDBRANCH  11  16
TORSDOF 8
ENDMDL
MODEL 6
REMARK VINA RESULT:      -7.0     20.354     23.092
REMARK  Name = 75367037
REMARK  8 active torsions:
REMARK  status: ('A' for Active; 'I' for Inactive)
REMARK    1  A    between atoms: O_3  and  C_12
REMARK    2  A    between atoms: N_6  and  C_18
REMARK    3  A    between atoms: N_7  and  C_16
REMARK    4  A    between atoms: C_10  and  C_15
REMARK    5  A    between atoms: C_11  and  C_16
REMARK    6  A    between atoms: C_15  and  C_17
REMARK    7  A    between atoms: C_18  and  C_21
REMARK    8  A    between atoms: C_25  and  C_26
REMARK                            x       y       z     vdW  Elec       q    Type
REMARK                         _______ _______ _______ _____ _____    ______ ____
ROOT
ATOM      2  O   UNL     1      -6.237 -10.738  17.244  0.00  0.00    -0.369 OA
ATOM     10  C   UNL     1      -6.962 -11.967  17.132  0.00  0.00    +0.125 C 
ATOM     11  C   UNL     1      -5.285 -10.688  18.314  0.00  0.00    +0.164 C 
ATOM     12  C   UNL     1      -5.943 -11.001  19.664  0.00  0.00    +0.145 C 
ATOM     13  C   UNL     1      -7.730 -12.259  18.419  0.00  0.00    +0.034 C 
ATOM     14  C   UNL     1      -6.786 -12.272  19.618  0.00  0.00    +0.036 C 
ENDROOT
BRANCH  12   3
ATOM      3  O   UNL     1      -6.806  -9.917  20.018  0.00  0.00    -0.389 OA
ATOM     32  H   UNL     1      -7.634 -10.299  20.357  0.00  0.00    +0.210 HD
ENDBRANCH  12   3
BRANCH  10  15
ATOM     15  C   UNL     1      -7.914 -11.830  15.951  0.00  0.00    +0.090 C 
BRANCH  15  17
ATOM      4  O   UNL     1      -5.842 -10.917  13.147  0.00  0.00    -0.358 OA
ATOM      9  N   UNL     1      -6.205 -11.770  14.182  0.00  0.00    -0.083 NA
ATOM     17  C   UNL     1      -7.247 -11.177  14.769  0.00  0.00    +0.086 A 
ATOM     21  C   UNL     1      -6.672  -9.843  13.140  0.00  0.00    +0.151 A 
ATOM     22  C   UNL     1      -7.585  -9.959  14.154  0.00  0.00    +0.072 A 
BRANCH  21  18
ATOM     18  C   UNL     1      -6.428  -8.833  12.103  0.00  0.00    +0.161 C 
BRANCH  18   6
ATOM      6  N   UNL     1      -5.775  -9.375  10.912  0.00  0.00    -0.293 NA
ATOM      8  N   UNL     1      -5.014  -9.291   8.118  0.00  0.00    -0.314 NA
ATOM     19  C   UNL     1      -4.720  -8.470  10.439  0.00  0.00    +0.100 C 
ATOM     20  C   UNL     1      -6.756  -9.627   9.849  0.00  0.00    +0.100 C 
ATOM     23  C   UNL     1      -4.046  -9.035   9.186  0.00  0.00    +0.096 C 
ATOM     24  C   UNL     1      -6.069 -10.185   8.599  0.00  0.00    +0.096 C 
ATOM     34  H   UNL     1      -4.540  -9.720   7.323  0.00  0.00    +0.122 HD
ENDBRANCH  18   6
ENDBRANCH  21  18
ENDBRANCH  15  17
ENDBRANCH  10  15
BRANCH  11  16
ATOM     16  C   UNL     1      -4.078 -11.576  18.018  0.00  0.00    +0.138 C 
BRANCH  16   7
ATOM      5  O   UNL     1      -1.704 -10.832  16.585  0.00  0.00    -0.270 OA
ATOM      7  N   UNL     1      -3.859 -11.692  16.609  0.00  0.00    -0.309 N 
ATOM     25  C   UNL     1      -2.670 -11.305  15.993  0.00  0.00    +0.247 C 
ATOM     33  H   UNL     1      -4.635 -12.022  16.043  0.00  0.00    +0.149 HD
BRANCH  25  26
ATOM      1  F   UNL     1      -2.911 -13.814  14.715  0.00  0.00    -0.205 F 
ATOM     26  C   UNL     1      -2.610 -11.465  14.517  0.00  0.00    +0.072 A 
ATOM     27  C   UNL     1      -2.736 -12.731  13.944  0.00  0.00    +0.135 A 
ATOM     28  C   UNL     1      -2.429 -10.347  13.704  0.00  0.00    +0.016 A 
ATOM     29  C   UNL     1      -2.679 -12.878  12.558  0.00  0.00    +0.039 A 
ATOM     30  C   UNL     1      -2.373 -10.493  12.318  0.00  0.00    +0.001 A 
ATOM     31  C   UNL     1      -2.498 -11.758  11.745  0.00  0.00    +0.003 A 
ENDBRANCH  25  26
ENDBRANCH  16   7
ENDBRANCH  11  16
TORSDOF 8
ENDMDL
MODEL 7
REMARK VINA RESULT:      -6.9     33.002     37.754
REMARK  Name = 75367037
REMARK  8 active torsions:
REMARK  status: ('A' for Active; 'I' for Inactive)
REMARK    1  A    between atoms: O_3  and  C_12
REMARK    2  A    between atoms: N_6  and  C_18
REMARK    3  A    between atoms: N_7  and  C_16
REMARK    4  A    between atoms: C_10  and  C_15
REMARK    5  A    between atoms: C_11  and  C_16
REMARK    6  A    between atoms: C_15  and  C_17
REMARK    7  A    between atoms: C_18  and  C_21
REMARK    8  A    between atoms: C_25  and  C_26
REMARK                            x       y       z     vdW  Elec       q    Type
REMARK                         _______ _______ _______ _____ _____    ______ ____
ROOT
ATOM      2  O   UNL     1      12.803   2.779   0.409  0.00  0.00    -0.369 OA
ATOM     10  C   UNL     1      12.921   3.472  -0.837  0.00  0.00    +0.125 C 
ATOM     11  C   UNL     1      13.105   3.562   1.572  0.00  0.00    +0.164 C 
ATOM     12  C   UNL     1      14.504   4.185   1.479  0.00  0.00    +0.145 C 
ATOM     13  C   UNL     1      14.338   4.009  -1.024  0.00  0.00    +0.034 C 
ATOM     14  C   UNL     1      14.735   4.899   0.150  0.00  0.00    +0.036 C 
ENDROOT
BRANCH  12   3
ATOM      3  O   UNL     1      15.479   3.145   1.591  0.00  0.00    -0.389 OA
ATOM     32  H   UNL     1      15.016   2.336   1.867  0.00  0.00    +0.210 HD
ENDBRANCH  12   3
BRANCH  10  15
ATOM     15  C   UNL     1      12.563   2.487  -1.943  0.00  0.00    +0.090 C 
BRANCH  15  17
ATOM      4  O   UNL     1       9.277   2.626  -3.415  0.00  0.00    -0.358 OA
ATOM      9  N   UNL     1      10.297   1.963  -2.745  0.00  0.00    -0.083 NA
ATOM     17  C   UNL     1      11.278   2.862  -2.631  0.00  0.00    +0.086 A 
ATOM     21  C   UNL     1       9.670   3.897  -3.683  0.00  0.00    +0.151 A 
ATOM     22  C   UNL     1      10.937   4.099  -3.205  0.00  0.00    +0.072 A 
BRANCH  21  18
ATOM     18  C   UNL     1       8.705   4.745  -4.394  0.00  0.00    +0.161 C 
BRANCH  18   6
ATOM      6  N   UNL     1       8.020   5.697  -3.521  0.00  0.00    -0.293 NA
ATOM      8  N   UNL     1       6.690   8.214  -2.980  0.00  0.00    -0.314 NA
ATOM     19  C   UNL     1       6.655   5.954  -3.997  0.00  0.00    +0.100 C 
ATOM     20  C   UNL     1       8.777   6.951  -3.421  0.00  0.00    +0.100 C 
ATOM     23  C   UNL     1       5.944   6.959  -3.087  0.00  0.00    +0.096 C 
ATOM     24  C   UNL     1       8.054   7.950  -2.514  0.00  0.00    +0.096 C 
ATOM     34  H   UNL     1       6.220   8.835  -2.321  0.00  0.00    +0.122 HD
ENDBRANCH  18   6
ENDBRANCH  21  18
ENDBRANCH  15  17
ENDBRANCH  10  15
BRANCH  11  16
ATOM     16  C   UNL     1      12.010   4.592   1.840  0.00  0.00    +0.138 C 
BRANCH  16   7
ATOM      5  O   UNL     1      10.034   6.263   3.085  0.00  0.00    -0.270 OA
ATOM      7  N   UNL     1      11.785   4.749   3.244  0.00  0.00    -0.309 N 
ATOM     25  C   UNL     1      10.799   5.585   3.765  0.00  0.00    +0.247 C 
ATOM     33  H   UNL     1      12.417   4.263   3.873  0.00  0.00    +0.149 HD
BRANCH  25  26
ATOM      1  F   UNL     1      12.372   7.355   5.307  0.00  0.00    -0.205 F 
ATOM     26  C   UNL     1      10.712   5.657   5.246  0.00  0.00    +0.072 A 
ATOM     27  C   UNL     1      11.515   6.553   5.953  0.00  0.00    +0.135 A 
ATOM     28  C   UNL     1       9.823   4.828   5.930  0.00  0.00    +0.016 A 
ATOM     29  C   UNL     1      11.429   6.618   7.344  0.00  0.00    +0.039 A 
ATOM     30  C   UNL     1       9.737   4.894   7.321  0.00  0.00    +0.001 A 
ATOM     31  C   UNL     1      10.540   5.788   8.027  0.00  0.00    +0.003 A 
ENDBRANCH  25  26
ENDBRANCH  16   7
ENDBRANCH  11  16
TORSDOF 8
ENDMDL
MODEL 8
REMARK VINA RESULT:      -6.8     18.660     21.556
REMARK  Name = 75367037
REMARK  8 active torsions:
REMARK  status: ('A' for Active; 'I' for Inactive)
REMARK    1  A    between atoms: O_3  and  C_12
REMARK    2  A    between atoms: N_6  and  C_18
REMARK    3  A    between atoms: N_7  and  C_16
REMARK    4  A    between atoms: C_10  and  C_15
REMARK    5  A    between atoms: C_11  and  C_16
REMARK    6  A    between atoms: C_15  and  C_17
REMARK    7  A    between atoms: C_18  and  C_21
REMARK    8  A    between atoms: C_25  and  C_26
REMARK                            x       y       z     vdW  Elec       q    Type
REMARK                         _______ _______ _______ _____ _____    ______ ____
ROOT
ATOM      2  O   UNL     1      -6.720 -11.555  17.153  0.00  0.00    -0.369 OA
ATOM     10  C   UNL     1      -5.332 -11.342  17.428  0.00  0.00    +0.125 C 
ATOM     11  C   UNL     1      -7.618 -10.666  17.830  0.00  0.00    +0.164 C 
ATOM     12  C   UNL     1      -7.400 -10.700  19.349  0.00  0.00    +0.145 C 
ATOM     13  C   UNL     1      -5.050 -11.485  18.922  0.00  0.00    +0.034 C 
ATOM     14  C   UNL     1      -5.932 -10.536  19.729  0.00  0.00    +0.036 C 
ENDROOT
BRANCH  12   3
ATOM      3  O   UNL     1      -7.843 -11.965  19.848  0.00  0.00    -0.389 OA
ATOM     32  H   UNL     1      -8.022 -12.536  19.083  0.00  0.00    +0.210 HD
ENDBRANCH  12   3
BRANCH  10  15
ATOM     15  C   UNL     1      -4.545 -12.371  16.626  0.00  0.00    +0.090 C 
BRANCH  15  17
ATOM      4  O   UNL     1      -2.265 -10.382  14.667  0.00  0.00    -0.358 OA
ATOM      9  N   UNL     1      -2.860 -10.745  15.869  0.00  0.00    -0.083 NA
ATOM     17  C   UNL     1      -3.712 -11.723  15.552  0.00  0.00    +0.086 A 
ATOM     21  C   UNL     1      -2.772 -11.147  13.668  0.00  0.00    +0.151 A 
ATOM     22  C   UNL     1      -3.698 -12.018  14.177  0.00  0.00    +0.072 A 
BRANCH  21  18
ATOM     18  C   UNL     1      -2.249 -10.894  12.320  0.00  0.00    +0.161 C 
BRANCH  18   6
ATOM      6  N   UNL     1      -3.292 -10.569  11.348  0.00  0.00    -0.293 NA
ATOM      8  N   UNL     1      -4.302 -10.246   8.651  0.00  0.00    -0.314 NA
ATOM     19  C   UNL     1      -3.604 -11.732  10.509  0.00  0.00    +0.100 C 
ATOM     20  C   UNL     1      -2.893  -9.425  10.518  0.00  0.00    +0.100 C 
ATOM     23  C   UNL     1      -4.689 -11.386   9.485  0.00  0.00    +0.096 C 
ATOM     24  C   UNL     1      -3.982  -9.092   9.494  0.00  0.00    +0.096 C 
ATOM     34  H   UNL     1      -5.070 -10.007   8.024  0.00  0.00    +0.122 HD
ENDBRANCH  18   6
ENDBRANCH  21  18
ENDBRANCH  15  17
ENDBRANCH  10  15
BRANCH  11  16
ATOM     16  C   UNL     1      -7.538  -9.256  17.248  0.00  0.00    +0.138 C 
BRANCH  16   7
ATOM      5  O   UNL     1      -9.100  -9.128  14.842  0.00  0.00    -0.270 OA
ATOM      7  N   UNL     1      -8.842  -8.685  17.105  0.00  0.00    -0.309 N 
ATOM     25  C   UNL     1      -9.532  -8.665  15.894  0.00  0.00    +0.247 C 
ATOM     33  H   UNL     1      -9.243  -8.231  17.920  0.00  0.00    +0.149 HD
BRANCH  25  26
ATOM      1  F   UNL     1      -9.891  -5.911  15.371  0.00  0.00    -0.205 F 
ATOM     26  C   UNL     1     -10.866  -8.011  15.906  0.00  0.00    +0.072 A 
ATOM     27  C   UNL     1     -10.980  -6.646  15.640  0.00  0.00    +0.135 A 
ATOM     28  C   UNL     1     -12.006  -8.765  16.183  0.00  0.00    +0.016 A 
ATOM     29  C   UNL     1     -12.234  -6.036  15.652  0.00  0.00    +0.039 A 
ATOM     30  C   UNL     1     -13.260  -8.155  16.195  0.00  0.00    +0.001 A 
ATOM     31  C   UNL     1     -13.374  -6.791  15.930  0.00  0.00    +0.003 A 
ENDBRANCH  25  26
ENDBRANCH  16   7
ENDBRANCH  11  16
TORSDOF 8
ENDMDL
MODEL 9
REMARK VINA RESULT:      -6.7     29.969     33.204
REMARK  Name = 75367037
REMARK  8 active torsions:
REMARK  status: ('A' for Active; 'I' for Inactive)
REMARK    1  A    between atoms: O_3  and  C_12
REMARK    2  A    between atoms: N_6  and  C_18
REMARK    3  A    between atoms: N_7  and  C_16
REMARK    4  A    between atoms: C_10  and  C_15
REMARK    5  A    between atoms: C_11  and  C_16
REMARK    6  A    between atoms: C_15  and  C_17
REMARK    7  A    between atoms: C_18  and  C_21
REMARK    8  A    between atoms: C_25  and  C_26
REMARK                            x       y       z     vdW  Elec       q    Type
REMARK                         _______ _______ _______ _____ _____    ______ ____
ROOT
ATOM      2  O   UNL     1      10.318   7.204   6.017  0.00  0.00    -0.369 OA
ATOM     10  C   UNL     1       9.092   7.614   6.631  0.00  0.00    +0.125 C 
ATOM     11  C   UNL     1      10.561   5.792   6.025  0.00  0.00    +0.164 C 
ATOM     12  C   UNL     1      10.503   5.222   7.449  0.00  0.00    +0.145 C 
ATOM     13  C   UNL     1       9.045   7.168   8.091  0.00  0.00    +0.034 C 
ATOM     14  C   UNL     1       9.248   5.659   8.199  0.00  0.00    +0.036 C 
ENDROOT
BRANCH  12   3
ATOM      3  O   UNL     1      11.637   5.697   8.180  0.00  0.00    -0.389 OA
ATOM     32  H   UNL     1      11.332   6.414   8.762  0.00  0.00    +0.210 HD
ENDBRANCH  12   3
BRANCH  10  15
ATOM     15  C   UNL     1       9.012   9.131   6.524  0.00  0.00    +0.090 C 
BRANCH  15  17
ATOM      4  O   UNL     1      11.723  10.444   8.503  0.00  0.00    -0.358 OA
ATOM      9  N   UNL     1      11.224   9.715   7.430  0.00  0.00    -0.083 NA
ATOM     17  C   UNL     1       9.896   9.810   7.536  0.00  0.00    +0.086 A 
ATOM     21  C   UNL     1      10.689  10.953   9.219  0.00  0.00    +0.151 A 
ATOM     22  C   UNL     1       9.503  10.579   8.646  0.00  0.00    +0.072 A 
BRANCH  21  18
ATOM     18  C   UNL     1      11.040  11.756  10.396  0.00  0.00    +0.161 C 
BRANCH  18   6
ATOM      6  N   UNL     1       9.876  12.189  11.167  0.00  0.00    -0.293 NA
ATOM      8  N   UNL     1       8.532  13.910  13.073  0.00  0.00    -0.314 NA
ATOM     19  C   UNL     1       9.501  13.565  10.817  0.00  0.00    +0.100 C 
ATOM     20  C   UNL     1      10.133  12.075  12.608  0.00  0.00    +0.100 C 
ATOM     23  C   UNL     1       8.288  14.019  11.633  0.00  0.00    +0.096 C 
ATOM     24  C   UNL     1       8.917  12.539  13.414  0.00  0.00    +0.096 C 
ATOM     34  H   UNL     1       7.686  14.164  13.583  0.00  0.00    +0.122 HD
ENDBRANCH  18   6
ENDBRANCH  21  18
ENDBRANCH  15  17
ENDBRANCH  10  15
BRANCH  11  16
ATOM     16  C   UNL     1       9.629   5.068   5.055  0.00  0.00    +0.138 C 
BRANCH  16   7
ATOM      5  O   UNL     1      10.293   6.466   2.636  0.00  0.00    -0.270 OA
ATOM      7  N   UNL     1      10.355   4.546   3.938  0.00  0.00    -0.309 N 
ATOM     25  C   UNL     1      10.634   5.298   2.798  0.00  0.00    +0.247 C 
ATOM     33  H   UNL     1      10.622   3.567   3.974  0.00  0.00    +0.149 HD
BRANCH  25  26
ATOM      1  F   UNL     1       9.564   4.918   0.211  0.00  0.00    -0.205 F 
ATOM     26  C   UNL     1      11.375   4.601   1.715  0.00  0.00    +0.072 A 
ATOM     27  C   UNL     1      10.794   4.445   0.457  0.00  0.00    +0.135 A 
ATOM     28  C   UNL     1      12.656   4.105   1.958  0.00  0.00    +0.016 A 
ATOM     29  C   UNL     1      11.493   3.791  -0.557  0.00  0.00    +0.039 A 
ATOM     30  C   UNL     1      13.355   3.451   0.944  0.00  0.00    +0.001 A 
ATOM     31  C   UNL     1      12.774   3.294  -0.314  0.00  0.00    +0.003 A 
ENDBRANCH  25  26
ENDBRANCH  16   7
ENDBRANCH  11  16
TORSDOF 8
ENDMDL
MODEL 10
REMARK VINA RESULT:      -6.7     27.569     31.494
REMARK  Name = 75367037
REMARK  8 active torsions:
REMARK  status: ('A' for Active; 'I' for Inactive)
REMARK    1  A    between atoms: O_3  and  C_12
REMARK    2  A    between atoms: N_6  and  C_18
REMARK    3  A    between atoms: N_7  and  C_16
REMARK    4  A    between atoms: C_10  and  C_15
REMARK    5  A    between atoms: C_11  and  C_16
REMARK    6  A    between atoms: C_15  and  C_17
REMARK    7  A    between atoms: C_18  and  C_21
REMARK    8  A    between atoms: C_25  and  C_26
REMARK                            x       y       z     vdW  Elec       q    Type
REMARK                         _______ _______ _______ _____ _____    ______ ____
ROOT
ATOM      2  O   UNL     1      15.437  11.157  16.189  0.00  0.00    -0.369 OA
ATOM     10  C   UNL     1      14.101  11.291  15.696  0.00  0.00    +0.125 C 
ATOM     11  C   UNL     1      15.982  12.334  16.800  0.00  0.00    +0.164 C 
ATOM     12  C   UNL     1      15.921  13.537  15.849  0.00  0.00    +0.145 C 
ATOM     13  C   UNL     1      14.019  12.405  14.655  0.00  0.00    +0.034 C 
ATOM     14  C   UNL     1      14.538  13.720  15.232  0.00  0.00    +0.036 C 
ENDROOT
BRANCH  12   3
ATOM      3  O   UNL     1      16.851  13.329  14.783  0.00  0.00    -0.389 OA
ATOM     32  H   UNL     1      16.652  12.465  14.384  0.00  0.00    +0.210 HD
ENDBRANCH  12   3
BRANCH  10  15
ATOM     15  C   UNL     1      13.701   9.952  15.091  0.00  0.00    +0.090 C 
BRANCH  15  17
ATOM      4  O   UNL     1      11.469   7.898  17.035  0.00  0.00    -0.358 OA
ATOM      9  N   UNL     1      11.756   8.713  15.948  0.00  0.00    -0.083 NA
ATOM     17  C   UNL     1      13.037   9.057  16.103  0.00  0.00    +0.086 A 
ATOM     21  C   UNL     1      12.577   7.775  17.809  0.00  0.00    +0.151 A 
ATOM     22  C   UNL     1      13.605   8.494  17.260  0.00  0.00    +0.072 A 
BRANCH  21  18
ATOM     18  C   UNL     1      12.449   6.941  19.010  0.00  0.00    +0.161 C 
BRANCH  18   6
ATOM      6  N   UNL     1      11.500   7.475  19.985  0.00  0.00    -0.293 NA
ATOM      8  N   UNL     1      10.796   8.586  22.567  0.00  0.00    -0.314 NA
ATOM     19  C   UNL     1      11.834   8.862  20.333  0.00  0.00    +0.100 C 
ATOM     20  C   UNL     1      11.460   6.636  21.189  0.00  0.00    +0.100 C 
ATOM     23  C   UNL     1      10.844   9.415  21.362  0.00  0.00    +0.096 C 
ATOM     24  C   UNL     1      10.473   7.202  22.213  0.00  0.00    +0.096 C 
ATOM     34  H   UNL     1      10.086   8.949  23.203  0.00  0.00    +0.122 HD
ENDBRANCH  18   6
ENDBRANCH  21  18
ENDBRANCH  15  17
ENDBRANCH  10  15
BRANCH  11  16
ATOM     16  C   UNL     1      15.324  12.607  18.151  0.00  0.00    +0.138 C 
BRANCH  16   7
ATOM      5  O   UNL     1      17.101  11.511  20.122  0.00  0.00    -0.270 OA
ATOM      7  N   UNL     1      15.140  11.394  18.887  0.00  0.00    -0.309 N 
ATOM     25  C   UNL     1      16.057  10.934  19.830  0.00  0.00    +0.247 C 
ATOM     33  H   UNL     1      14.326  10.831  18.659  0.00  0.00    +0.149 HD
BRANCH  25  26
ATOM      1  F   UNL     1      14.702  10.779  22.304  0.00  0.00    -0.205 F 
ATOM     26  C   UNL     1      15.732   9.643  20.489  0.00  0.00    +0.072 A 
ATOM     27  C   UNL     1      15.060   9.630  21.712  0.00  0.00    +0.135 A 
ATOM     28  C   UNL     1      16.099   8.442  19.883  0.00  0.00    +0.016 A 
ATOM     29  C   UNL     1      14.757   8.417  22.328  0.00  0.00    +0.039 A 
ATOM     30  C   UNL     1      15.795   7.228  20.499  0.00  0.00    +0.001 A 
ATOM     31  C   UNL     1      15.124   7.215  21.721  0.00  0.00    +0.003 A 
ENDBRANCH  25  26
ENDBRANCH  16   7
ENDBRANCH  11  16
TORSDOF 8
ENDMDL
