MODEL 1
REMARK VINA RESULT:      -7.9      0.000      0.000
REMARK  Name = 40779807
REMARK  5 active torsions:
REMARK  status: ('A' for Active; 'I' for Inactive)
REMARK    1  A    between atoms: N_3  and  C_15
REMARK    2  A    between atoms: N_4  and  C_16
REMARK    3  A    between atoms: C_9  and  C_15
REMARK    4  A    between atoms: C_10  and  C_16
REMARK    5  A    between atoms: C_21  and  C_23
REMARK                            x       y       z     vdW  Elec       q    Type
REMARK                         _______ _______ _______ _____ _____    ______ ____
ROOT
ATOM      2  N   UNL     1      12.077   7.346  18.713  0.00  0.00    -0.298 NA
ATOM      8  C   UNL     1      13.856   9.217  18.393  0.00  0.00    -0.003 C 
ATOM      9  C   UNL     1      14.463   7.997  19.124  0.00  0.00    +0.020 C 
ATOM     10  C   UNL     1      11.553   8.640  19.227  0.00  0.00    +0.074 C 
ATOM     11  C   UNL     1      12.643   9.735  19.187  0.00  0.00    +0.024 C 
ATOM     12  C   UNL     1      13.333   6.984  19.415  0.00  0.00    +0.089 C 
ATOM     13  C   UNL     1      13.331   8.709  17.036  0.00  0.00    +0.019 C 
ATOM     14  C   UNL     1      12.385   7.518  17.272  0.00  0.00    +0.085 C 
ENDROOT
BRANCH   9  15
ATOM     15  C   UNL     1      15.222   8.374  20.394  0.00  0.00    +0.089 C 
BRANCH  15   3
ATOM      3  N   UNL     1      16.625   7.969  20.308  0.00  0.00    -0.299 NA
ATOM      5  N   UNL     1      18.973   6.523  21.054  0.00  0.00    -0.297 N 
ATOM      6  N   UNL     1      20.569   4.912  20.500  0.00  0.00    -0.223 NA
ATOM      7  N   UNL     1      20.850   6.327  22.430  0.00  0.00    -0.223 NA
ATOM     17  C   UNL     1      16.730   6.531  20.034  0.00  0.00    +0.103 C 
ATOM     18  C   UNL     1      17.332   8.294  21.553  0.00  0.00    +0.103 C 
ATOM     19  C   UNL     1      18.192   6.105  19.886  0.00  0.00    +0.123 C 
ATOM     20  C   UNL     1      18.814   7.928  21.453  0.00  0.00    +0.123 C 
ATOM     22  C   UNL     1      20.188   5.891  21.342  0.00  0.00    +0.218 A 
ATOM     26  C   UNL     1      21.744   4.324  20.805  0.00  0.00    +0.116 A 
ATOM     27  C   UNL     1      22.017   5.696  22.677  0.00  0.00    +0.116 A 
ATOM     28  C   UNL     1      22.518   4.678  21.892  0.00  0.00    +0.039 A 
ENDBRANCH  15   3
ENDBRANCH   9  15
BRANCH  10  16
ATOM     16  C   UNL     1      10.933   8.507  20.620  0.00  0.00    +0.123 C 
BRANCH  16   4
ATOM      1  O   UNL     1      10.945   8.890  23.466  0.00  0.00    -0.270 OA
ATOM      4  N   UNL     1      10.963   9.757  21.313  0.00  0.00    -0.310 N 
ATOM     21  C   UNL     1      10.967   9.854  22.704  0.00  0.00    +0.244 C 
ATOM     32  H   UNL     1      10.920  10.596  20.744  0.00  0.00    +0.149 HD
BRANCH  21  23
ATOM     23  C   UNL     1      10.972  11.227  23.271  0.00  0.00    +0.037 A 
ATOM     24  C   UNL     1      10.978  11.412  24.653  0.00  0.00    +0.013 A 
ATOM     25  C   UNL     1      10.974  12.332  22.420  0.00  0.00    +0.013 A 
ATOM     29  C   UNL     1      10.984  12.701  25.185  0.00  0.00    +0.001 A 
ATOM     30  C   UNL     1      10.980  13.621  22.950  0.00  0.00    +0.001 A 
ATOM     31  C   UNL     1      10.986  13.806  24.333  0.00  0.00    +0.000 A 
ENDBRANCH  21  23
ENDBRANCH  16   4
ENDBRANCH  10  16
TORSDOF 5
ENDMDL
MODEL 2
REMARK VINA RESULT:      -7.7      3.896      8.446
REMARK  Name = 40779807
REMARK  5 active torsions:
REMARK  status: ('A' for Active; 'I' for Inactive)
REMARK    1  A    between atoms: N_3  and  C_15
REMARK    2  A    between atoms: N_4  and  C_16
REMARK    3  A    between atoms: C_9  and  C_15
REMARK    4  A    between atoms: C_10  and  C_16
REMARK    5  A    between atoms: C_21  and  C_23
REMARK                            x       y       z     vdW  Elec       q    Type
REMARK                         _______ _______ _______ _____ _____    ______ ____
ROOT
ATOM      2  N   UNL     1      11.158   8.519  20.902  0.00  0.00    -0.298 NA
ATOM      8  C   UNL     1      12.997  10.126  21.798  0.00  0.00    -0.003 C 
ATOM      9  C   UNL     1      12.723  10.382  20.297  0.00  0.00    +0.020 C 
ATOM     10  C   UNL     1      12.225   7.740  21.588  0.00  0.00    +0.074 C 
ATOM     11  C   UNL     1      13.402   8.653  21.997  0.00  0.00    +0.024 C 
ATOM     12  C   UNL     1      11.734   9.310  19.788  0.00  0.00    +0.089 C 
ATOM     13  C   UNL     1      11.663  10.337  22.539  0.00  0.00    +0.019 C 
ATOM     14  C   UNL     1      10.577   9.463  21.888  0.00  0.00    +0.085 C 
ENDROOT
BRANCH   9  15
ATOM     15  C   UNL     1      13.993  10.425  19.452  0.00  0.00    +0.089 C 
BRANCH  15   3
ATOM      3  N   UNL     1      13.740  11.047  18.153  0.00  0.00    -0.299 NA
ATOM      5  N   UNL     1      14.419  12.068  15.574  0.00  0.00    -0.297 N 
ATOM      6  N   UNL     1      14.238  11.876  13.254  0.00  0.00    -0.223 NA
ATOM      7  N   UNL     1      15.218  13.831  14.265  0.00  0.00    -0.223 NA
ATOM     17  C   UNL     1      14.102  10.133  17.064  0.00  0.00    +0.103 C 
ATOM     18  C   UNL     1      14.495  12.300  18.026  0.00  0.00    +0.103 C 
ATOM     19  C   UNL     1      13.789  10.751  15.700  0.00  0.00    +0.123 C 
ATOM     20  C   UNL     1      14.192  12.990  16.695  0.00  0.00    +0.123 C 
ATOM     22  C   UNL     1      14.635  12.618  14.305  0.00  0.00    +0.218 A 
ATOM     26  C   UNL     1      14.460  12.434  12.046  0.00  0.00    +0.116 A 
ATOM     27  C   UNL     1      15.411  14.329  13.026  0.00  0.00    +0.116 A 
ATOM     28  C   UNL     1      15.049  13.669  11.870  0.00  0.00    +0.039 A 
ENDBRANCH  15   3
ENDBRANCH   9  15
BRANCH  10  16
ATOM     16  C   UNL     1      12.697   6.543  20.760  0.00  0.00    +0.123 C 
BRANCH  16   4
ATOM      1  O   UNL     1      14.596   7.118  18.685  0.00  0.00    -0.270 OA
ATOM      4  N   UNL     1      14.117   6.397  20.838  0.00  0.00    -0.310 N 
ATOM     21  C   UNL     1      14.970   6.700  19.778  0.00  0.00    +0.244 C 
ATOM     32  H   UNL     1      14.488   5.997  21.693  0.00  0.00    +0.149 HD
BRANCH  21  23
ATOM     23  C   UNL     1      16.419   6.468  20.009  0.00  0.00    +0.037 A 
ATOM     24  C   UNL     1      17.164   5.730  19.090  0.00  0.00    +0.013 A 
ATOM     25  C   UNL     1      17.036   6.992  21.145  0.00  0.00    +0.013 A 
ATOM     29  C   UNL     1      18.525   5.515  19.306  0.00  0.00    +0.001 A 
ATOM     30  C   UNL     1      18.396   6.776  21.363  0.00  0.00    +0.001 A 
ATOM     31  C   UNL     1      19.141   6.039  20.443  0.00  0.00    +0.000 A 
ENDBRANCH  21  23
ENDBRANCH  16   4
ENDBRANCH  10  16
TORSDOF 5
ENDMDL
MODEL 3
REMARK VINA RESULT:      -7.6     15.924     19.945
REMARK  Name = 40779807
REMARK  5 active torsions:
REMARK  status: ('A' for Active; 'I' for Inactive)
REMARK    1  A    between atoms: N_3  and  C_15
REMARK    2  A    between atoms: N_4  and  C_16
REMARK    3  A    between atoms: C_9  and  C_15
REMARK    4  A    between atoms: C_10  and  C_16
REMARK    5  A    between atoms: C_21  and  C_23
REMARK                            x       y       z     vdW  Elec       q    Type
REMARK                         _______ _______ _______ _____ _____    ______ ____
ROOT
ATOM      2  N   UNL     1      10.009   6.742   7.483  0.00  0.00    -0.298 NA
ATOM      8  C   UNL     1       9.741   5.084   5.496  0.00  0.00    -0.003 C 
ATOM      9  C   UNL     1      11.058   5.886   5.373  0.00  0.00    +0.020 C 
ATOM     10  C   UNL     1       8.680   6.928   6.840  0.00  0.00    +0.074 C 
ATOM     11  C   UNL     1       8.554   6.062   5.566  0.00  0.00    +0.024 C 
ATOM     12  C   UNL     1      11.093   6.949   6.493  0.00  0.00    +0.089 C 
ATOM     13  C   UNL     1       9.797   4.336   6.843  0.00  0.00    +0.019 C 
ATOM     14  C   UNL     1      10.088   5.342   7.970  0.00  0.00    +0.085 C 
ENDROOT
BRANCH   9  15
ATOM     15  C   UNL     1      11.255   6.512   3.995  0.00  0.00    +0.089 C 
BRANCH  15   3
ATOM      3  N   UNL     1      11.119   5.511   2.938  0.00  0.00    -0.299 NA
ATOM      5  N   UNL     1      11.259   4.498   0.271  0.00  0.00    -0.297 N 
ATOM      6  N   UNL     1      12.255   3.023  -1.241  0.00  0.00    -0.223 NA
ATOM      7  N   UNL     1      10.276   4.263  -1.835  0.00  0.00    -0.223 NA
ATOM     17  C   UNL     1      12.418   5.242   2.313  0.00  0.00    +0.103 C 
ATOM     18  C   UNL     1      10.159   5.960   1.922  0.00  0.00    +0.103 C 
ATOM     19  C   UNL     1      12.301   4.154   1.243  0.00  0.00    +0.123 C 
ATOM     20  C   UNL     1       9.965   4.895   0.842  0.00  0.00    +0.123 C 
ATOM     22  C   UNL     1      11.263   3.900  -0.994  0.00  0.00    +0.218 A 
ATOM     26  C   UNL     1      12.230   2.465  -2.469  0.00  0.00    +0.116 A 
ATOM     27  C   UNL     1      10.312   3.668  -3.046  0.00  0.00    +0.116 A 
ATOM     28  C   UNL     1      11.274   2.753  -3.422  0.00  0.00    +0.039 A 
ENDBRANCH  15   3
ENDBRANCH   9  15
BRANCH  10  16
ATOM     16  C   UNL     1       8.369   8.400   6.558  0.00  0.00    +0.123 C 
BRANCH  16   4
ATOM      1  O   UNL     1       7.777  10.870   5.219  0.00  0.00    -0.270 OA
ATOM      4  N   UNL     1       7.721   8.551   5.293  0.00  0.00    -0.310 N 
ATOM     21  C   UNL     1       7.471   9.793   4.712  0.00  0.00    +0.244 C 
ATOM     32  H   UNL     1       7.385   7.703   4.848  0.00  0.00    +0.149 HD
BRANCH  21  23
ATOM     23  C   UNL     1       6.764   9.782   3.406  0.00  0.00    +0.037 A 
ATOM     24  C   UNL     1       5.414  10.130   3.339  0.00  0.00    +0.013 A 
ATOM     25  C   UNL     1       7.450   9.427   2.245  0.00  0.00    +0.013 A 
ATOM     29  C   UNL     1       4.752  10.121   2.112  0.00  0.00    +0.001 A 
ATOM     30  C   UNL     1       6.788   9.417   1.018  0.00  0.00    +0.001 A 
ATOM     31  C   UNL     1       5.439   9.764   0.951  0.00  0.00    +0.000 A 
ENDBRANCH  21  23
ENDBRANCH  16   4
ENDBRANCH  10  16
TORSDOF 5
ENDMDL
MODEL 4
REMARK VINA RESULT:      -7.4      3.367     11.012
REMARK  Name = 40779807
REMARK  5 active torsions:
REMARK  status: ('A' for Active; 'I' for Inactive)
REMARK    1  A    between atoms: N_3  and  C_15
REMARK    2  A    between atoms: N_4  and  C_16
REMARK    3  A    between atoms: C_9  and  C_15
REMARK    4  A    between atoms: C_10  and  C_16
REMARK    5  A    between atoms: C_21  and  C_23
REMARK                            x       y       z     vdW  Elec       q    Type
REMARK                         _______ _______ _______ _____ _____    ______ ____
ROOT
ATOM      2  N   UNL     1      21.049   6.280  22.538  0.00  0.00    -0.298 NA
ATOM      8  C   UNL     1      19.976   8.455  21.597  0.00  0.00    -0.003 C 
ATOM      9  C   UNL     1      18.979   7.275  21.532  0.00  0.00    +0.020 C 
ATOM     10  C   UNL     1      21.934   6.879  21.502  0.00  0.00    +0.074 C 
ATOM     11  C   UNL     1      21.253   8.087  20.820  0.00  0.00    +0.024 C 
ATOM     12  C   UNL     1      19.713   5.986  21.965  0.00  0.00    +0.089 C 
ATOM     13  C   UNL     1      20.373   8.624  23.076  0.00  0.00    +0.019 C 
ATOM     14  C   UNL     1      20.878   7.278  23.622  0.00  0.00    +0.085 C 
ENDROOT
BRANCH   9  15
ATOM     15  C   UNL     1      18.323   7.116  20.163  0.00  0.00    +0.089 C 
BRANCH  15   3
ATOM      3  N   UNL     1      16.919   7.523  20.202  0.00  0.00    -0.299 NA
ATOM      5  N   UNL     1      14.235   7.543  21.181  0.00  0.00    -0.297 N 
ATOM      6  N   UNL     1      12.514   8.725  22.226  0.00  0.00    -0.223 NA
ATOM      7  N   UNL     1      12.108   6.578  21.210  0.00  0.00    -0.223 NA
ATOM     17  C   UNL     1      16.601   8.155  21.488  0.00  0.00    +0.103 C 
ATOM     18  C   UNL     1      16.040   6.368  19.983  0.00  0.00    +0.103 C 
ATOM     19  C   UNL     1      15.149   8.637  21.522  0.00  0.00    +0.123 C 
ATOM     20  C   UNL     1      14.570   6.792  19.964  0.00  0.00    +0.123 C 
ATOM     22  C   UNL     1      12.889   7.619  21.556  0.00  0.00    +0.218 A 
ATOM     26  C   UNL     1      11.211   8.766  22.573  0.00  0.00    +0.116 A 
ATOM     27  C   UNL     1      10.817   6.685  21.588  0.00  0.00    +0.116 A 
ATOM     28  C   UNL     1      10.307   7.765  22.279  0.00  0.00    +0.039 A 
ENDBRANCH  15   3
ENDBRANCH   9  15
BRANCH  10  16
ATOM     16  C   UNL     1      22.415   5.847  20.479  0.00  0.00    +0.123 C 
BRANCH  16   4
ATOM      1  O   UNL     1      21.410   3.181  20.837  0.00  0.00    -0.270 OA
ATOM      4  N   UNL     1      23.085   4.762  21.125  0.00  0.00    -0.310 N 
ATOM     21  C   UNL     1      22.522   3.493  21.256  0.00  0.00    +0.244 C 
ATOM     32  H   UNL     1      23.983   4.967  21.550  0.00  0.00    +0.149 HD
BRANCH  21  23
ATOM     23  C   UNL     1      23.335   2.481  21.978  0.00  0.00    +0.037 A 
ATOM     24  C   UNL     1      23.277   2.402  23.370  0.00  0.00    +0.013 A 
ATOM     25  C   UNL     1      24.153   1.607  21.264  0.00  0.00    +0.013 A 
ATOM     29  C   UNL     1      24.039   1.450  24.047  0.00  0.00    +0.001 A 
ATOM     30  C   UNL     1      24.916   0.655  21.940  0.00  0.00    +0.001 A 
ATOM     31  C   UNL     1      24.859   0.576  23.332  0.00  0.00    +0.000 A 
ENDBRANCH  21  23
ENDBRANCH  16   4
ENDBRANCH  10  16
TORSDOF 5
ENDMDL
MODEL 5
REMARK VINA RESULT:      -7.2      3.408      8.016
REMARK  Name = 40779807
REMARK  5 active torsions:
REMARK  status: ('A' for Active; 'I' for Inactive)
REMARK    1  A    between atoms: N_3  and  C_15
REMARK    2  A    between atoms: N_4  and  C_16
REMARK    3  A    between atoms: C_9  and  C_15
REMARK    4  A    between atoms: C_10  and  C_16
REMARK    5  A    between atoms: C_21  and  C_23
REMARK                            x       y       z     vdW  Elec       q    Type
REMARK                         _______ _______ _______ _____ _____    ______ ____
ROOT
ATOM      2  N   UNL     1      13.384   7.158  21.027  0.00  0.00    -0.298 NA
ATOM      8  C   UNL     1      11.139   8.471  20.973  0.00  0.00    -0.003 C 
ATOM      9  C   UNL     1      11.808   8.463  19.578  0.00  0.00    +0.020 C 
ATOM     10  C   UNL     1      13.368   8.184  22.105  0.00  0.00    +0.074 C 
ATOM     11  C   UNL     1      12.112   9.077  22.001  0.00  0.00    +0.024 C 
ATOM     12  C   UNL     1      13.198   7.799  19.703  0.00  0.00    +0.089 C 
ATOM     13  C   UNL     1      10.915   6.999  21.369  0.00  0.00    +0.019 C 
ATOM     14  C   UNL     1      12.246   6.235  21.259  0.00  0.00    +0.085 C 
ENDROOT
BRANCH   9  15
ATOM     15  C   UNL     1      11.901   9.850  18.948  0.00  0.00    +0.089 C 
BRANCH  15   3
ATOM      3  N   UNL     1      13.042   9.939  18.038  0.00  0.00    -0.299 NA
ATOM      5  N   UNL     1      14.607  11.038  15.916  0.00  0.00    -0.297 N 
ATOM      6  N   UNL     1      16.568  12.116  15.251  0.00  0.00    -0.223 NA
ATOM      7  N   UNL     1      15.042  11.201  13.626  0.00  0.00    -0.223 NA
ATOM     17  C   UNL     1      13.746  11.213  18.217  0.00  0.00    +0.103 C 
ATOM     18  C   UNL     1      12.602   9.803  16.644  0.00  0.00    +0.103 C 
ATOM     19  C   UNL     1      14.976  11.295  17.311  0.00  0.00    +0.123 C 
ATOM     20  C   UNL     1      13.794   9.836  15.686  0.00  0.00    +0.123 C 
ATOM     22  C   UNL     1      15.445  11.472  14.882  0.00  0.00    +0.218 A 
ATOM     26  C   UNL     1      17.354  12.521  14.231  0.00  0.00    +0.116 A 
ATOM     27  C   UNL     1      15.874  11.633  12.656  0.00  0.00    +0.116 A 
ATOM     28  C   UNL     1      17.053  12.306  12.901  0.00  0.00    +0.039 A 
ENDBRANCH  15   3
ENDBRANCH   9  15
BRANCH  10  16
ATOM     16  C   UNL     1      14.653   9.014  22.139  0.00  0.00    +0.123 C 
BRANCH  16   4
ATOM      1  O   UNL     1      16.977   9.704  20.601  0.00  0.00    -0.270 OA
ATOM      4  N   UNL     1      15.799   8.191  21.907  0.00  0.00    -0.310 N 
ATOM     21  C   UNL     1      16.889   8.605  21.144  0.00  0.00    +0.244 C 
ATOM     32  H   UNL     1      15.764   7.246  22.276  0.00  0.00    +0.149 HD
BRANCH  21  23
ATOM     23  C   UNL     1      17.989   7.622  20.975  0.00  0.00    +0.037 A 
ATOM     24  C   UNL     1      17.800   6.492  20.179  0.00  0.00    +0.013 A 
ATOM     25  C   UNL     1      19.214   7.830  21.609  0.00  0.00    +0.013 A 
ATOM     29  C   UNL     1      18.834   5.570  20.018  0.00  0.00    +0.001 A 
ATOM     30  C   UNL     1      20.248   6.909  21.449  0.00  0.00    +0.001 A 
ATOM     31  C   UNL     1      20.058   5.779  20.654  0.00  0.00    +0.000 A 
ENDBRANCH  21  23
ENDBRANCH  16   4
ENDBRANCH  10  16
TORSDOF 5
ENDMDL
MODEL 6
REMARK VINA RESULT:      -7.1     27.905     29.666
REMARK  Name = 40779807
REMARK  5 active torsions:
REMARK  status: ('A' for Active; 'I' for Inactive)
REMARK    1  A    between atoms: N_3  and  C_15
REMARK    2  A    between atoms: N_4  and  C_16
REMARK    3  A    between atoms: C_9  and  C_15
REMARK    4  A    between atoms: C_10  and  C_16
REMARK    5  A    between atoms: C_21  and  C_23
REMARK                            x       y       z     vdW  Elec       q    Type
REMARK                         _______ _______ _______ _____ _____    ______ ____
ROOT
ATOM      2  N   UNL     1      -6.222 -10.288  18.729  0.00  0.00    -0.298 NA
ATOM      8  C   UNL     1      -6.824 -12.784  18.310  0.00  0.00    -0.003 C 
ATOM      9  C   UNL     1      -5.332 -12.516  18.001  0.00  0.00    +0.020 C 
ATOM     10  C   UNL     1      -7.409 -10.382  17.837  0.00  0.00    +0.074 C 
ATOM     11  C   UNL     1      -7.697 -11.850  17.450  0.00  0.00    +0.024 C 
ATOM     12  C   UNL     1      -5.068 -10.999  18.128  0.00  0.00    +0.089 C 
ATOM     13  C   UNL     1      -7.053 -12.395  19.783  0.00  0.00    +0.019 C 
ATOM     14  C   UNL     1      -6.560 -10.956  20.010  0.00  0.00    +0.085 C 
ENDROOT
BRANCH   9  15
ATOM     15  C   UNL     1      -4.892 -13.053  16.642  0.00  0.00    +0.089 C 
BRANCH  15   3
ATOM      3  N   UNL     1      -4.833 -11.982  15.648  0.00  0.00    -0.299 NA
ATOM      5  N   UNL     1      -4.449 -10.850  13.053  0.00  0.00    -0.297 N 
ATOM      6  N   UNL     1      -5.380  -9.773  11.203  0.00  0.00    -0.223 NA
ATOM      7  N   UNL     1      -2.993 -10.015  11.429  0.00  0.00    -0.223 NA
ATOM     17  C   UNL     1      -5.817 -12.212  14.584  0.00  0.00    +0.103 C 
ATOM     18  C   UNL     1      -3.487 -11.888  15.071  0.00  0.00    +0.103 C 
ATOM     19  C   UNL     1      -5.805 -11.070  13.566  0.00  0.00    +0.123 C 
ATOM     20  C   UNL     1      -3.398 -10.733  14.072  0.00  0.00    +0.123 C 
ATOM     22  C   UNL     1      -4.265 -10.181  11.838  0.00  0.00    +0.218 A 
ATOM     26  C   UNL     1      -5.167  -9.132  10.034  0.00  0.00    +0.116 A 
ATOM     27  C   UNL     1      -2.853  -9.367  10.254  0.00  0.00    +0.116 A 
ATOM     28  C   UNL     1      -3.913  -8.899   9.506  0.00  0.00    +0.039 A 
ENDBRANCH  15   3
ENDBRANCH   9  15
BRANCH  10  16
ATOM     16  C   UNL     1      -7.285  -9.485  16.604  0.00  0.00    +0.123 C 
BRANCH  16   4
ATOM      1  O   UNL     1      -9.208  -9.699  14.483  0.00  0.00    -0.270 OA
ATOM      4  N   UNL     1      -8.459  -8.688  16.433  0.00  0.00    -0.310 N 
ATOM     21  C   UNL     1      -9.344  -8.859  15.369  0.00  0.00    +0.244 C 
ATOM     32  H   UNL     1      -8.600  -7.933  17.096  0.00  0.00    +0.149 HD
BRANCH  21  23
ATOM     23  C   UNL     1     -10.504  -7.932  15.319  0.00  0.00    +0.037 A 
ATOM     24  C   UNL     1     -11.531  -8.148  14.401  0.00  0.00    +0.013 A 
ATOM     25  C   UNL     1     -10.567  -6.847  16.193  0.00  0.00    +0.013 A 
ATOM     29  C   UNL     1     -12.621  -7.279  14.355  0.00  0.00    +0.001 A 
ATOM     30  C   UNL     1     -11.655  -5.977  16.148  0.00  0.00    +0.001 A 
ATOM     31  C   UNL     1     -12.683  -6.193  15.230  0.00  0.00    +0.000 A 
ENDBRANCH  21  23
ENDBRANCH  16   4
ENDBRANCH  10  16
TORSDOF 5
ENDMDL
MODEL 7
REMARK VINA RESULT:      -7.1     28.165     30.866
REMARK  Name = 40779807
REMARK  5 active torsions:
REMARK  status: ('A' for Active; 'I' for Inactive)
REMARK    1  A    between atoms: N_3  and  C_15
REMARK    2  A    between atoms: N_4  and  C_16
REMARK    3  A    between atoms: C_9  and  C_15
REMARK    4  A    between atoms: C_10  and  C_16
REMARK    5  A    between atoms: C_21  and  C_23
REMARK                            x       y       z     vdW  Elec       q    Type
REMARK                         _______ _______ _______ _____ _____    ______ ____
ROOT
ATOM      2  N   UNL     1      -5.883 -12.352  16.418  0.00  0.00    -0.298 NA
ATOM      8  C   UNL     1      -5.576 -11.819  18.946  0.00  0.00    -0.003 C 
ATOM      9  C   UNL     1      -7.031 -12.248  18.645  0.00  0.00    +0.020 C 
ATOM     10  C   UNL     1      -5.268 -11.007  16.585  0.00  0.00    +0.074 C 
ATOM     11  C   UNL     1      -5.212 -10.603  18.075  0.00  0.00    +0.024 C 
ATOM     12  C   UNL     1      -7.190 -12.409  17.116  0.00  0.00    +0.089 C 
ATOM     13  C   UNL     1      -4.667 -12.984  18.507  0.00  0.00    +0.019 C 
ATOM     14  C   UNL     1      -4.979 -13.347  17.045  0.00  0.00    +0.085 C 
ENDROOT
BRANCH   9  15
ATOM     15  C   UNL     1      -8.072 -11.291  19.221  0.00  0.00    +0.089 C 
BRANCH  15   3
ATOM      3  N   UNL     1      -8.812 -10.616  18.156  0.00  0.00    -0.299 NA
ATOM      5  N   UNL     1     -10.607  -8.694  17.042  0.00  0.00    -0.297 N 
ATOM      6  N   UNL     1     -10.912  -6.820  15.683  0.00  0.00    -0.223 NA
ATOM      7  N   UNL     1     -12.797  -8.061  16.529  0.00  0.00    -0.223 NA
ATOM     17  C   UNL     1      -8.433  -9.200  18.083  0.00  0.00    +0.103 C 
ATOM     18  C   UNL     1     -10.258 -10.735  18.379  0.00  0.00    +0.103 C 
ATOM     19  C   UNL     1      -9.159  -8.495  16.936  0.00  0.00    +0.123 C 
ATOM     20  C   UNL     1     -11.044 -10.083  17.239  0.00  0.00    +0.123 C 
ATOM     22  C   UNL     1     -11.480  -7.817  16.387  0.00  0.00    +0.218 A 
ATOM     26  C   UNL     1     -11.781  -5.994  15.064  0.00  0.00    +0.116 A 
ATOM     27  C   UNL     1     -13.608  -7.197  15.885  0.00  0.00    +0.116 A 
ATOM     28  C   UNL     1     -13.153  -6.135  15.131  0.00  0.00    +0.039 A 
ENDBRANCH  15   3
ENDBRANCH   9  15
BRANCH  10  16
ATOM     16  C   UNL     1      -5.959  -9.940  15.733  0.00  0.00    +0.123 C 
BRANCH  16   4
ATOM      1  O   UNL     1      -7.013 -10.277  13.083  0.00  0.00    -0.270 OA
ATOM      4  N   UNL     1      -5.258  -9.736  14.503  0.00  0.00    -0.310 N 
ATOM     21  C   UNL     1      -5.848  -9.923  13.254  0.00  0.00    +0.244 C 
ATOM     32  H   UNL     1      -4.274  -9.503  14.572  0.00  0.00    +0.149 HD
BRANCH  21  23
ATOM     23  C   UNL     1      -4.978  -9.697  12.072  0.00  0.00    +0.037 A 
ATOM     24  C   UNL     1      -3.762 -10.371  11.961  0.00  0.00    +0.013 A 
ATOM     25  C   UNL     1      -5.379  -8.813  11.071  0.00  0.00    +0.013 A 
ATOM     29  C   UNL     1      -2.946 -10.160  10.849  0.00  0.00    +0.001 A 
ATOM     30  C   UNL     1      -4.564  -8.601   9.960  0.00  0.00    +0.001 A 
ATOM     31  C   UNL     1      -3.348  -9.274   9.848  0.00  0.00    +0.000 A 
ENDBRANCH  21  23
ENDBRANCH  16   4
ENDBRANCH  10  16
TORSDOF 5
ENDMDL
MODEL 8
REMARK VINA RESULT:      -7.0     13.944     17.582
REMARK  Name = 40779807
REMARK  5 active torsions:
REMARK  status: ('A' for Active; 'I' for Inactive)
REMARK    1  A    between atoms: N_3  and  C_15
REMARK    2  A    between atoms: N_4  and  C_16
REMARK    3  A    between atoms: C_9  and  C_15
REMARK    4  A    between atoms: C_10  and  C_16
REMARK    5  A    between atoms: C_21  and  C_23
REMARK                            x       y       z     vdW  Elec       q    Type
REMARK                         _______ _______ _______ _____ _____    ______ ____
ROOT
ATOM      2  N   UNL     1      10.427   6.832   7.907  0.00  0.00    -0.298 NA
ATOM      8  C   UNL     1       9.690   5.366   5.888  0.00  0.00    -0.003 C 
ATOM      9  C   UNL     1      11.102   5.954   5.658  0.00  0.00    +0.020 C 
ATOM     10  C   UNL     1       9.089   7.267   7.422  0.00  0.00    +0.074 C 
ATOM     11  C   UNL     1       8.694   6.515   6.132  0.00  0.00    +0.024 C 
ATOM     12  C   UNL     1      11.425   6.926   6.815  0.00  0.00    +0.089 C 
ATOM     13  C   UNL     1       9.757   4.536   7.185  0.00  0.00    +0.019 C 
ATOM     14  C   UNL     1      10.322   5.410   8.318  0.00  0.00    +0.085 C 
ENDROOT
BRANCH   9  15
ATOM     15  C   UNL     1      11.259   6.626   4.297  0.00  0.00    +0.089 C 
BRANCH  15   3
ATOM      3  N   UNL     1      11.538   5.641   3.253  0.00  0.00    -0.299 NA
ATOM      5  N   UNL     1      11.753   4.666   0.576  0.00  0.00    -0.297 N 
ATOM      6  N   UNL     1      13.124   3.904  -1.153  0.00  0.00    -0.223 NA
ATOM      7  N   UNL     1      10.726   3.732  -1.302  0.00  0.00    -0.223 NA
ATOM     17  C   UNL     1      12.615   6.112   2.374  0.00  0.00    +0.103 C 
ATOM     18  C   UNL     1      10.331   5.371   2.462  0.00  0.00    +0.103 C 
ATOM     19  C   UNL     1      12.957   5.066   1.311  0.00  0.00    +0.123 C 
ATOM     20  C   UNL     1      10.597   4.298   1.404  0.00  0.00    +0.123 C 
ATOM     22  C   UNL     1      11.873   4.073  -0.686  0.00  0.00    +0.218 A 
ATOM     26  C   UNL     1      13.205   3.330  -2.371  0.00  0.00    +0.116 A 
ATOM     27  C   UNL     1      10.879   3.163  -2.516  0.00  0.00    +0.116 A 
ATOM     28  C   UNL     1      12.105   2.935  -3.106  0.00  0.00    +0.039 A 
ENDBRANCH  15   3
ENDBRANCH   9  15
BRANCH  10  16
ATOM     16  C   UNL     1       8.998   8.785   7.244  0.00  0.00    +0.123 C 
BRANCH  16   4
ATOM      1  O   UNL     1       9.125  11.625   7.643  0.00  0.00    -0.270 OA
ATOM      4  N   UNL     1       9.351   9.462   8.453  0.00  0.00    -0.310 N 
ATOM     21  C   UNL     1       9.388  10.851   8.561  0.00  0.00    +0.244 C 
ATOM     32  H   UNL     1       9.640   8.882   9.233  0.00  0.00    +0.149 HD
BRANCH  21  23
ATOM     23  C   UNL     1       9.800  11.401   9.877  0.00  0.00    +0.037 A 
ATOM     24  C   UNL     1      11.152  11.603  10.159  0.00  0.00    +0.013 A 
ATOM     25  C   UNL     1       8.835  11.719  10.833  0.00  0.00    +0.013 A 
ATOM     29  C   UNL     1      11.538  12.121  11.394  0.00  0.00    +0.001 A 
ATOM     30  C   UNL     1       9.221  12.236  12.069  0.00  0.00    +0.001 A 
ATOM     31  C   UNL     1      10.572  12.438  12.350  0.00  0.00    +0.000 A 
ENDBRANCH  21  23
ENDBRANCH  16   4
ENDBRANCH  10  16
TORSDOF 5
ENDMDL
MODEL 9
REMARK VINA RESULT:      -7.0     27.685     31.358
REMARK  Name = 40779807
REMARK  5 active torsions:
REMARK  status: ('A' for Active; 'I' for Inactive)
REMARK    1  A    between atoms: N_3  and  C_15
REMARK    2  A    between atoms: N_4  and  C_16
REMARK    3  A    between atoms: C_9  and  C_15
REMARK    4  A    between atoms: C_10  and  C_16
REMARK    5  A    between atoms: C_21  and  C_23
REMARK                            x       y       z     vdW  Elec       q    Type
REMARK                         _______ _______ _______ _____ _____    ______ ____
ROOT
ATOM      2  N   UNL     1      -7.635 -11.796  16.828  0.00  0.00    -0.298 NA
ATOM      8  C   UNL     1      -8.018 -11.275  19.348  0.00  0.00    -0.003 C 
ATOM      9  C   UNL     1      -9.347 -11.204  18.561  0.00  0.00    +0.020 C 
ATOM     10  C   UNL     1      -6.698 -10.729  17.276  0.00  0.00    +0.074 C 
ATOM     11  C   UNL     1      -7.005 -10.295  18.727  0.00  0.00    +0.024 C 
ATOM     12  C   UNL     1      -9.038 -11.377  17.057  0.00  0.00    +0.089 C 
ATOM     13  C   UNL     1      -7.457 -12.697  19.151  0.00  0.00    +0.019 C 
ATOM     14  C   UNL     1      -7.373 -13.005  17.646  0.00  0.00    +0.085 C 
ENDROOT
BRANCH   9  15
ATOM     15  C   UNL     1     -10.138  -9.926  18.830  0.00  0.00    +0.089 C 
BRANCH  15   3
ATOM      3  N   UNL     1     -10.575  -9.305  17.581  0.00  0.00    -0.299 NA
ATOM      5  N   UNL     1     -11.886  -7.355  15.956  0.00  0.00    -0.297 N 
ATOM      6  N   UNL     1     -11.704  -5.621  14.403  0.00  0.00    -0.223 NA
ATOM      7  N   UNL     1     -13.846  -6.578  14.951  0.00  0.00    -0.223 NA
ATOM     17  C   UNL     1     -10.029  -7.948  17.462  0.00  0.00    +0.103 C 
ATOM     18  C   UNL     1     -12.040  -9.261  17.511  0.00  0.00    +0.103 C 
ATOM     19  C   UNL     1     -10.431  -7.307  16.132  0.00  0.00    +0.123 C 
ATOM     20  C   UNL     1     -12.509  -8.666  16.182  0.00  0.00    +0.123 C 
ATOM     22  C   UNL     1     -12.508  -6.477  15.062  0.00  0.00    +0.218 A 
ATOM     26  C   UNL     1     -12.335  -4.789  13.549  0.00  0.00    +0.116 A 
ATOM     27  C   UNL     1     -14.412  -5.717  14.080  0.00  0.00    +0.116 A 
ATOM     28  C   UNL     1     -13.700  -4.791  13.345  0.00  0.00    +0.039 A 
ENDBRANCH  15   3
ENDBRANCH   9  15
BRANCH  10  16
ATOM     16  C   UNL     1      -6.673  -9.535  16.320  0.00  0.00    +0.123 C 
BRANCH  16   4
ATOM      1  O   UNL     1      -6.743 -10.739  13.714  0.00  0.00    -0.270 OA
ATOM      4  N   UNL     1      -5.585  -9.641  15.399  0.00  0.00    -0.310 N 
ATOM     21  C   UNL     1      -5.705 -10.244  14.148  0.00  0.00    +0.244 C 
ATOM     32  H   UNL     1      -4.682  -9.307  15.720  0.00  0.00    +0.149 HD
BRANCH  21  23
ATOM     23  C   UNL     1      -4.474 -10.299  13.320  0.00  0.00    +0.037 A 
ATOM     24  C   UNL     1      -4.528  -9.975  11.965  0.00  0.00    +0.013 A 
ATOM     25  C   UNL     1      -3.261 -10.672  13.899  0.00  0.00    +0.013 A 
ATOM     29  C   UNL     1      -3.370 -10.024  11.188  0.00  0.00    +0.001 A 
ATOM     30  C   UNL     1      -2.103 -10.722  13.123  0.00  0.00    +0.001 A 
ATOM     31  C   UNL     1      -2.158 -10.398  11.768  0.00  0.00    +0.000 A 
ENDBRANCH  21  23
ENDBRANCH  16   4
ENDBRANCH  10  16
TORSDOF 5
ENDMDL
MODEL 10
REMARK VINA RESULT:      -6.9      1.615      2.412
REMARK  Name = 40779807
REMARK  5 active torsions:
REMARK  status: ('A' for Active; 'I' for Inactive)
REMARK    1  A    between atoms: N_3  and  C_15
REMARK    2  A    between atoms: N_4  and  C_16
REMARK    3  A    between atoms: C_9  and  C_15
REMARK    4  A    between atoms: C_10  and  C_16
REMARK    5  A    between atoms: C_21  and  C_23
REMARK                            x       y       z     vdW  Elec       q    Type
REMARK                         _______ _______ _______ _____ _____    ______ ____
ROOT
ATOM      2  N   UNL     1      12.610   8.566  21.632  0.00  0.00    -0.298 NA
ATOM      8  C   UNL     1      13.164   7.072  19.576  0.00  0.00    -0.003 C 
ATOM      9  C   UNL     1      14.392   7.208  20.506  0.00  0.00    +0.020 C 
ATOM     10  C   UNL     1      12.245   9.274  20.375  0.00  0.00    +0.074 C 
ATOM     11  C   UNL     1      12.701   8.473  19.135  0.00  0.00    +0.024 C 
ATOM     12  C   UNL     1      14.051   8.217  21.626  0.00  0.00    +0.089 C 
ATOM     13  C   UNL     1      12.029   6.461  20.420  0.00  0.00    +0.019 C 
ATOM     14  C   UNL     1      11.829   7.306  21.689  0.00  0.00    +0.085 C 
ENDROOT
BRANCH   9  15
ATOM     15  C   UNL     1      15.668   7.599  19.765  0.00  0.00    +0.089 C 
BRANCH  15   3
ATOM      3  N   UNL     1      16.846   7.007  20.398  0.00  0.00    -0.299 NA
ATOM      5  N   UNL     1      19.634   6.513  20.774  0.00  0.00    -0.297 N 
ATOM      6  N   UNL     1      21.527   6.753  22.120  0.00  0.00    -0.223 NA
ATOM      7  N   UNL     1      21.553   5.319  20.184  0.00  0.00    -0.223 NA
ATOM     17  C   UNL     1      17.719   8.053  20.943  0.00  0.00    +0.103 C 
ATOM     18  C   UNL     1      17.591   6.187  19.434  0.00  0.00    +0.103 C 
ATOM     19  C   UNL     1      18.927   7.444  21.658  0.00  0.00    +0.123 C 
ATOM     20  C   UNL     1      18.793   5.515  20.101  0.00  0.00    +0.123 C 
ATOM     22  C   UNL     1      20.967   6.179  21.038  0.00  0.00    +0.218 A 
ATOM     26  C   UNL     1      22.812   6.409  22.346  0.00  0.00    +0.116 A 
ATOM     27  C   UNL     1      22.837   5.019  20.469  0.00  0.00    +0.116 A 
ATOM     28  C   UNL     1      23.524   5.540  21.546  0.00  0.00    +0.039 A 
ENDBRANCH  15   3
ENDBRANCH   9  15
BRANCH  10  16
ATOM     16  C   UNL     1      12.765  10.713  20.344  0.00  0.00    +0.123 C 
BRANCH  16   4
ATOM      1  O   UNL     1      14.021  11.777  22.697  0.00  0.00    -0.270 OA
ATOM      4  N   UNL     1      12.143  11.502  21.361  0.00  0.00    -0.310 N 
ATOM     21  C   UNL     1      12.829  11.981  22.476  0.00  0.00    +0.244 C 
ATOM     32  H   UNL     1      11.144  11.656  21.272  0.00  0.00    +0.149 HD
BRANCH  21  23
ATOM     23  C   UNL     1      12.033  12.763  23.456  0.00  0.00    +0.037 A 
ATOM     24  C   UNL     1      11.372  12.112  24.498  0.00  0.00    +0.013 A 
ATOM     25  C   UNL     1      11.950  14.150  23.337  0.00  0.00    +0.013 A 
ATOM     29  C   UNL     1      10.627  12.848  25.419  0.00  0.00    +0.001 A 
ATOM     30  C   UNL     1      11.205  14.886  24.257  0.00  0.00    +0.001 A 
ATOM     31  C   UNL     1      10.543  14.236  25.298  0.00  0.00    +0.000 A 
ENDBRANCH  21  23
ENDBRANCH  16   4
ENDBRANCH  10  16
TORSDOF 5
ENDMDL
