REMARK  Name = 9424610
REMARK  6 active torsions:
REMARK  status: ('A' for Active; 'I' for Inactive)
REMARK    1  A    between atoms: O_4  and  C_28
REMARK    2  A    between atoms: O_4  and  C_29
REMARK    3  A    between atoms: N_5  and  C_14
REMARK    4  A    between atoms: N_8  and  C_21
REMARK    5  A    between atoms: C_25  and  C_26
REMARK    6  A    between atoms: C_27  and  C_28
REMARK                            x       y       z     vdW  Elec       q    Type
REMARK                         _______ _______ _______ _____ _____    ______ ____
ROOT
ATOM      1  O   UNL     1       2.634  -3.313   2.224  0.00  0.00    -0.268 OA
ATOM      5  N   UNL     1       2.601  -0.115  -1.643  0.00  0.00    -0.298 NA
ATOM      6  N   UNL     1       1.567  -2.373   0.363  0.00  0.00    -0.310 N 
ATOM      9  C   UNL     1       2.511  -2.593  -2.009  0.00  0.00    +0.024 C 
ATOM     10  C   UNL     1       0.434  -1.354  -1.637  0.00  0.00    +0.052 C 
ATOM     11  C   UNL     1       1.056  -2.499  -2.433  0.00  0.00    +0.017 C 
ATOM     12  C   UNL     1       3.239  -1.263  -2.298  0.00  0.00    +0.090 C 
ATOM     13  C   UNL     1       1.170  -0.036  -1.971  0.00  0.00    +0.094 C 
ATOM     15  C   UNL     1       2.560  -2.985  -0.530  0.00  0.00    +0.130 C 
ATOM     16  C   UNL     1       0.484  -1.625  -0.135  0.00  0.00    +0.047 A 
ATOM     21  C   UNL     1      -0.452  -1.152   0.719  0.00  0.00    +0.054 A 
ATOM     22  C   UNL     1       1.718  -2.653   1.734  0.00  0.00    +0.252 A 
ATOM     23  C   UNL     1      -0.344  -1.414   2.134  0.00  0.00    +0.030 A 
ATOM     24  C   UNL     1       0.675  -2.112   2.639  0.00  0.00    +0.072 A 
ENDROOT
BRANCH   5  14
ATOM      2  O   UNL     1       4.526   3.914   1.980  0.00  0.00    -0.276 OA
ATOM      7  N   UNL     1       4.441   2.116   0.510  0.00  0.00    -0.302 N 
ATOM     14  C   UNL     1       3.287   1.133  -1.986  0.00  0.00    +0.060 C 
ATOM     17  C   UNL     1       4.787   1.020  -1.676  0.00  0.00    +0.038 C 
ATOM     18  C   UNL     1       2.679   2.309  -1.208  0.00  0.00    +0.038 C 
ATOM     19  C   UNL     1       5.074   0.981  -0.174  0.00  0.00    +0.109 C 
ATOM     20  C   UNL     1       2.999   2.247   0.286  0.00  0.00    +0.109 C 
ATOM     25  C   UNL     1       5.090   3.000   1.372  0.00  0.00    +0.212 C 
ATOM     26  C   UNL     1       6.575   2.805   1.548  0.00  0.00    +0.109 C 
ENDBRANCH   5  14
BRANCH  21   8
ATOM      3  O   UNL     1      -3.012  -1.027   2.005  0.00  0.00    -0.272 OA
ATOM      8  N   UNL     1      -1.522  -0.393   0.329  0.00  0.00    -0.281 N 
ATOM     27  C   UNL     1      -2.735  -0.380   0.999  0.00  0.00    +0.255 C 
ATOM     35  H   UNL     1      -1.491   0.033  -0.593  0.00  0.00    +0.155 HD
BRANCH  27  28
ATOM     28  C   UNL     1      -3.723   0.554   0.331  0.00  0.00    +0.324 C 
BRANCH  28   4
ATOM      4  O   UNL     1      -4.947   0.571   1.036  0.00  0.00    -0.483 OA
BRANCH   4  29
ATOM     29  C   UNL     1      -6.084   0.838   0.311  0.00  0.00    +0.121 A 
ATOM     30  C   UNL     1      -6.005   1.650  -0.812  0.00  0.00    +0.045 A 
ATOM     31  C   UNL     1      -7.295   0.291   0.713  0.00  0.00    +0.045 A 
ATOM     32  C   UNL     1      -7.159   1.921  -1.546  0.00  0.00    +0.004 A 
ATOM     33  C   UNL     1      -8.449   0.561  -0.022  0.00  0.00    +0.004 A 
ATOM     34  C   UNL     1      -8.381   1.377  -1.152  0.00  0.00    +0.000 A 
ENDBRANCH   4  29
ENDBRANCH  28   4
ENDBRANCH  27  28
ENDBRANCH  21   8
TORSDOF 5
