MODEL 1
REMARK VINA RESULT:      -7.3      0.000      0.000
REMARK  Name = 26744190
REMARK  9 active torsions:
REMARK  status: ('A' for Active; 'I' for Inactive)
REMARK    1  A    between atoms: S_1  and  C_22
REMARK    2  A    between atoms: S_1  and  C_26
REMARK    3  A    between atoms: O_2  and  C_12
REMARK    4  A    between atoms: O_6  and  C_29
REMARK    5  A    between atoms: O_6  and  C_30
REMARK    6  A    between atoms: N_7  and  C_14
REMARK    7  A    between atoms: C_10  and  C_15
REMARK    8  A    between atoms: C_14  and  C_16
REMARK    9  A    between atoms: C_19  and  C_23
REMARK                            x       y       z     vdW  Elec       q    Type
REMARK                         _______ _______ _______ _____ _____    ______ ____
ROOT
ATOM      7  N   UNL     1      12.338   8.820  20.357  0.00  0.00    -0.285 NA
ATOM     10  C   UNL     1      13.081   8.148  21.443  0.00  0.00    +0.149 C 
ATOM     11  C   UNL     1      12.105   7.093  21.993  0.00  0.00    +0.061 C 
ATOM     12  C   UNL     1      10.826   7.278  21.186  0.00  0.00    +0.130 C 
ATOM     13  C   UNL     1      10.921   8.711  20.696  0.00  0.00    +0.116 C 
ENDROOT
BRANCH  10  15
ATOM      3  O   UNL     1      14.316   6.704  19.905  0.00  0.00    -0.336 OA
ATOM      8  N   UNL     1      15.597   7.715  21.438  0.00  0.00    -0.190 NA
ATOM      9  N   UNL     1      15.628   6.280  19.657  0.00  0.00    -0.056 NA
ATOM     15  C   UNL     1      14.387   7.546  20.969  0.00  0.00    +0.245 A 
ATOM     19  C   UNL     1      16.324   6.919  20.602  0.00  0.00    +0.202 A 
BRANCH  19  23
ATOM     23  C   UNL     1      17.747   6.785  20.735  0.00  0.00    +0.023 A 
ATOM     24  C   UNL     1      18.406   5.720  20.121  0.00  0.00    +0.015 A 
ATOM     25  C   UNL     1      18.468   7.717  21.479  0.00  0.00    +0.015 A 
ATOM     27  C   UNL     1      19.788   5.588  20.251  0.00  0.00    +0.046 A 
ATOM     28  C   UNL     1      19.850   7.585  21.610  0.00  0.00    +0.046 A 
ATOM     29  C   UNL     1      20.511   6.520  20.997  0.00  0.00    +0.120 A 
BRANCH  29   6
ATOM      6  O   UNL     1      21.860   6.392  21.125  0.00  0.00    -0.495 OA
ATOM     30  C   UNL     1      22.338   5.632  22.233  0.00  0.00    +0.277 C 
ENDBRANCH  29   6
ENDBRANCH  19  23
ENDBRANCH  10  15
BRANCH  12   2
ATOM      2  O   UNL     1       9.686   7.076  21.997  0.00  0.00    -0.390 OA
ATOM     31  H   UNL     1       9.226   6.287  21.663  0.00  0.00    +0.210 HD
ENDBRANCH  12   2
BRANCH   7  14
ATOM     14  C   UNL     1      12.749  10.202  20.150  0.00  0.00    +0.120 C 
BRANCH  14  16
ATOM     16  C   UNL     1      13.399  10.400  18.807  0.00  0.00    -0.033 A 
ATOM     17  C   UNL     1      14.044  11.602  18.514  0.00  0.00    +0.007 A 
ATOM     18  C   UNL     1      13.358   9.380  17.856  0.00  0.00    +0.007 A 
ATOM     20  C   UNL     1      14.647  11.785  17.269  0.00  0.00    +0.027 A 
ATOM     21  C   UNL     1      13.960   9.564  16.611  0.00  0.00    +0.027 A 
ATOM     22  C   UNL     1      14.605  10.765  16.318  0.00  0.00    +0.088 A 
BRANCH  22   1
ATOM      1  S   UNL     1      15.362  10.994  14.761  0.00  0.00    -0.006 S 
ATOM      4  O   UNL     1      16.636  11.674  14.952  0.00  0.00    -0.170 OA
ATOM      5  O   UNL     1      15.320   9.725  14.050  0.00  0.00    -0.170 OA
ATOM     26  C   UNL     1      14.291  12.133  13.912  0.00  0.00    +0.200 C 
ENDBRANCH  22   1
ENDBRANCH  14  16
ENDBRANCH   7  14
TORSDOF 7
ENDMDL
MODEL 2
REMARK VINA RESULT:      -7.0      4.206      8.079
REMARK  Name = 26744190
REMARK  9 active torsions:
REMARK  status: ('A' for Active; 'I' for Inactive)
REMARK    1  A    between atoms: S_1  and  C_22
REMARK    2  A    between atoms: S_1  and  C_26
REMARK    3  A    between atoms: O_2  and  C_12
REMARK    4  A    between atoms: O_6  and  C_29
REMARK    5  A    between atoms: O_6  and  C_30
REMARK    6  A    between atoms: N_7  and  C_14
REMARK    7  A    between atoms: C_10  and  C_15
REMARK    8  A    between atoms: C_14  and  C_16
REMARK    9  A    between atoms: C_19  and  C_23
REMARK                            x       y       z     vdW  Elec       q    Type
REMARK                         _______ _______ _______ _____ _____    ______ ____
ROOT
ATOM      7  N   UNL     1      13.304   8.031  20.557  0.00  0.00    -0.285 NA
ATOM     10  C   UNL     1      12.036   8.747  20.310  0.00  0.00    +0.149 C 
ATOM     11  C   UNL     1      10.943   7.813  20.859  0.00  0.00    +0.061 C 
ATOM     12  C   UNL     1      11.688   6.579  21.352  0.00  0.00    +0.130 C 
ATOM     13  C   UNL     1      12.981   6.606  20.558  0.00  0.00    +0.116 C 
ENDROOT
BRANCH  10  15
ATOM      3  O   UNL     1      12.383  11.162  20.162  0.00  0.00    -0.336 OA
ATOM      8  N   UNL     1      11.676  10.462  22.168  0.00  0.00    -0.190 NA
ATOM      9  N   UNL     1      12.280  12.309  20.961  0.00  0.00    -0.056 NA
ATOM     15  C   UNL     1      12.009  10.120  20.949  0.00  0.00    +0.245 A 
ATOM     19  C   UNL     1      11.857  11.813  22.127  0.00  0.00    +0.202 A 
BRANCH  19  23
ATOM     23  C   UNL     1      11.606  12.643  23.271  0.00  0.00    +0.023 A 
ATOM     24  C   UNL     1      12.090  13.950  23.303  0.00  0.00    +0.015 A 
ATOM     25  C   UNL     1      10.880  12.141  24.350  0.00  0.00    +0.015 A 
ATOM     27  C   UNL     1      11.848  14.757  24.415  0.00  0.00    +0.046 A 
ATOM     28  C   UNL     1      10.637  12.947  25.463  0.00  0.00    +0.046 A 
ATOM     29  C   UNL     1      11.122  14.254  25.496  0.00  0.00    +0.120 A 
BRANCH  29   6
ATOM      6  O   UNL     1      10.885  15.041  26.581  0.00  0.00    -0.495 OA
ATOM     30  C   UNL     1      11.977  15.265  27.471  0.00  0.00    +0.277 C 
ENDBRANCH  29   6
ENDBRANCH  19  23
ENDBRANCH  10  15
BRANCH  12   2
ATOM      2  O   UNL     1      10.940   5.406  21.098  0.00  0.00    -0.390 OA
ATOM     31  H   UNL     1      10.003   5.619  21.247  0.00  0.00    +0.210 HD
ENDBRANCH  12   2
BRANCH   7  14
ATOM     14  C   UNL     1      14.346   8.357  19.592  0.00  0.00    +0.120 C 
BRANCH  14  16
ATOM     16  C   UNL     1      15.703   7.900  20.055  0.00  0.00    -0.033 A 
ATOM     17  C   UNL     1      16.293   6.773  19.484  0.00  0.00    +0.007 A 
ATOM     18  C   UNL     1      16.372   8.606  21.055  0.00  0.00    +0.007 A 
ATOM     20  C   UNL     1      17.551   6.350  19.912  0.00  0.00    +0.027 A 
ATOM     21  C   UNL     1      17.631   8.183  21.485  0.00  0.00    +0.027 A 
ATOM     22  C   UNL     1      18.220   7.055  20.913  0.00  0.00    +0.088 A 
BRANCH  22   1
ATOM      1  S   UNL     1      19.796   6.527  21.448  0.00  0.00    -0.006 S 
ATOM      4  O   UNL     1      19.743   6.257  22.877  0.00  0.00    -0.170 OA
ATOM      5  O   UNL     1      20.257   5.492  20.533  0.00  0.00    -0.170 OA
ATOM     26  C   UNL     1      20.837   7.953  21.229  0.00  0.00    +0.200 C 
ENDBRANCH  22   1
ENDBRANCH  14  16
ENDBRANCH   7  14
TORSDOF 7
ENDMDL
MODEL 3
REMARK VINA RESULT:      -6.5     26.547     28.929
REMARK  Name = 26744190
REMARK  9 active torsions:
REMARK  status: ('A' for Active; 'I' for Inactive)
REMARK    1  A    between atoms: S_1  and  C_22
REMARK    2  A    between atoms: S_1  and  C_26
REMARK    3  A    between atoms: O_2  and  C_12
REMARK    4  A    between atoms: O_6  and  C_29
REMARK    5  A    between atoms: O_6  and  C_30
REMARK    6  A    between atoms: N_7  and  C_14
REMARK    7  A    between atoms: C_10  and  C_15
REMARK    8  A    between atoms: C_14  and  C_16
REMARK    9  A    between atoms: C_19  and  C_23
REMARK                            x       y       z     vdW  Elec       q    Type
REMARK                         _______ _______ _______ _____ _____    ______ ____
ROOT
ATOM      7  N   UNL     1     -11.138   9.698  17.531  0.00  0.00    -0.285 NA
ATOM     10  C   UNL     1     -10.483  10.663  18.437  0.00  0.00    +0.149 C 
ATOM     11  C   UNL     1     -10.205  11.899  17.564  0.00  0.00    +0.061 C 
ATOM     12  C   UNL     1     -10.697  11.518  16.173  0.00  0.00    +0.130 C 
ATOM     13  C   UNL     1     -10.655  10.001  16.185  0.00  0.00    +0.116 C 
ENDROOT
BRANCH  10  15
ATOM      3  O   UNL     1     -12.325  11.886  19.479  0.00  0.00    -0.336 OA
ATOM      8  N   UNL     1     -11.234  10.515  20.873  0.00  0.00    -0.190 NA
ATOM      9  N   UNL     1     -12.953  12.017  20.724  0.00  0.00    -0.056 NA
ATOM     15  C   UNL     1     -11.325  10.983  19.655  0.00  0.00    +0.245 A 
ATOM     19  C   UNL     1     -12.253  11.178  21.493  0.00  0.00    +0.202 A 
BRANCH  19  23
ATOM     23  C   UNL     1     -12.547  10.979  22.883  0.00  0.00    +0.023 A 
ATOM     24  C   UNL     1     -11.687  11.486  23.857  0.00  0.00    +0.015 A 
ATOM     25  C   UNL     1     -13.691  10.277  23.260  0.00  0.00    +0.015 A 
ATOM     27  C   UNL     1     -11.972  11.292  25.209  0.00  0.00    +0.046 A 
ATOM     28  C   UNL     1     -13.977  10.082  24.611  0.00  0.00    +0.046 A 
ATOM     29  C   UNL     1     -13.117  10.589  25.586  0.00  0.00    +0.120 A 
BRANCH  29   6
ATOM      6  O   UNL     1     -13.396  10.399  26.904  0.00  0.00    -0.495 OA
ATOM     30  C   UNL     1     -14.760  10.517  27.303  0.00  0.00    +0.277 C 
ENDBRANCH  29   6
ENDBRANCH  19  23
ENDBRANCH  10  15
BRANCH  12   2
ATOM      2  O   UNL     1      -9.853  12.058  15.176  0.00  0.00    -0.390 OA
ATOM     31  H   UNL     1      -9.419  11.314  14.725  0.00  0.00    +0.210 HD
ENDBRANCH  12   2
BRANCH   7  14
ATOM     14  C   UNL     1     -10.899   8.309  17.899  0.00  0.00    +0.120 C 
BRANCH  14  16
ATOM     16  C   UNL     1     -11.920   7.805  18.884  0.00  0.00    -0.033 A 
ATOM     17  C   UNL     1     -13.279   8.005  18.642  0.00  0.00    +0.007 A 
ATOM     18  C   UNL     1     -11.507   7.138  20.037  0.00  0.00    +0.007 A 
ATOM     20  C   UNL     1     -14.226   7.538  19.554  0.00  0.00    +0.027 A 
ATOM     21  C   UNL     1     -12.454   6.671  20.949  0.00  0.00    +0.027 A 
ATOM     22  C   UNL     1     -13.813   6.870  20.708  0.00  0.00    +0.088 A 
BRANCH  22   1
ATOM      1  S   UNL     1     -14.999   6.284  21.847  0.00  0.00    -0.006 S 
ATOM      4  O   UNL     1     -15.113   7.237  22.942  0.00  0.00    -0.170 OA
ATOM      5  O   UNL     1     -16.186   5.896  21.100  0.00  0.00    -0.170 OA
ATOM     26  C   UNL     1     -14.270   4.807  22.521  0.00  0.00    +0.200 C 
ENDBRANCH  22   1
ENDBRANCH  14  16
ENDBRANCH   7  14
TORSDOF 7
ENDMDL
MODEL 4
REMARK VINA RESULT:      -6.4     26.169     29.829
REMARK  Name = 26744190
REMARK  9 active torsions:
REMARK  status: ('A' for Active; 'I' for Inactive)
REMARK    1  A    between atoms: S_1  and  C_22
REMARK    2  A    between atoms: S_1  and  C_26
REMARK    3  A    between atoms: O_2  and  C_12
REMARK    4  A    between atoms: O_6  and  C_29
REMARK    5  A    between atoms: O_6  and  C_30
REMARK    6  A    between atoms: N_7  and  C_14
REMARK    7  A    between atoms: C_10  and  C_15
REMARK    8  A    between atoms: C_14  and  C_16
REMARK    9  A    between atoms: C_19  and  C_23
REMARK                            x       y       z     vdW  Elec       q    Type
REMARK                         _______ _______ _______ _____ _____    ______ ____
ROOT
ATOM      7  N   UNL     1     -11.741   9.765  20.351  0.00  0.00    -0.285 NA
ATOM     10  C   UNL     1     -12.327   8.640  19.594  0.00  0.00    +0.149 C 
ATOM     11  C   UNL     1     -11.239   8.236  18.583  0.00  0.00    +0.061 C 
ATOM     12  C   UNL     1     -10.099   9.220  18.816  0.00  0.00    +0.130 C 
ATOM     13  C   UNL     1     -10.786  10.412  19.455  0.00  0.00    +0.116 C 
ENDROOT
BRANCH  10  15
ATOM      3  O   UNL     1     -11.762   6.661  20.914  0.00  0.00    -0.336 OA
ATOM      8  N   UNL     1     -13.941   7.174  20.923  0.00  0.00    -0.190 NA
ATOM      9  N   UNL     1     -12.386   5.694  21.713  0.00  0.00    -0.056 NA
ATOM     15  C   UNL     1     -12.748   7.493  20.490  0.00  0.00    +0.245 A 
ATOM     19  C   UNL     1     -13.669   6.065  21.669  0.00  0.00    +0.202 A 
BRANCH  19  23
ATOM     23  C   UNL     1     -14.702   5.349  22.362  0.00  0.00    +0.023 A 
ATOM     24  C   UNL     1     -15.976   5.251  21.804  0.00  0.00    +0.015 A 
ATOM     25  C   UNL     1     -14.431   4.753  23.593  0.00  0.00    +0.015 A 
ATOM     27  C   UNL     1     -16.980   4.556  22.477  0.00  0.00    +0.046 A 
ATOM     28  C   UNL     1     -15.436   4.059  24.267  0.00  0.00    +0.046 A 
ATOM     29  C   UNL     1     -16.710   3.960  23.710  0.00  0.00    +0.120 A 
BRANCH  29   6
ATOM      6  O   UNL     1     -17.690   3.282  24.368  0.00  0.00    -0.495 OA
ATOM     30  C   UNL     1     -17.457   2.973  25.741  0.00  0.00    +0.277 C 
ENDBRANCH  29   6
ENDBRANCH  19  23
ENDBRANCH  10  15
BRANCH  12   2
ATOM      2  O   UNL     1      -9.476   9.565  17.595  0.00  0.00    -0.390 OA
ATOM     31  H   UNL     1      -9.591  10.522  17.468  0.00  0.00    +0.210 HD
ENDBRANCH  12   2
BRANCH   7  14
ATOM     14  C   UNL     1     -12.739  10.698  20.856  0.00  0.00    +0.120 C 
BRANCH  14  16
ATOM     16  C   UNL     1     -12.770  10.728  22.360  0.00  0.00    -0.033 A 
ATOM     17  C   UNL     1     -11.747  11.361  23.067  0.00  0.00    +0.007 A 
ATOM     18  C   UNL     1     -13.823  10.123  23.048  0.00  0.00    +0.007 A 
ATOM     20  C   UNL     1     -11.776  11.388  24.461  0.00  0.00    +0.027 A 
ATOM     21  C   UNL     1     -13.851  10.150  24.443  0.00  0.00    +0.027 A 
ATOM     22  C   UNL     1     -12.828  10.783  25.149  0.00  0.00    +0.088 A 
BRANCH  22   1
ATOM      1  S   UNL     1     -12.865  10.820  26.894  0.00  0.00    -0.006 S 
ATOM      4  O   UNL     1     -12.581  12.176  27.343  0.00  0.00    -0.170 OA
ATOM      5  O   UNL     1     -14.083  10.155  27.332  0.00  0.00    -0.170 OA
ATOM     26  C   UNL     1     -11.483   9.813  27.387  0.00  0.00    +0.200 C 
ENDBRANCH  22   1
ENDBRANCH  14  16
ENDBRANCH   7  14
TORSDOF 7
ENDMDL
MODEL 5
REMARK VINA RESULT:      -6.4     13.227     15.252
REMARK  Name = 26744190
REMARK  9 active torsions:
REMARK  status: ('A' for Active; 'I' for Inactive)
REMARK    1  A    between atoms: S_1  and  C_22
REMARK    2  A    between atoms: S_1  and  C_26
REMARK    3  A    between atoms: O_2  and  C_12
REMARK    4  A    between atoms: O_6  and  C_29
REMARK    5  A    between atoms: O_6  and  C_30
REMARK    6  A    between atoms: N_7  and  C_14
REMARK    7  A    between atoms: C_10  and  C_15
REMARK    8  A    between atoms: C_14  and  C_16
REMARK    9  A    between atoms: C_19  and  C_23
REMARK                            x       y       z     vdW  Elec       q    Type
REMARK                         _______ _______ _______ _____ _____    ______ ____
ROOT
ATOM      7  N   UNL     1      10.442   5.718   6.091  0.00  0.00    -0.285 NA
ATOM     10  C   UNL     1      10.221   6.861   6.999  0.00  0.00    +0.149 C 
ATOM     11  C   UNL     1      10.013   6.229   8.387  0.00  0.00    +0.061 C 
ATOM     12  C   UNL     1      10.089   4.726   8.151  0.00  0.00    +0.130 C 
ATOM     13  C   UNL     1       9.740   4.580   6.681  0.00  0.00    +0.116 C 
ENDROOT
BRANCH  10  15
ATOM      3  O   UNL     1      11.087   9.109   7.416  0.00  0.00    -0.336 OA
ATOM      8  N   UNL     1      12.601   7.686   6.581  0.00  0.00    -0.190 NA
ATOM      9  N   UNL     1      12.280   9.835   7.297  0.00  0.00    -0.056 NA
ATOM     15  C   UNL     1      11.364   7.855   6.974  0.00  0.00    +0.245 A 
ATOM     19  C   UNL     1      13.124   8.927   6.798  0.00  0.00    +0.202 A 
BRANCH  19  23
ATOM     23  C   UNL     1      14.496   9.230   6.507  0.00  0.00    +0.023 A 
ATOM     24  C   UNL     1      14.950  10.546   6.580  0.00  0.00    +0.015 A 
ATOM     25  C   UNL     1      15.374   8.208   6.149  0.00  0.00    +0.015 A 
ATOM     27  C   UNL     1      16.284  10.841   6.296  0.00  0.00    +0.046 A 
ATOM     28  C   UNL     1      16.707   8.502   5.864  0.00  0.00    +0.046 A 
ATOM     29  C   UNL     1      17.163   9.818   5.937  0.00  0.00    +0.120 A 
BRANCH  29   6
ATOM      6  O   UNL     1      18.464  10.105   5.659  0.00  0.00    -0.495 OA
ATOM     30  C   UNL     1      19.266   9.045   5.141  0.00  0.00    +0.277 C 
ENDBRANCH  29   6
ENDBRANCH  19  23
ENDBRANCH  10  15
BRANCH  12   2
ATOM      2  O   UNL     1       9.170   4.040   8.979  0.00  0.00    -0.390 OA
ATOM     31  H   UNL     1       8.460   3.700   8.409  0.00  0.00    +0.210 HD
ENDBRANCH  12   2
BRANCH   7  14
ATOM     14  C   UNL     1      10.012   5.978   4.724  0.00  0.00    +0.120 C 
BRANCH  14  16
ATOM     16  C   UNL     1      11.006   5.466   3.716  0.00  0.00    -0.033 A 
ATOM     17  C   UNL     1      12.062   6.278   3.302  0.00  0.00    +0.007 A 
ATOM     18  C   UNL     1      10.872   4.178   3.197  0.00  0.00    +0.007 A 
ATOM     20  C   UNL     1      12.983   5.804   2.368  0.00  0.00    +0.027 A 
ATOM     21  C   UNL     1      11.793   3.703   2.263  0.00  0.00    +0.027 A 
ATOM     22  C   UNL     1      12.848   4.516   1.849  0.00  0.00    +0.088 A 
BRANCH  22   1
ATOM      1  S   UNL     1      14.003   3.921   0.682  0.00  0.00    -0.006 S 
ATOM      4  O   UNL     1      15.071   3.226   1.387  0.00  0.00    -0.170 OA
ATOM      5  O   UNL     1      13.267   3.236  -0.370  0.00  0.00    -0.170 OA
ATOM     26  C   UNL     1      14.719   5.392  -0.020  0.00  0.00    +0.200 C 
ENDBRANCH  22   1
ENDBRANCH  14  16
ENDBRANCH   7  14
TORSDOF 7
ENDMDL
MODEL 6
REMARK VINA RESULT:      -6.3     27.549     29.738
REMARK  Name = 26744190
REMARK  9 active torsions:
REMARK  status: ('A' for Active; 'I' for Inactive)
REMARK    1  A    between atoms: S_1  and  C_22
REMARK    2  A    between atoms: S_1  and  C_26
REMARK    3  A    between atoms: O_2  and  C_12
REMARK    4  A    between atoms: O_6  and  C_29
REMARK    5  A    between atoms: O_6  and  C_30
REMARK    6  A    between atoms: N_7  and  C_14
REMARK    7  A    between atoms: C_10  and  C_15
REMARK    8  A    between atoms: C_14  and  C_16
REMARK    9  A    between atoms: C_19  and  C_23
REMARK                            x       y       z     vdW  Elec       q    Type
REMARK                         _______ _______ _______ _____ _____    ______ ____
ROOT
ATOM      7  N   UNL     1      -7.390 -10.735  17.722  0.00  0.00    -0.285 NA
ATOM     10  C   UNL     1      -5.997 -11.111  18.042  0.00  0.00    +0.149 C 
ATOM     11  C   UNL     1      -6.091 -12.551  18.578  0.00  0.00    +0.061 C 
ATOM     12  C   UNL     1      -7.579 -12.880  18.566  0.00  0.00    +0.130 C 
ATOM     13  C   UNL     1      -8.244 -11.517  18.613  0.00  0.00    +0.116 C 
ENDROOT
BRANCH  10  15
ATOM      3  O   UNL     1      -3.749 -11.177  17.086  0.00  0.00    -0.336 OA
ATOM      8  N   UNL     1      -5.361 -10.726  15.599  0.00  0.00    -0.190 NA
ATOM      9  N   UNL     1      -3.106 -11.016  15.851  0.00  0.00    -0.056 NA
ATOM     15  C   UNL     1      -5.073 -10.990  16.848  0.00  0.00    +0.245 A 
ATOM     19  C   UNL     1      -4.123 -10.752  15.026  0.00  0.00    +0.202 A 
BRANCH  19  23
ATOM     23  C   UNL     1      -3.935 -10.513  13.624  0.00  0.00    +0.023 A 
ATOM     24  C   UNL     1      -5.035 -10.241  12.810  0.00  0.00    +0.015 A 
ATOM     25  C   UNL     1      -2.654 -10.553  13.075  0.00  0.00    +0.015 A 
ATOM     27  C   UNL     1      -4.853 -10.009  11.447  0.00  0.00    +0.046 A 
ATOM     28  C   UNL     1      -2.472 -10.322  11.712  0.00  0.00    +0.046 A 
ATOM     29  C   UNL     1      -3.571 -10.050  10.897  0.00  0.00    +0.120 A 
BRANCH  29   6
ATOM      6  O   UNL     1      -3.393  -9.824   9.567  0.00  0.00    -0.495 OA
ATOM     30  C   UNL     1      -4.429  -9.122   8.883  0.00  0.00    +0.277 C 
ENDBRANCH  29   6
ENDBRANCH  19  23
ENDBRANCH  10  15
BRANCH  12   2
ATOM      2  O   UNL     1      -7.927 -13.673  19.684  0.00  0.00    -0.390 OA
ATOM     31  H   UNL     1      -7.183 -14.275  19.858  0.00  0.00    +0.210 HD
ENDBRANCH  12   2
BRANCH   7  14
ATOM     14  C   UNL     1      -7.639  -9.304  17.840  0.00  0.00    +0.120 C 
BRANCH  14  16
ATOM     16  C   UNL     1      -8.778  -8.859  16.961  0.00  0.00    -0.033 A 
ATOM     17  C   UNL     1      -8.861  -9.312  15.644  0.00  0.00    +0.007 A 
ATOM     18  C   UNL     1      -9.750  -7.995  17.465  0.00  0.00    +0.007 A 
ATOM     20  C   UNL     1      -9.917  -8.900  14.830  0.00  0.00    +0.027 A 
ATOM     21  C   UNL     1     -10.805  -7.583  16.651  0.00  0.00    +0.027 A 
ATOM     22  C   UNL     1     -10.889  -8.035  15.334  0.00  0.00    +0.088 A 
BRANCH  22   1
ATOM      1  S   UNL     1     -12.211  -7.522  14.315  0.00  0.00    -0.006 S 
ATOM      4  O   UNL     1     -11.911  -7.881  12.936  0.00  0.00    -0.170 OA
ATOM      5  O   UNL     1     -13.451  -7.977  14.926  0.00  0.00    -0.170 OA
ATOM     26  C   UNL     1     -12.175  -5.745  14.407  0.00  0.00    +0.200 C 
ENDBRANCH  22   1
ENDBRANCH  14  16
ENDBRANCH   7  14
TORSDOF 7
ENDMDL
MODEL 7
REMARK VINA RESULT:      -6.2     28.005     29.440
REMARK  Name = 26744190
REMARK  9 active torsions:
REMARK  status: ('A' for Active; 'I' for Inactive)
REMARK    1  A    between atoms: S_1  and  C_22
REMARK    2  A    between atoms: S_1  and  C_26
REMARK    3  A    between atoms: O_2  and  C_12
REMARK    4  A    between atoms: O_6  and  C_29
REMARK    5  A    between atoms: O_6  and  C_30
REMARK    6  A    between atoms: N_7  and  C_14
REMARK    7  A    between atoms: C_10  and  C_15
REMARK    8  A    between atoms: C_14  and  C_16
REMARK    9  A    between atoms: C_19  and  C_23
REMARK                            x       y       z     vdW  Elec       q    Type
REMARK                         _______ _______ _______ _____ _____    ______ ____
ROOT
ATOM      7  N   UNL     1      -4.744  -9.852   9.879  0.00  0.00    -0.285 NA
ATOM     10  C   UNL     1      -5.474  -8.772  10.573  0.00  0.00    +0.149 C 
ATOM     11  C   UNL     1      -6.612  -8.385   9.613  0.00  0.00    +0.061 C 
ATOM     12  C   UNL     1      -6.412  -9.268   8.387  0.00  0.00    +0.130 C 
ATOM     13  C   UNL     1      -4.940  -9.631   8.449  0.00  0.00    +0.116 C 
ENDROOT
BRANCH  10  15
ATOM      3  O   UNL     1      -7.326  -9.240  12.099  0.00  0.00    -0.336 OA
ATOM      8  N   UNL     1      -5.300  -9.523  13.008  0.00  0.00    -0.190 NA
ATOM      9  N   UNL     1      -7.546  -9.647  13.421  0.00  0.00    -0.056 NA
ATOM     15  C   UNL     1      -5.978  -9.193  11.939  0.00  0.00    +0.245 A 
ATOM     19  C   UNL     1      -6.304  -9.794  13.890  0.00  0.00    +0.202 A 
BRANCH  19  23
ATOM     23  C   UNL     1      -6.033 -10.210  15.237  0.00  0.00    +0.023 A 
ATOM     24  C   UNL     1      -7.083 -10.373  16.140  0.00  0.00    +0.015 A 
ATOM     25  C   UNL     1      -4.721 -10.450  15.642  0.00  0.00    +0.015 A 
ATOM     27  C   UNL     1      -6.821 -10.777  17.449  0.00  0.00    +0.046 A 
ATOM     28  C   UNL     1      -4.458 -10.853  16.951  0.00  0.00    +0.046 A 
ATOM     29  C   UNL     1      -5.507 -11.016  17.855  0.00  0.00    +0.120 A 
BRANCH  29   6
ATOM      6  O   UNL     1      -5.250 -11.410  19.132  0.00  0.00    -0.495 OA
ATOM     30  C   UNL     1      -3.999 -12.051  19.375  0.00  0.00    +0.277 C 
ENDBRANCH  29   6
ENDBRANCH  19  23
ENDBRANCH  10  15
BRANCH  12   2
ATOM      2  O   UNL     1      -6.731  -8.565   7.203  0.00  0.00    -0.390 OA
ATOM     31  H   UNL     1      -6.648  -7.616   7.396  0.00  0.00    +0.210 HD
ENDBRANCH  12   2
BRANCH   7  14
ATOM     14  C   UNL     1      -3.333  -9.914  10.237  0.00  0.00    +0.120 C 
BRANCH  14  16
ATOM     16  C   UNL     1      -3.008 -11.151  11.030  0.00  0.00    -0.033 A 
ATOM     17  C   UNL     1      -2.144 -11.073  12.122  0.00  0.00    +0.007 A 
ATOM     18  C   UNL     1      -3.573 -12.376  10.674  0.00  0.00    +0.007 A 
ATOM     20  C   UNL     1      -1.843 -12.219  12.858  0.00  0.00    +0.027 A 
ATOM     21  C   UNL     1      -3.272 -13.523  11.409  0.00  0.00    +0.027 A 
ATOM     22  C   UNL     1      -2.407 -13.444  12.502  0.00  0.00    +0.088 A 
BRANCH  22   1
ATOM      1  S   UNL     1      -2.033 -14.878  13.424  0.00  0.00    -0.006 S 
ATOM      4  O   UNL     1      -0.590 -15.074  13.426  0.00  0.00    -0.170 OA
ATOM      5  O   UNL     1      -2.753 -14.801  14.687  0.00  0.00    -0.170 OA
ATOM     26  C   UNL     1      -2.734 -16.210  12.475  0.00  0.00    +0.200 C 
ENDBRANCH  22   1
ENDBRANCH  14  16
ENDBRANCH   7  14
TORSDOF 7
ENDMDL
MODEL 8
REMARK VINA RESULT:      -6.2     26.930     30.995
REMARK  Name = 26744190
REMARK  9 active torsions:
REMARK  status: ('A' for Active; 'I' for Inactive)
REMARK    1  A    between atoms: S_1  and  C_22
REMARK    2  A    between atoms: S_1  and  C_26
REMARK    3  A    between atoms: O_2  and  C_12
REMARK    4  A    between atoms: O_6  and  C_29
REMARK    5  A    between atoms: O_6  and  C_30
REMARK    6  A    between atoms: N_7  and  C_14
REMARK    7  A    between atoms: C_10  and  C_15
REMARK    8  A    between atoms: C_14  and  C_16
REMARK    9  A    between atoms: C_19  and  C_23
REMARK                            x       y       z     vdW  Elec       q    Type
REMARK                         _______ _______ _______ _____ _____    ______ ____
ROOT
ATOM      7  N   UNL     1      -8.055 -11.368  19.589  0.00  0.00    -0.285 NA
ATOM     10  C   UNL     1      -8.666 -11.476  18.248  0.00  0.00    +0.149 C 
ATOM     11  C   UNL     1      -9.225 -12.909  18.185  0.00  0.00    +0.061 C 
ATOM     12  C   UNL     1      -8.840 -13.542  19.516  0.00  0.00    +0.130 C 
ATOM     13  C   UNL     1      -7.649 -12.719  19.969  0.00  0.00    +0.116 C 
ENDROOT
BRANCH  10  15
ATOM      3  O   UNL     1     -10.690 -10.301  18.954  0.00  0.00    -0.336 OA
ATOM      8  N   UNL     1      -9.859  -9.596  16.998  0.00  0.00    -0.190 NA
ATOM      9  N   UNL     1     -11.543  -9.281  18.513  0.00  0.00    -0.056 NA
ATOM     15  C   UNL     1      -9.726 -10.422  18.004  0.00  0.00    +0.245 A 
ATOM     19  C   UNL     1     -10.986  -8.917  17.354  0.00  0.00    +0.202 A 
BRANCH  19  23
ATOM     23  C   UNL     1     -11.533  -7.876  16.531  0.00  0.00    +0.023 A 
ATOM     24  C   UNL     1     -10.738  -6.792  16.159  0.00  0.00    +0.015 A 
ATOM     25  C   UNL     1     -12.858  -7.949  16.104  0.00  0.00    +0.015 A 
ATOM     27  C   UNL     1     -11.269  -5.780  15.360  0.00  0.00    +0.046 A 
ATOM     28  C   UNL     1     -13.390  -6.937  15.305  0.00  0.00    +0.046 A 
ATOM     29  C   UNL     1     -12.595  -5.852  14.933  0.00  0.00    +0.120 A 
BRANCH  29   6
ATOM      6  O   UNL     1     -13.114  -4.864  14.153  0.00  0.00    -0.495 OA
ATOM     30  C   UNL     1     -12.350  -4.465  13.017  0.00  0.00    +0.277 C 
ENDBRANCH  29   6
ENDBRANCH  19  23
ENDBRANCH  10  15
BRANCH  12   2
ATOM      2  O   UNL     1      -8.502 -14.904  19.345  0.00  0.00    -0.390 OA
ATOM     31  H   UNL     1      -9.019 -15.242  18.594  0.00  0.00    +0.210 HD
ENDBRANCH  12   2
BRANCH   7  14
ATOM     14  C   UNL     1      -6.945 -10.426  19.640  0.00  0.00    +0.120 C 
BRANCH  14  16
ATOM     16  C   UNL     1      -5.977 -10.637  18.506  0.00  0.00    -0.033 A 
ATOM     17  C   UNL     1      -4.896 -11.505  18.664  0.00  0.00    +0.007 A 
ATOM     18  C   UNL     1      -6.163  -9.967  17.297  0.00  0.00    +0.007 A 
ATOM     20  C   UNL     1      -4.000 -11.701  17.613  0.00  0.00    +0.027 A 
ATOM     21  C   UNL     1      -5.266 -10.162  16.246  0.00  0.00    +0.027 A 
ATOM     22  C   UNL     1      -4.185 -11.030  16.404  0.00  0.00    +0.088 A 
BRANCH  22   1
ATOM      1  S   UNL     1      -3.064 -11.278  15.088  0.00  0.00    -0.006 S 
ATOM      4  O   UNL     1      -2.895 -12.708  14.877  0.00  0.00    -0.170 OA
ATOM      5  O   UNL     1      -3.476 -10.427  13.981  0.00  0.00    -0.170 OA
ATOM     26  C   UNL     1      -1.514 -10.659  15.706  0.00  0.00    +0.200 C 
ENDBRANCH  22   1
ENDBRANCH  14  16
ENDBRANCH   7  14
TORSDOF 7
ENDMDL
MODEL 9
REMARK VINA RESULT:      -6.1     13.473     17.209
REMARK  Name = 26744190
REMARK  9 active torsions:
REMARK  status: ('A' for Active; 'I' for Inactive)
REMARK    1  A    between atoms: S_1  and  C_22
REMARK    2  A    between atoms: S_1  and  C_26
REMARK    3  A    between atoms: O_2  and  C_12
REMARK    4  A    between atoms: O_6  and  C_29
REMARK    5  A    between atoms: O_6  and  C_30
REMARK    6  A    between atoms: N_7  and  C_14
REMARK    7  A    between atoms: C_10  and  C_15
REMARK    8  A    between atoms: C_14  and  C_16
REMARK    9  A    between atoms: C_19  and  C_23
REMARK                            x       y       z     vdW  Elec       q    Type
REMARK                         _______ _______ _______ _____ _____    ______ ____
ROOT
ATOM      7  N   UNL     1       9.560   7.267   7.195  0.00  0.00    -0.285 NA
ATOM     10  C   UNL     1      10.939   6.751   7.077  0.00  0.00    +0.149 C 
ATOM     11  C   UNL     1      10.946   5.452   7.902  0.00  0.00    +0.061 C 
ATOM     12  C   UNL     1       9.541   5.344   8.482  0.00  0.00    +0.130 C 
ATOM     13  C   UNL     1       9.043   6.778   8.472  0.00  0.00    +0.116 C 
ENDROOT
BRANCH  10  15
ATOM      3  O   UNL     1      12.441   7.233   5.210  0.00  0.00    -0.336 OA
ATOM      8  N   UNL     1      10.825   5.762   4.726  0.00  0.00    -0.190 NA
ATOM      9  N   UNL     1      12.632   6.874   3.870  0.00  0.00    -0.056 NA
ATOM     15  C   UNL     1      11.358   6.534   5.638  0.00  0.00    +0.245 A 
ATOM     19  C   UNL     1      11.640   6.004   3.659  0.00  0.00    +0.202 A 
BRANCH  19  23
ATOM     23  C   UNL     1      11.438   5.358   2.393  0.00  0.00    +0.023 A 
ATOM     24  C   UNL     1      10.305   5.651   1.634  0.00  0.00    +0.015 A 
ATOM     25  C   UNL     1      12.372   4.436   1.923  0.00  0.00    +0.015 A 
ATOM     27  C   UNL     1      10.107   5.024   0.405  0.00  0.00    +0.046 A 
ATOM     28  C   UNL     1      12.175   3.808   0.694  0.00  0.00    +0.046 A 
ATOM     29  C   UNL     1      11.042   4.101  -0.065  0.00  0.00    +0.120 A 
BRANCH  29   6
ATOM      6  O   UNL     1      10.850   3.487  -1.265  0.00  0.00    -0.495 OA
ATOM     30  C   UNL     1      11.972   2.820  -1.840  0.00  0.00    +0.277 C 
ENDBRANCH  29   6
ENDBRANCH  19  23
ENDBRANCH  10  15
BRANCH  12   2
ATOM      2  O   UNL     1       9.577   4.810   9.790  0.00  0.00    -0.390 OA
ATOM     31  H   UNL     1       8.658   4.657  10.069  0.00  0.00    +0.210 HD
ENDBRANCH  12   2
BRANCH   7  14
ATOM     14  C   UNL     1       9.478   8.717   7.089  0.00  0.00    +0.120 C 
BRANCH  14  16
ATOM     16  C   UNL     1       8.712   9.149   5.867  0.00  0.00    -0.033 A 
ATOM     17  C   UNL     1       8.490  10.504   5.625  0.00  0.00    +0.007 A 
ATOM     18  C   UNL     1       8.225   8.192   4.976  0.00  0.00    +0.007 A 
ATOM     20  C   UNL     1       7.781  10.904   4.492  0.00  0.00    +0.027 A 
ATOM     21  C   UNL     1       7.515   8.592   3.843  0.00  0.00    +0.027 A 
ATOM     22  C   UNL     1       7.294   9.948   3.601  0.00  0.00    +0.088 A 
BRANCH  22   1
ATOM      1  S   UNL     1       6.409  10.449   2.182  0.00  0.00    -0.006 S 
ATOM      4  O   UNL     1       5.042   9.955   2.280  0.00  0.00    -0.170 OA
ATOM      5  O   UNL     1       6.650  11.870   1.981  0.00  0.00    -0.170 OA
ATOM     26  C   UNL     1       7.183   9.567   0.845  0.00  0.00    +0.200 C 
ENDBRANCH  22   1
ENDBRANCH  14  16
ENDBRANCH   7  14
TORSDOF 7
ENDMDL
MODEL 10
REMARK VINA RESULT:      -6.1     26.512     28.899
REMARK  Name = 26744190
REMARK  9 active torsions:
REMARK  status: ('A' for Active; 'I' for Inactive)
REMARK    1  A    between atoms: S_1  and  C_22
REMARK    2  A    between atoms: S_1  and  C_26
REMARK    3  A    between atoms: O_2  and  C_12
REMARK    4  A    between atoms: O_6  and  C_29
REMARK    5  A    between atoms: O_6  and  C_30
REMARK    6  A    between atoms: N_7  and  C_14
REMARK    7  A    between atoms: C_10  and  C_15
REMARK    8  A    between atoms: C_14  and  C_16
REMARK    9  A    between atoms: C_19  and  C_23
REMARK                            x       y       z     vdW  Elec       q    Type
REMARK                         _______ _______ _______ _____ _____    ______ ____
ROOT
ATOM      7  N   UNL     1     -10.940  10.544  16.351  0.00  0.00    -0.285 NA
ATOM     10  C   UNL     1     -10.275  10.687  17.662  0.00  0.00    +0.149 C 
ATOM     11  C   UNL     1     -10.088  12.204  17.846  0.00  0.00    +0.061 C 
ATOM     12  C   UNL     1     -10.636  12.827  16.568  0.00  0.00    +0.130 C 
ATOM     13  C   UNL     1     -10.537  11.701  15.555  0.00  0.00    +0.116 C 
ENDROOT
BRANCH  10  15
ATOM      3  O   UNL     1     -11.377  10.859  19.838  0.00  0.00    -0.336 OA
ATOM      8  N   UNL     1     -11.502   8.826  18.908  0.00  0.00    -0.190 NA
ATOM      9  N   UNL     1     -12.096  10.062  20.738  0.00  0.00    -0.056 NA
ATOM     15  C   UNL     1     -11.066  10.054  18.788  0.00  0.00    +0.245 A 
ATOM     19  C   UNL     1     -12.127   8.879  20.119  0.00  0.00    +0.202 A 
BRANCH  19  23
ATOM     23  C   UNL     1     -12.777   7.730  20.683  0.00  0.00    +0.023 A 
ATOM     24  C   UNL     1     -12.015   6.668  21.171  0.00  0.00    +0.015 A 
ATOM     25  C   UNL     1     -14.169   7.676  20.743  0.00  0.00    +0.015 A 
ATOM     27  C   UNL     1     -12.646   5.552  21.719  0.00  0.00    +0.046 A 
ATOM     28  C   UNL     1     -14.800   6.559  21.290  0.00  0.00    +0.046 A 
ATOM     29  C   UNL     1     -14.039   5.497  21.778  0.00  0.00    +0.120 A 
BRANCH  29   6
ATOM      6  O   UNL     1     -14.656   4.407  22.312  0.00  0.00    -0.495 OA
ATOM     30  C   UNL     1     -15.923   4.617  22.933  0.00  0.00    +0.277 C 
ENDBRANCH  29   6
ENDBRANCH  19  23
ENDBRANCH  10  15
BRANCH  12   2
ATOM      2  O   UNL     1      -9.864  13.948  16.184  0.00  0.00    -0.390 OA
ATOM     31  H   UNL     1     -10.339  14.398  15.465  0.00  0.00    +0.210 HD
ENDBRANCH  12   2
BRANCH   7  14
ATOM     14  C   UNL     1     -10.631   9.286  15.685  0.00  0.00    +0.120 C 
BRANCH  14  16
ATOM     16  C   UNL     1     -11.866   8.622  15.137  0.00  0.00    -0.033 A 
ATOM     17  C   UNL     1     -13.055   8.652  15.866  0.00  0.00    +0.007 A 
ATOM     18  C   UNL     1     -11.821   7.980  13.900  0.00  0.00    +0.007 A 
ATOM     20  C   UNL     1     -14.200   8.037  15.358  0.00  0.00    +0.027 A 
ATOM     21  C   UNL     1     -12.966   7.365  13.392  0.00  0.00    +0.027 A 
ATOM     22  C   UNL     1     -14.155   7.394  14.121  0.00  0.00    +0.088 A 
BRANCH  22   1
ATOM      1  S   UNL     1     -15.589   6.627  13.485  0.00  0.00    -0.006 S 
ATOM      4  O   UNL     1     -15.986   5.551  14.381  0.00  0.00    -0.170 OA
ATOM      5  O   UNL     1     -16.543   7.672  13.144  0.00  0.00    -0.170 OA
ATOM     26  C   UNL     1     -15.048   5.865  11.970  0.00  0.00    +0.200 C 
ENDBRANCH  22   1
ENDBRANCH  14  16
ENDBRANCH   7  14
TORSDOF 7
ENDMDL
