MODEL 1
REMARK VINA RESULT:      -6.1      0.000      0.000
REMARK  Name = 11884504
REMARK  6 active torsions:
REMARK  status: ('A' for Active; 'I' for Inactive)
REMARK    1  A    between atoms: N_7  and  C_16
REMARK    2  A    between atoms: N_8  and  C_18
REMARK    3  A    between atoms: N_9  and  C_20
REMARK    4  A    between atoms: C_16  and  C_19
REMARK    5  A    between atoms: C_20  and  C_24
REMARK    6  A    between atoms: C_24  and  C_30
REMARK                            x       y       z     vdW  Elec       q    Type
REMARK                         _______ _______ _______ _____ _____    ______ ____
ROOT
ATOM      3  O   UNL     1      11.314   5.206   4.091  0.00  0.00    -0.273 OA
ATOM      4  O   UNL     1      14.031   7.796   1.276  0.00  0.00    -0.252 OA
ATOM      5  O   UNL     1       9.399   6.730   6.001  0.00  0.00    -0.253 OA
ATOM      6  N   UNL     1      11.694   6.971   6.100  0.00  0.00    -0.272 N 
ATOM      7  N   UNL     1      13.768   8.401   3.480  0.00  0.00    -0.275 N 
ATOM      8  N   UNL     1      12.689   6.439   2.637  0.00  0.00    -0.192 N 
ATOM      9  N   UNL     1      10.475   6.342   8.001  0.00  0.00    -0.299 N 
ATOM     10  C   UNL     1      13.173   8.192   4.780  0.00  0.00    +0.109 C 
ATOM     11  C   UNL     1      11.854   7.452   4.726  0.00  0.00    +0.185 C 
ATOM     12  C   UNL     1      14.008   7.340   5.740  0.00  0.00    +0.044 C 
ATOM     13  C   UNL     1      12.983   6.943   6.797  0.00  0.00    +0.112 C 
ATOM     14  C   UNL     1      11.916   6.244   3.807  0.00  0.00    +0.250 C 
ATOM     15  C   UNL     1      13.546   7.554   2.388  0.00  0.00    +0.316 C 
ATOM     17  C   UNL     1      10.444   6.686   6.654  0.00  0.00    +0.303 C 
ATOM     31  H   UNL     1      11.358   6.312   8.499  0.00  0.00    +0.150 HD
ENDROOT
BRANCH   8  18
ATOM      2  F   UNL     1      10.478   4.478  -1.172  0.00  0.00    -0.205 F 
ATOM     18  C   UNL     1      12.609   5.418   1.609  0.00  0.00    +0.048 A 
ATOM     21  C   UNL     1      11.562   5.445   0.699  0.00  0.00    +0.062 A 
ATOM     22  C   UNL     1      13.581   4.429   1.551  0.00  0.00    +0.024 A 
ATOM     26  C   UNL     1      11.484   4.462  -0.288  0.00  0.00    +0.125 A 
ATOM     27  C   UNL     1      13.504   3.446   0.564  0.00  0.00    +0.005 A 
ATOM     29  C   UNL     1      12.456   3.464  -0.356  0.00  0.00    +0.038 A 
ENDBRANCH   8  18
BRANCH   7  16
ATOM     16  C   UNL     1      14.674   9.538   3.358  0.00  0.00    +0.152 C 
BRANCH  16  19
ATOM      1  S   UNL     1      16.601  10.008   5.276  0.00  0.00    -0.100 S 
ATOM     19  C   UNL     1      16.016   9.171   3.913  0.00  0.00    +0.007 A 
ATOM     23  C   UNL     1      16.878   8.215   3.457  0.00  0.00    +0.013 A 
ATOM     25  C   UNL     1      18.062   8.161   4.249  0.00  0.00    +0.008 A 
ATOM     28  C   UNL     1      18.042   9.083   5.272  0.00  0.00    +0.045 A 
ENDBRANCH  16  19
ENDBRANCH   7  16
BRANCH   9  20
ATOM     20  C   UNL     1       9.278   6.011   8.737  0.00  0.00    +0.105 C 
BRANCH  20  24
ATOM     24  C   UNL     1       9.344   4.621   9.358  0.00  0.00    +0.015 C 
ATOM     30  C   UNL     1       8.569   4.522  10.665  0.00  0.00    +0.005 C 
ENDBRANCH  20  24
ENDBRANCH   9  20
TORSDOF 5
ENDMDL
MODEL 2
REMARK VINA RESULT:      -6.1      3.034      7.426
REMARK  Name = 11884504
REMARK  6 active torsions:
REMARK  status: ('A' for Active; 'I' for Inactive)
REMARK    1  A    between atoms: N_7  and  C_16
REMARK    2  A    between atoms: N_8  and  C_18
REMARK    3  A    between atoms: N_9  and  C_20
REMARK    4  A    between atoms: C_16  and  C_19
REMARK    5  A    between atoms: C_20  and  C_24
REMARK    6  A    between atoms: C_24  and  C_30
REMARK                            x       y       z     vdW  Elec       q    Type
REMARK                         _______ _______ _______ _____ _____    ______ ____
ROOT
ATOM      3  O   UNL     1      13.851   6.391   2.390  0.00  0.00    -0.273 OA
ATOM      4  O   UNL     1      11.295   8.312   5.825  0.00  0.00    -0.252 OA
ATOM      5  O   UNL     1      12.460   5.999  -0.357  0.00  0.00    -0.253 OA
ATOM      6  N   UNL     1      11.704   4.973   1.570  0.00  0.00    -0.272 N 
ATOM      7  N   UNL     1      10.364   6.698   4.477  0.00  0.00    -0.275 N 
ATOM      8  N   UNL     1      12.638   7.368   4.151  0.00  0.00    -0.192 N 
ATOM      9  N   UNL     1      12.221   3.707  -0.333  0.00  0.00    -0.299 N 
ATOM     10  C   UNL     1      10.454   5.786   3.359  0.00  0.00    +0.109 C 
ATOM     11  C   UNL     1      11.464   6.212   2.314  0.00  0.00    +0.185 C 
ATOM     12  C   UNL     1      10.905   4.369   3.719  0.00  0.00    +0.044 C 
ATOM     13  C   UNL     1      11.315   3.804   2.363  0.00  0.00    +0.112 C 
ATOM     14  C   UNL     1      12.778   6.650   2.940  0.00  0.00    +0.250 C 
ATOM     15  C   UNL     1      11.428   7.505   4.896  0.00  0.00    +0.316 C 
ATOM     17  C   UNL     1      12.150   4.969   0.247  0.00  0.00    +0.303 C 
ATOM     31  H   UNL     1      11.961   2.885   0.201  0.00  0.00    +0.150 HD
ENDROOT
BRANCH   8  18
ATOM      2  F   UNL     1      15.746  11.053   4.218  0.00  0.00    -0.205 F 
ATOM     18  C   UNL     1      13.825   8.011   4.684  0.00  0.00    +0.048 A 
ATOM     21  C   UNL     1      14.216   9.245   4.183  0.00  0.00    +0.062 A 
ATOM     22  C   UNL     1      14.551   7.383   5.686  0.00  0.00    +0.024 A 
ATOM     26  C   UNL     1      15.358   9.862   4.694  0.00  0.00    +0.125 A 
ATOM     27  C   UNL     1      15.692   8.001   6.197  0.00  0.00    +0.005 A 
ATOM     29  C   UNL     1      16.095   9.240   5.701  0.00  0.00    +0.038 A 
ENDBRANCH   8  18
BRANCH   7  16
ATOM     16  C   UNL     1       9.098   6.711   5.201  0.00  0.00    +0.152 C 
BRANCH  16  19
ATOM      1  S   UNL     1       8.955   7.008   7.941  0.00  0.00    -0.100 S 
ATOM     19  C   UNL     1       9.286   6.084   6.549  0.00  0.00    +0.007 A 
ATOM     23  C   UNL     1       9.706   4.816   6.833  0.00  0.00    +0.013 A 
ATOM     25  C   UNL     1       9.761   4.588   8.238  0.00  0.00    +0.008 A 
ATOM     28  C   UNL     1       9.378   5.698   8.958  0.00  0.00    +0.045 A 
ENDBRANCH  16  19
ENDBRANCH   7  16
BRANCH   9  20
ATOM     20  C   UNL     1      12.665   3.511  -1.693  0.00  0.00    +0.105 C 
BRANCH  20  24
ATOM     24  C   UNL     1      12.174   2.193  -2.279  0.00  0.00    +0.015 C 
ATOM     30  C   UNL     1      10.744   2.275  -2.795  0.00  0.00    +0.005 C 
ENDBRANCH  20  24
ENDBRANCH   9  20
TORSDOF 5
ENDMDL
MODEL 3
REMARK VINA RESULT:      -6.1     29.855     32.711
REMARK  Name = 11884504
REMARK  6 active torsions:
REMARK  status: ('A' for Active; 'I' for Inactive)
REMARK    1  A    between atoms: N_7  and  C_16
REMARK    2  A    between atoms: N_8  and  C_18
REMARK    3  A    between atoms: N_9  and  C_20
REMARK    4  A    between atoms: C_16  and  C_19
REMARK    5  A    between atoms: C_20  and  C_24
REMARK    6  A    between atoms: C_24  and  C_30
REMARK                            x       y       z     vdW  Elec       q    Type
REMARK                         _______ _______ _______ _____ _____    ______ ____
ROOT
ATOM      3  O   UNL     1      -9.232 -12.081  20.283  0.00  0.00    -0.273 OA
ATOM      4  O   UNL     1      -8.666 -10.805  15.803  0.00  0.00    -0.252 OA
ATOM      5  O   UNL     1     -11.775 -13.721  20.975  0.00  0.00    -0.253 OA
ATOM      6  N   UNL     1     -11.881 -11.585  20.102  0.00  0.00    -0.272 N 
ATOM      7  N   UNL     1     -10.735 -10.614  16.791  0.00  0.00    -0.275 N 
ATOM      8  N   UNL     1      -8.872 -11.426  18.054  0.00  0.00    -0.192 N 
ATOM      9  N   UNL     1     -12.964 -12.108  22.113  0.00  0.00    -0.299 N 
ATOM     10  C   UNL     1     -11.608 -10.795  17.928  0.00  0.00    +0.109 C 
ATOM     11  C   UNL     1     -11.155 -11.892  18.867  0.00  0.00    +0.185 C 
ATOM     12  C   UNL     1     -11.724  -9.578  18.849  0.00  0.00    +0.044 C 
ATOM     13  C   UNL     1     -12.315 -10.186  20.117  0.00  0.00    +0.112 C 
ATOM     14  C   UNL     1      -9.666 -11.810  19.161  0.00  0.00    +0.250 C 
ATOM     15  C   UNL     1      -9.370 -10.923  16.814  0.00  0.00    +0.316 C 
ATOM     17  C   UNL     1     -12.179 -12.558  21.057  0.00  0.00    +0.303 C 
ATOM     31  H   UNL     1     -13.270 -11.141  22.144  0.00  0.00    +0.150 HD
ENDROOT
BRANCH   8  18
ATOM      2  F   UNL     1      -4.820 -14.015  17.707  0.00  0.00    -0.205 F 
ATOM     18  C   UNL     1      -7.433 -11.546  18.194  0.00  0.00    +0.048 A 
ATOM     21  C   UNL     1      -6.813 -12.746  17.875  0.00  0.00    +0.062 A 
ATOM     22  C   UNL     1      -6.697 -10.460  18.646  0.00  0.00    +0.024 A 
ATOM     26  C   UNL     1      -5.429 -12.862  18.012  0.00  0.00    +0.125 A 
ATOM     27  C   UNL     1      -5.314 -10.575  18.782  0.00  0.00    +0.005 A 
ATOM     29  C   UNL     1      -4.680 -11.776  18.464  0.00  0.00    +0.038 A 
ENDBRANCH   8  18
BRANCH   7  16
ATOM     16  C   UNL     1     -11.340 -10.037  15.595  0.00  0.00    +0.152 C 
BRANCH  16  19
ATOM      1  S   UNL     1     -12.905  -7.768  15.729  0.00  0.00    -0.100 S 
ATOM     19  C   UNL     1     -11.390  -8.546  15.729  0.00  0.00    +0.007 A 
ATOM     23  C   UNL     1     -10.341  -7.681  15.856  0.00  0.00    +0.013 A 
ATOM     25  C   UNL     1     -10.788  -6.332  15.957  0.00  0.00    +0.008 A 
ATOM     28  C   UNL     1     -12.161  -6.237  15.902  0.00  0.00    +0.045 A 
ENDBRANCH  16  19
ENDBRANCH   7  16
BRANCH   9  20
ATOM     20  C   UNL     1     -13.366 -12.975  23.196  0.00  0.00    +0.105 C 
BRANCH  20  24
ATOM     24  C   UNL     1     -14.272 -12.270  24.198  0.00  0.00    +0.015 C 
ATOM     30  C   UNL     1     -15.622 -11.891  23.607  0.00  0.00    +0.005 C 
ENDBRANCH  20  24
ENDBRANCH   9  20
TORSDOF 5
ENDMDL
MODEL 4
REMARK VINA RESULT:      -6.1      3.960      7.848
REMARK  Name = 11884504
REMARK  6 active torsions:
REMARK  status: ('A' for Active; 'I' for Inactive)
REMARK    1  A    between atoms: N_7  and  C_16
REMARK    2  A    between atoms: N_8  and  C_18
REMARK    3  A    between atoms: N_9  and  C_20
REMARK    4  A    between atoms: C_16  and  C_19
REMARK    5  A    between atoms: C_20  and  C_24
REMARK    6  A    between atoms: C_24  and  C_30
REMARK                            x       y       z     vdW  Elec       q    Type
REMARK                         _______ _______ _______ _____ _____    ______ ____
ROOT
ATOM      3  O   UNL     1      13.257   6.581   2.689  0.00  0.00    -0.273 OA
ATOM      4  O   UNL     1       9.764   4.214   0.636  0.00  0.00    -0.252 OA
ATOM      5  O   UNL     1      15.147   8.202   0.834  0.00  0.00    -0.253 OA
ATOM      6  N   UNL     1      14.916   5.910   0.665  0.00  0.00    -0.272 N 
ATOM      7  N   UNL     1      11.868   4.174  -0.292  0.00  0.00    -0.275 N 
ATOM      8  N   UNL     1      11.472   5.388   1.732  0.00  0.00    -0.192 N 
ATOM      9  N   UNL     1      17.029   6.878   0.966  0.00  0.00    -0.299 N 
ATOM     10  C   UNL     1      13.250   4.597  -0.296  0.00  0.00    +0.109 C 
ATOM     11  C   UNL     1      13.476   5.924   0.395  0.00  0.00    +0.185 C 
ATOM     12  C   UNL     1      14.212   3.657   0.436  0.00  0.00    +0.044 C 
ATOM     13  C   UNL     1      15.438   4.541   0.637  0.00  0.00    +0.112 C 
ATOM     14  C   UNL     1      12.747   6.003   1.726  0.00  0.00    +0.250 C 
ATOM     15  C   UNL     1      10.952   4.553   0.696  0.00  0.00    +0.316 C 
ATOM     17  C   UNL     1      15.660   7.081   0.821  0.00  0.00    +0.303 C 
ATOM     31  H   UNL     1      17.409   5.938   0.954  0.00  0.00    +0.150 HD
ENDROOT
BRANCH   8  18
ATOM      2  F   UNL     1       9.766   4.021   6.028  0.00  0.00    -0.205 F 
ATOM     18  C   UNL     1      10.626   5.620   2.888  0.00  0.00    +0.048 A 
ATOM     21  C   UNL     1      10.607   4.689   3.918  0.00  0.00    +0.062 A 
ATOM     22  C   UNL     1       9.848   6.767   2.946  0.00  0.00    +0.024 A 
ATOM     26  C   UNL     1       9.793   4.912   5.028  0.00  0.00    +0.125 A 
ATOM     27  C   UNL     1       9.034   6.989   4.057  0.00  0.00    +0.005 A 
ATOM     29  C   UNL     1       9.007   6.062   5.098  0.00  0.00    +0.038 A 
ENDBRANCH   8  18
BRANCH   7  16
ATOM     16  C   UNL     1      11.464   3.273  -1.366  0.00  0.00    +0.152 C 
BRANCH  16  19
ATOM      1  S   UNL     1      10.780   5.359  -3.038  0.00  0.00    -0.100 S 
ATOM     19  C   UNL     1      11.666   3.947  -2.688  0.00  0.00    +0.007 A 
ATOM     23  C   UNL     1      12.500   3.571  -3.702  0.00  0.00    +0.013 A 
ATOM     25  C   UNL     1      12.415   4.467  -4.806  0.00  0.00    +0.008 A 
ATOM     28  C   UNL     1      11.516   5.486  -4.577  0.00  0.00    +0.045 A 
ENDBRANCH  16  19
ENDBRANCH   7  16
BRANCH   9  20
ATOM     20  C   UNL     1      17.953   7.974   1.142  0.00  0.00    +0.105 C 
BRANCH  20  24
ATOM     24  C   UNL     1      18.122   8.360   2.607  0.00  0.00    +0.015 C 
ATOM     30  C   UNL     1      19.483   7.969   3.165  0.00  0.00    +0.005 C 
ENDBRANCH  20  24
ENDBRANCH   9  20
TORSDOF 5
ENDMDL
MODEL 5
REMARK VINA RESULT:      -6.0      2.985      6.839
REMARK  Name = 11884504
REMARK  6 active torsions:
REMARK  status: ('A' for Active; 'I' for Inactive)
REMARK    1  A    between atoms: N_7  and  C_16
REMARK    2  A    between atoms: N_8  and  C_18
REMARK    3  A    between atoms: N_9  and  C_20
REMARK    4  A    between atoms: C_16  and  C_19
REMARK    5  A    between atoms: C_20  and  C_24
REMARK    6  A    between atoms: C_24  and  C_30
REMARK                            x       y       z     vdW  Elec       q    Type
REMARK                         _______ _______ _______ _____ _____    ______ ____
ROOT
ATOM      3  O   UNL     1      13.324   8.067   6.916  0.00  0.00    -0.273 OA
ATOM      4  O   UNL     1      10.169   6.661   3.740  0.00  0.00    -0.252 OA
ATOM      5  O   UNL     1      15.122  10.479   6.150  0.00  0.00    -0.253 OA
ATOM      6  N   UNL     1      15.124   8.505   4.950  0.00  0.00    -0.272 N 
ATOM      7  N   UNL     1      12.304   7.192   3.069  0.00  0.00    -0.275 N 
ATOM      8  N   UNL     1      11.706   7.322   5.382  0.00  0.00    -0.192 N 
ATOM      9  N   UNL     1      17.117   9.373   5.826  0.00  0.00    -0.299 N 
ATOM     10  C   UNL     1      13.637   7.663   3.369  0.00  0.00    +0.109 C 
ATOM     11  C   UNL     1      13.703   8.543   4.599  0.00  0.00    +0.185 C 
ATOM     12  C   UNL     1      14.654   6.562   3.676  0.00  0.00    +0.044 C 
ATOM     13  C   UNL     1      15.779   7.339   4.353  0.00  0.00    +0.112 C 
ATOM     14  C   UNL     1      12.914   7.958   5.758  0.00  0.00    +0.250 C 
ATOM     15  C   UNL     1      11.315   7.016   4.043  0.00  0.00    +0.316 C 
ATOM     17  C   UNL     1      15.743   9.525   5.676  0.00  0.00    +0.303 C 
ATOM     31  H   UNL     1      17.588   8.569   5.425  0.00  0.00    +0.150 HD
ENDROOT
BRANCH   8  18
ATOM      2  F   UNL     1       9.934   4.025   8.421  0.00  0.00    -0.205 F 
ATOM     18  C   UNL     1      10.794   6.944   6.446  0.00  0.00    +0.048 A 
ATOM     21  C   UNL     1      10.808   5.642   6.927  0.00  0.00    +0.062 A 
ATOM     22  C   UNL     1       9.920   7.888   6.964  0.00  0.00    +0.024 A 
ATOM     26  C   UNL     1       9.930   5.278   7.948  0.00  0.00    +0.125 A 
ATOM     27  C   UNL     1       9.043   7.525   7.986  0.00  0.00    +0.005 A 
ATOM     29  C   UNL     1       9.048   6.220   8.477  0.00  0.00    +0.038 A 
ENDBRANCH   8  18
BRANCH   7  16
ATOM     16  C   UNL     1      12.036   6.853   1.676  0.00  0.00    +0.152 C 
BRANCH  16  19
ATOM      1  S   UNL     1      13.740   5.316   0.144  0.00  0.00    -0.100 S 
ATOM     19  C   UNL     1      12.579   5.490   1.378  0.00  0.00    +0.007 A 
ATOM     23  C   UNL     1      12.260   4.309   1.986  0.00  0.00    +0.013 A 
ATOM     25  C   UNL     1      12.988   3.220   1.425  0.00  0.00    +0.008 A 
ATOM     28  C   UNL     1      13.830   3.628   0.413  0.00  0.00    +0.045 A 
ENDBRANCH  16  19
ENDBRANCH   7  16
BRANCH   9  20
ATOM     20  C   UNL     1      17.921  10.329   6.552  0.00  0.00    +0.105 C 
BRANCH  20  24
ATOM     24  C   UNL     1      19.415  10.097   6.357  0.00  0.00    +0.015 C 
ATOM     30  C   UNL     1      19.946   8.945   7.198  0.00  0.00    +0.005 C 
ENDBRANCH  20  24
ENDBRANCH   9  20
TORSDOF 5
ENDMDL
MODEL 6
REMARK VINA RESULT:      -5.9     42.042     43.970
REMARK  Name = 11884504
REMARK  6 active torsions:
REMARK  status: ('A' for Active; 'I' for Inactive)
REMARK    1  A    between atoms: N_7  and  C_16
REMARK    2  A    between atoms: N_8  and  C_18
REMARK    3  A    between atoms: N_9  and  C_20
REMARK    4  A    between atoms: C_16  and  C_19
REMARK    5  A    between atoms: C_20  and  C_24
REMARK    6  A    between atoms: C_24  and  C_30
REMARK                            x       y       z     vdW  Elec       q    Type
REMARK                         _______ _______ _______ _____ _____    ______ ____
ROOT
ATOM      3  O   UNL     1     -10.194  -6.535  39.278  0.00  0.00    -0.273 OA
ATOM      4  O   UNL     1      -6.858  -5.043  42.222  0.00  0.00    -0.252 OA
ATOM      5  O   UNL     1     -11.338  -9.380  39.765  0.00  0.00    -0.253 OA
ATOM      6  N   UNL     1      -9.108  -9.009  39.286  0.00  0.00    -0.272 N 
ATOM      7  N   UNL     1      -6.782  -7.193  41.408  0.00  0.00    -0.275 N 
ATOM      8  N   UNL     1      -8.535  -5.713  40.727  0.00  0.00    -0.192 N 
ATOM      9  N   UNL     1     -10.383 -10.479  37.979  0.00  0.00    -0.299 N 
ATOM     10  C   UNL     1      -7.351  -8.260  40.617  0.00  0.00    +0.109 C 
ATOM     11  C   UNL     1      -8.850  -8.144  40.439  0.00  0.00    +0.185 C 
ATOM     12  C   UNL     1      -6.837  -8.339  39.178  0.00  0.00    +0.044 C 
ATOM     13  C   UNL     1      -7.886  -9.219  38.506  0.00  0.00    +0.112 C 
ATOM     14  C   UNL     1      -9.270  -6.730  40.073  0.00  0.00    +0.250 C 
ATOM     15  C   UNL     1      -7.346  -5.914  41.492  0.00  0.00    +0.316 C 
ATOM     17  C   UNL     1     -10.350  -9.608  39.063  0.00  0.00    +0.303 C 
ATOM     31  H   UNL     1      -9.548 -10.634  37.424  0.00  0.00    +0.150 HD
ENDROOT
BRANCH   8  18
ATOM      2  F   UNL     1      -8.462  -1.399  38.576  0.00  0.00    -0.205 F 
ATOM     18  C   UNL     1      -9.026  -4.353  40.605  0.00  0.00    +0.048 A 
ATOM     21  C   UNL     1      -8.495  -3.520  39.630  0.00  0.00    +0.062 A 
ATOM     22  C   UNL     1     -10.018  -3.905  41.466  0.00  0.00    +0.024 A 
ATOM     26  C   UNL     1      -8.966  -2.212  39.513  0.00  0.00    +0.125 A 
ATOM     27  C   UNL     1     -10.489  -2.597  41.349  0.00  0.00    +0.005 A 
ATOM     29  C   UNL     1      -9.963  -1.752  40.373  0.00  0.00    +0.038 A 
ENDBRANCH   8  18
BRANCH   7  16
ATOM     16  C   UNL     1      -5.533  -7.495  42.099  0.00  0.00    +0.152 C 
BRANCH  16  19
ATOM      1  S   UNL     1      -3.434  -5.734  42.426  0.00  0.00    -0.100 S 
ATOM     19  C   UNL     1      -4.410  -6.738  41.458  0.00  0.00    +0.007 A 
ATOM     23  C   UNL     1      -4.042  -6.740  40.143  0.00  0.00    +0.013 A 
ATOM     25  C   UNL     1      -2.921  -5.891  39.914  0.00  0.00    +0.008 A 
ATOM     28  C   UNL     1      -2.490  -5.281  41.072  0.00  0.00    +0.045 A 
ENDBRANCH  16  19
ENDBRANCH   7  16
BRANCH   9  20
ATOM     20  C   UNL     1     -11.584 -11.185  37.597  0.00  0.00    +0.105 C 
BRANCH  20  24
ATOM     24  C   UNL     1     -12.263 -10.560  36.385  0.00  0.00    +0.015 C 
ATOM     30  C   UNL     1     -12.837 -11.598  35.431  0.00  0.00    +0.005 C 
ENDBRANCH  20  24
ENDBRANCH   9  20
TORSDOF 5
ENDMDL
MODEL 7
REMARK VINA RESULT:      -5.9      2.270      5.906
REMARK  Name = 11884504
REMARK  6 active torsions:
REMARK  status: ('A' for Active; 'I' for Inactive)
REMARK    1  A    between atoms: N_7  and  C_16
REMARK    2  A    between atoms: N_8  and  C_18
REMARK    3  A    between atoms: N_9  and  C_20
REMARK    4  A    between atoms: C_16  and  C_19
REMARK    5  A    between atoms: C_20  and  C_24
REMARK    6  A    between atoms: C_24  and  C_30
REMARK                            x       y       z     vdW  Elec       q    Type
REMARK                         _______ _______ _______ _____ _____    ______ ____
ROOT
ATOM      3  O   UNL     1      14.253   6.988   2.831  0.00  0.00    -0.273 OA
ATOM      4  O   UNL     1      10.139   4.756   3.161  0.00  0.00    -0.252 OA
ATOM      5  O   UNL     1      15.697   7.689   5.489  0.00  0.00    -0.253 OA
ATOM      6  N   UNL     1      13.607   8.518   4.961  0.00  0.00    -0.272 N 
ATOM      7  N   UNL     1      10.596   6.518   4.567  0.00  0.00    -0.275 N 
ATOM      8  N   UNL     1      12.198   5.850   2.919  0.00  0.00    -0.192 N 
ATOM      9  N   UNL     1      15.364   9.969   5.506  0.00  0.00    -0.299 N 
ATOM     10  C   UNL     1      11.495   7.541   5.052  0.00  0.00    +0.109 C 
ATOM     11  C   UNL     1      12.956   7.212   4.833  0.00  0.00    +0.185 C 
ATOM     12  C   UNL     1      11.342   8.905   4.374  0.00  0.00    +0.044 C 
ATOM     13  C   UNL     1      12.644   9.603   4.753  0.00  0.00    +0.112 C 
ATOM     14  C   UNL     1      13.217   6.690   3.430  0.00  0.00    +0.250 C 
ATOM     15  C   UNL     1      10.914   5.654   3.513  0.00  0.00    +0.316 C 
ATOM     17  C   UNL     1      14.946   8.654   5.332  0.00  0.00    +0.303 C 
ATOM     31  H   UNL     1      14.714  10.734   5.362  0.00  0.00    +0.150 HD
ENDROOT
BRANCH   8  18
ATOM      2  F   UNL     1      12.024   5.536  -1.888  0.00  0.00    -0.205 F 
ATOM     18  C   UNL     1      12.479   5.135   1.689  0.00  0.00    +0.048 A 
ATOM     21  C   UNL     1      12.108   5.694   0.474  0.00  0.00    +0.062 A 
ATOM     22  C   UNL     1      13.113   3.902   1.744  0.00  0.00    +0.024 A 
ATOM     26  C   UNL     1      12.377   5.006  -0.709  0.00  0.00    +0.125 A 
ATOM     27  C   UNL     1      13.382   3.214   0.561  0.00  0.00    +0.005 A 
ATOM     29  C   UNL     1      13.015   3.767  -0.665  0.00  0.00    +0.038 A 
ENDBRANCH   8  18
BRANCH   7  16
ATOM     16  C   UNL     1       9.288   6.449   5.208  0.00  0.00    +0.152 C 
BRANCH  16  19
ATOM      1  S   UNL     1       9.122   6.854   7.933  0.00  0.00    -0.100 S 
ATOM     19  C   UNL     1       9.433   5.866   6.580  0.00  0.00    +0.007 A 
ATOM     23  C   UNL     1       9.797   4.594   6.916  0.00  0.00    +0.013 A 
ATOM     25  C   UNL     1       9.825   4.415   8.329  0.00  0.00    +0.008 A 
ATOM     28  C   UNL     1       9.478   5.566   9.003  0.00  0.00    +0.045 A 
ENDBRANCH  16  19
ENDBRANCH   7  16
BRANCH   9  20
ATOM     20  C   UNL     1      16.718  10.300   5.886  0.00  0.00    +0.105 C 
BRANCH  20  24
ATOM     24  C   UNL     1      17.550  10.785   4.704  0.00  0.00    +0.015 C 
ATOM     30  C   UNL     1      18.320   9.660   4.026  0.00  0.00    +0.005 C 
ENDBRANCH  20  24
ENDBRANCH   9  20
TORSDOF 5
ENDMDL
MODEL 8
REMARK VINA RESULT:      -5.9     26.447     31.088
REMARK  Name = 11884504
REMARK  6 active torsions:
REMARK  status: ('A' for Active; 'I' for Inactive)
REMARK    1  A    between atoms: N_7  and  C_16
REMARK    2  A    between atoms: N_8  and  C_18
REMARK    3  A    between atoms: N_9  and  C_20
REMARK    4  A    between atoms: C_16  and  C_19
REMARK    5  A    between atoms: C_20  and  C_24
REMARK    6  A    between atoms: C_24  and  C_30
REMARK                            x       y       z     vdW  Elec       q    Type
REMARK                         _______ _______ _______ _____ _____    ______ ____
ROOT
ATOM      3  O   UNL     1      -7.605  -9.654  15.463  0.00  0.00    -0.273 OA
ATOM      4  O   UNL     1     -11.258 -10.365  18.320  0.00  0.00    -0.252 OA
ATOM      5  O   UNL     1      -5.782 -12.094  14.865  0.00  0.00    -0.253 OA
ATOM      6  N   UNL     1      -6.075 -11.263  17.000  0.00  0.00    -0.272 N 
ATOM      7  N   UNL     1      -9.209 -11.271  18.842  0.00  0.00    -0.275 N 
ATOM      8  N   UNL     1      -9.467  -9.941  16.869  0.00  0.00    -0.192 N 
ATOM      9  N   UNL     1      -3.927 -11.487  16.089  0.00  0.00    -0.299 N 
ATOM     10  C   UNL     1      -7.820 -11.508  18.522  0.00  0.00    +0.109 C 
ATOM     11  C   UNL     1      -7.526 -11.457  17.038  0.00  0.00    +0.185 C 
ATOM     12  C   UNL     1      -6.842 -10.485  19.104  0.00  0.00    +0.044 C 
ATOM     13  C   UNL     1      -5.586 -10.727  18.273  0.00  0.00    +0.112 C 
ATOM     14  C   UNL     1      -8.180 -10.259  16.371  0.00  0.00    +0.250 C 
ATOM     15  C   UNL     1     -10.061 -10.502  18.040  0.00  0.00    +0.316 C 
ATOM     17  C   UNL     1      -5.296 -11.650  15.907  0.00  0.00    +0.303 C 
ATOM     31  H   UNL     1      -3.569 -11.112  16.961  0.00  0.00    +0.150 HD
ENDROOT
BRANCH   8  18
ATOM      2  F   UNL     1     -11.161  -5.459  16.347  0.00  0.00    -0.205 F 
ATOM     18  C   UNL     1     -10.242  -8.961  16.132  0.00  0.00    +0.048 A 
ATOM     21  C   UNL     1     -10.326  -7.659  16.606  0.00  0.00    +0.062 A 
ATOM     22  C   UNL     1     -10.891  -9.340  14.965  0.00  0.00    +0.024 A 
ATOM     26  C   UNL     1     -11.073  -6.718  15.899  0.00  0.00    +0.125 A 
ATOM     27  C   UNL     1     -11.638  -8.398  14.258  0.00  0.00    +0.005 A 
ATOM     29  C   UNL     1     -11.728  -7.087  14.725  0.00  0.00    +0.038 A 
ENDBRANCH   8  18
BRANCH   7  16
ATOM     16  C   UNL     1      -9.692 -11.842  20.094  0.00  0.00    +0.152 C 
BRANCH  16  19
ATOM      1  S   UNL     1     -10.768 -14.012  18.772  0.00  0.00    -0.100 S 
ATOM     19  C   UNL     1      -9.764 -13.333  19.969  0.00  0.00    +0.007 A 
ATOM     23  C   UNL     1      -9.109 -14.270  20.715  0.00  0.00    +0.013 A 
ATOM     25  C   UNL     1      -9.436 -15.592  20.297  0.00  0.00    +0.008 A 
ATOM     28  C   UNL     1     -10.329 -15.596  19.247  0.00  0.00    +0.045 A 
ENDBRANCH  16  19
ENDBRANCH   7  16
BRANCH   9  20
ATOM     20  C   UNL     1      -2.970 -11.830  15.063  0.00  0.00    +0.105 C 
BRANCH  20  24
ATOM     24  C   UNL     1      -2.076 -10.654  14.688  0.00  0.00    +0.015 C 
ATOM     30  C   UNL     1      -1.117 -10.264  15.804  0.00  0.00    +0.005 C 
ENDBRANCH  20  24
ENDBRANCH   9  20
TORSDOF 5
ENDMDL
MODEL 9
REMARK VINA RESULT:      -5.9      3.285      4.750
REMARK  Name = 11884504
REMARK  6 active torsions:
REMARK  status: ('A' for Active; 'I' for Inactive)
REMARK    1  A    between atoms: N_7  and  C_16
REMARK    2  A    between atoms: N_8  and  C_18
REMARK    3  A    between atoms: N_9  and  C_20
REMARK    4  A    between atoms: C_16  and  C_19
REMARK    5  A    between atoms: C_20  and  C_24
REMARK    6  A    between atoms: C_24  and  C_30
REMARK                            x       y       z     vdW  Elec       q    Type
REMARK                         _______ _______ _______ _____ _____    ______ ____
ROOT
ATOM      3  O   UNL     1      11.503   4.517   2.923  0.00  0.00    -0.273 OA
ATOM      4  O   UNL     1      10.947   7.501  -0.655  0.00  0.00    -0.252 OA
ATOM      5  O   UNL     1       9.350   4.574   5.159  0.00  0.00    -0.253 OA
ATOM      6  N   UNL     1      10.654   6.412   4.650  0.00  0.00    -0.272 N 
ATOM      7  N   UNL     1      10.587   8.224   1.499  0.00  0.00    -0.275 N 
ATOM      8  N   UNL     1      11.277   5.969   1.088  0.00  0.00    -0.192 N 
ATOM      9  N   UNL     1      10.578   5.570   6.836  0.00  0.00    -0.299 N 
ATOM     10  C   UNL     1      10.520   7.963   2.919  0.00  0.00    +0.109 C 
ATOM     11  C   UNL     1      10.226   6.517   3.254  0.00  0.00    +0.185 C 
ATOM     12  C   UNL     1      11.817   8.239   3.684  0.00  0.00    +0.044 C 
ATOM     13  C   UNL     1      11.587   7.489   4.993  0.00  0.00    +0.112 C 
ATOM     14  C   UNL     1      11.070   5.560   2.427  0.00  0.00    +0.250 C 
ATOM     15  C   UNL     1      10.953   7.255   0.557  0.00  0.00    +0.316 C 
ATOM     17  C   UNL     1      10.134   5.454   5.523  0.00  0.00    +0.303 C 
ATOM     31  H   UNL     1      11.227   6.306   7.092  0.00  0.00    +0.150 HD
ENDROOT
BRANCH   8  18
ATOM      2  F   UNL     1      10.849   2.436  -2.163  0.00  0.00    -0.205 F 
ATOM     18  C   UNL     1      11.874   5.006   0.183  0.00  0.00    +0.048 A 
ATOM     21  C   UNL     1      11.055   4.173  -0.566  0.00  0.00    +0.062 A 
ATOM     22  C   UNL     1      13.256   4.931   0.079  0.00  0.00    +0.024 A 
ATOM     26  C   UNL     1      11.629   3.246  -1.436  0.00  0.00    +0.125 A 
ATOM     27  C   UNL     1      13.830   4.004  -0.790  0.00  0.00    +0.005 A 
ATOM     29  C   UNL     1      13.017   3.162  -1.548  0.00  0.00    +0.038 A 
ENDBRANCH   8  18
BRANCH   7  16
ATOM     16  C   UNL     1      10.293   9.589   1.077  0.00  0.00    +0.152 C 
BRANCH  16  19
ATOM      1  S   UNL     1       8.024  10.604   2.275  0.00  0.00    -0.100 S 
ATOM     19  C   UNL     1       8.809   9.782   1.006  0.00  0.00    +0.007 A 
ATOM     23  C   UNL     1       7.956   9.373   0.022  0.00  0.00    +0.013 A 
ATOM     25  C   UNL     1       6.611   9.742   0.311  0.00  0.00    +0.008 A 
ATOM     28  C   UNL     1       6.506  10.418   1.507  0.00  0.00    +0.045 A 
ENDBRANCH  16  19
ENDBRANCH   7  16
BRANCH   9  20
ATOM     20  C   UNL     1      10.148   4.663   7.875  0.00  0.00    +0.105 C 
BRANCH  20  24
ATOM     24  C   UNL     1       9.409   5.378   8.999  0.00  0.00    +0.015 C 
ATOM     30  C   UNL     1       9.067   4.454  10.160  0.00  0.00    +0.005 C 
ENDBRANCH  20  24
ENDBRANCH   9  20
TORSDOF 5
ENDMDL
MODEL 10
REMARK VINA RESULT:      -5.8     38.198     40.031
REMARK  Name = 11884504
REMARK  6 active torsions:
REMARK  status: ('A' for Active; 'I' for Inactive)
REMARK    1  A    between atoms: N_7  and  C_16
REMARK    2  A    between atoms: N_8  and  C_18
REMARK    3  A    between atoms: N_9  and  C_20
REMARK    4  A    between atoms: C_16  and  C_19
REMARK    5  A    between atoms: C_20  and  C_24
REMARK    6  A    between atoms: C_24  and  C_30
REMARK                            x       y       z     vdW  Elec       q    Type
REMARK                         _______ _______ _______ _____ _____    ______ ____
ROOT
ATOM      3  O   UNL     1     -13.527   4.121  33.214  0.00  0.00    -0.273 OA
ATOM      4  O   UNL     1     -17.472   3.623  30.723  0.00  0.00    -0.252 OA
ATOM      5  O   UNL     1     -13.774   5.478  35.995  0.00  0.00    -0.253 OA
ATOM      6  N   UNL     1     -14.341   6.562  34.035  0.00  0.00    -0.272 N 
ATOM      7  N   UNL     1     -17.058   5.602  31.819  0.00  0.00    -0.275 N 
ATOM      8  N   UNL     1     -15.466   3.818  31.919  0.00  0.00    -0.192 N 
ATOM      9  N   UNL     1     -12.785   7.503  35.514  0.00  0.00    -0.299 N 
ATOM     10  C   UNL     1     -16.232   6.412  32.684  0.00  0.00    +0.109 C 
ATOM     11  C   UNL     1     -15.366   5.600  33.624  0.00  0.00    +0.185 C 
ATOM     12  C   UNL     1     -15.217   7.299  31.959  0.00  0.00    +0.044 C 
ATOM     13  C   UNL     1     -14.250   7.668  33.079  0.00  0.00    +0.112 C 
ATOM     14  C   UNL     1     -14.676   4.450  32.910  0.00  0.00    +0.250 C 
ATOM     15  C   UNL     1     -16.713   4.305  31.422  0.00  0.00    +0.316 C 
ATOM     17  C   UNL     1     -13.644   6.444  35.239  0.00  0.00    +0.303 C 
ATOM     31  H   UNL     1     -12.704   8.276  34.862  0.00  0.00    +0.150 HD
ENDROOT
BRANCH   8  18
ATOM      2  F   UNL     1     -15.171  -0.993  31.962  0.00  0.00    -0.205 F 
ATOM     18  C   UNL     1     -14.964   2.578  31.359  0.00  0.00    +0.048 A 
ATOM     21  C   UNL     1     -15.319   1.370  31.944  0.00  0.00    +0.062 A 
ATOM     22  C   UNL     1     -14.134   2.617  30.247  0.00  0.00    +0.024 A 
ATOM     26  C   UNL     1     -14.835   0.178  31.406  0.00  0.00    +0.125 A 
ATOM     27  C   UNL     1     -13.650   1.425  29.709  0.00  0.00    +0.005 A 
ATOM     29  C   UNL     1     -14.001   0.206  30.288  0.00  0.00    +0.038 A 
ENDBRANCH   8  18
BRANCH   7  16
ATOM     16  C   UNL     1     -18.281   6.224  31.322  0.00  0.00    +0.152 C 
BRANCH  16  19
ATOM      1  S   UNL     1     -18.268   8.805  30.346  0.00  0.00    -0.100 S 
ATOM     19  C   UNL     1     -17.950   7.140  30.184  0.00  0.00    +0.007 A 
ATOM     23  C   UNL     1     -17.404   6.812  28.976  0.00  0.00    +0.013 A 
ATOM     25  C   UNL     1     -17.238   7.961  28.150  0.00  0.00    +0.008 A 
ATOM     28  C   UNL     1     -17.668   9.112  28.773  0.00  0.00    +0.045 A 
ENDBRANCH  16  19
ENDBRANCH   7  16
BRANCH   9  20
ATOM     20  C   UNL     1     -11.980   7.549  36.712  0.00  0.00    +0.105 C 
BRANCH  20  24
ATOM     24  C   UNL     1     -10.797   8.500  36.580  0.00  0.00    +0.015 C 
ATOM     30  C   UNL     1      -9.523   7.944  37.201  0.00  0.00    +0.005 C 
ENDBRANCH  20  24
ENDBRANCH   9  20
TORSDOF 5
ENDMDL
