MODEL 1
REMARK VINA RESULT:      -7.4      0.000      0.000
REMARK  Name = 7049381
REMARK  9 active torsions:
REMARK  status: ('A' for Active; 'I' for Inactive)
REMARK    1  A    between atoms: S_1  and  C_24
REMARK    2  A    between atoms: S_1  and  C_28
REMARK    3  A    between atoms: O_5  and  C_23
REMARK    4  A    between atoms: O_5  and  C_26
REMARK    5  A    between atoms: N_11  and  C_15
REMARK    6  A    between atoms: N_12  and  C_27
REMARK    7  A    between atoms: C_13  and  C_18
REMARK    8  A    between atoms: C_17  and  C_23
REMARK    9  A    between atoms: C_22  and  C_24
REMARK                            x       y       z     vdW  Elec       q    Type
REMARK                         _______ _______ _______ _____ _____    ______ ____
ROOT
ATOM      6  O   UNL     1      11.757  11.465  22.284  0.00  0.00    -0.275 OA
ATOM      9  N   UNL     1      14.071  11.415  22.346  0.00  0.00    -0.287 N 
ATOM     13  C   UNL     1      14.262  11.130  20.932  0.00  0.00    +0.164 C 
ATOM     14  C   UNL     1      15.749  11.370  20.676  0.00  0.00    +0.056 C 
ATOM     15  C   UNL     1      16.411  11.145  22.038  0.00  0.00    +0.094 C 
ATOM     16  C   UNL     1      15.348  11.609  23.030  0.00  0.00    +0.131 C 
ATOM     22  C   UNL     1      12.815  11.640  22.891  0.00  0.00    +0.226 C 
ENDROOT
BRANCH  13  18
ATOM      4  O   UNL     1      13.988   8.858  21.563  0.00  0.00    -0.274 OA
ATOM     10  N   UNL     1      13.414   9.433  19.395  0.00  0.00    -0.286 N 
ATOM     17  C   UNL     1      13.156   8.078  18.927  0.00  0.00    +0.185 C 
ATOM     18  C   UNL     1      13.884   9.703  20.671  0.00  0.00    +0.237 C 
ATOM     19  C   UNL     1      13.274  10.401  18.311  0.00  0.00    +0.109 C 
ATOM     20  C   UNL     1      13.118   8.194  17.408  0.00  0.00    +0.035 C 
ATOM     21  C   UNL     1      12.632   9.622  17.173  0.00  0.00    +0.021 C 
BRANCH  17  23
ATOM      7  O   UNL     1      10.820   8.355  19.444  0.00  0.00    -0.249 OA
ATOM     23  C   UNL     1      11.828   7.663  19.487  0.00  0.00    +0.328 C 
BRANCH  23   5
ATOM      5  O   UNL     1      11.933   6.419  20.037  0.00  0.00    -0.467 OA
ATOM     26  C   UNL     1      11.412   6.287  21.363  0.00  0.00    +0.280 C 
ENDBRANCH  23   5
ENDBRANCH  17  23
ENDBRANCH  13  18
BRANCH  15  11
ATOM      8  O   UNL     1      18.761   9.819  21.077  0.00  0.00    -0.252 OA
ATOM     11  N   UNL     1      16.763   9.762  22.240  0.00  0.00    -0.295 N 
ATOM     12  N   UNL     1      18.010   7.837  22.087  0.00  0.00    -0.267 N 
ATOM     25  C   UNL     1      17.937   9.188  21.735  0.00  0.00    +0.304 C 
ATOM     34  H   UNL     1      16.103   9.159  22.721  0.00  0.00    +0.151 HD
ATOM     35  H   UNL     1      17.241   7.464  22.638  0.00  0.00    +0.156 HD
BRANCH  12  27
ATOM      2  F   UNL     1      17.980   6.383  19.710  0.00  0.00    -0.203 F 
ATOM      3  F   UNL     1      22.027   4.220  20.860  0.00  0.00    -0.205 F 
ATOM     27  C   UNL     1      19.033   6.912  21.772  0.00  0.00    +0.070 A 
ATOM     29  C   UNL     1      18.989   6.200  20.573  0.00  0.00    +0.147 A 
ATOM     30  C   UNL     1      20.088   6.714  22.663  0.00  0.00    +0.029 A 
ATOM     31  C   UNL     1      20.001   5.291  20.266  0.00  0.00    +0.078 A 
ATOM     32  C   UNL     1      21.099   5.804  22.354  0.00  0.00    +0.040 A 
ATOM     33  C   UNL     1      21.055   5.092  21.156  0.00  0.00    +0.126 A 
ENDBRANCH  12  27
ENDBRANCH  15  11
BRANCH  22  24
ATOM     24  C   UNL     1      12.802  12.115  24.322  0.00  0.00    +0.164 C 
BRANCH  24   1
ATOM      1  S   UNL     1      11.174  11.762  25.000  0.00  0.00    -0.155 S 
ATOM     28  C   UNL     1      10.727  13.432  25.536  0.00  0.00    +0.085 C 
ENDBRANCH  24   1
ENDBRANCH  22  24
TORSDOF 7
ENDMDL
MODEL 2
REMARK VINA RESULT:      -6.1      9.504     12.553
REMARK  Name = 7049381
REMARK  9 active torsions:
REMARK  status: ('A' for Active; 'I' for Inactive)
REMARK    1  A    between atoms: S_1  and  C_24
REMARK    2  A    between atoms: S_1  and  C_28
REMARK    3  A    between atoms: O_5  and  C_23
REMARK    4  A    between atoms: O_5  and  C_26
REMARK    5  A    between atoms: N_11  and  C_15
REMARK    6  A    between atoms: N_12  and  C_27
REMARK    7  A    between atoms: C_13  and  C_18
REMARK    8  A    between atoms: C_17  and  C_23
REMARK    9  A    between atoms: C_22  and  C_24
REMARK                            x       y       z     vdW  Elec       q    Type
REMARK                         _______ _______ _______ _____ _____    ______ ____
ROOT
ATOM      6  O   UNL     1      24.925   3.596  26.466  0.00  0.00    -0.275 OA
ATOM      9  N   UNL     1      23.665   1.687  26.822  0.00  0.00    -0.287 N 
ATOM     13  C   UNL     1      23.976   1.051  25.551  0.00  0.00    +0.164 C 
ATOM     14  C   UNL     1      23.496  -0.392  25.701  0.00  0.00    +0.056 C 
ATOM     15  C   UNL     1      22.392  -0.317  26.759  0.00  0.00    +0.094 C 
ATOM     16  C   UNL     1      22.848   0.819  27.669  0.00  0.00    +0.131 C 
ATOM     22  C   UNL     1      24.241   2.888  27.207  0.00  0.00    +0.226 C 
ENDROOT
BRANCH  13  18
ATOM      4  O   UNL     1      22.135   2.271  24.682  0.00  0.00    -0.274 OA
ATOM     10  N   UNL     1      23.881   1.813  23.234  0.00  0.00    -0.286 N 
ATOM     17  C   UNL     1      23.237   2.325  22.031  0.00  0.00    +0.185 C 
ATOM     18  C   UNL     1      23.236   1.765  24.460  0.00  0.00    +0.237 C 
ATOM     19  C   UNL     1      25.183   1.229  22.926  0.00  0.00    +0.109 C 
ATOM     20  C   UNL     1      24.077   1.781  20.881  0.00  0.00    +0.035 C 
ATOM     21  C   UNL     1      25.470   1.646  21.492  0.00  0.00    +0.021 C 
BRANCH  17  23
ATOM      7  O   UNL     1      24.010   4.443  22.875  0.00  0.00    -0.249 OA
ATOM     23  C   UNL     1      23.294   3.822  22.103  0.00  0.00    +0.328 C 
BRANCH  23   5
ATOM      5  O   UNL     1      22.435   4.355  21.187  0.00  0.00    -0.467 OA
ATOM     26  C   UNL     1      21.305   5.042  21.732  0.00  0.00    +0.280 C 
ENDBRANCH  23   5
ENDBRANCH  17  23
ENDBRANCH  13  18
BRANCH  15  11
ATOM      8  O   UNL     1      20.649  -2.216  25.509  0.00  0.00    -0.252 OA
ATOM     11  N   UNL     1      21.104  -0.047  26.170  0.00  0.00    -0.295 N 
ATOM     12  N   UNL     1      19.120  -0.483  25.094  0.00  0.00    -0.267 N 
ATOM     25  C   UNL     1      20.310  -1.037  25.577  0.00  0.00    +0.304 C 
ATOM     34  H   UNL     1      20.782   0.915  26.131  0.00  0.00    +0.151 HD
ATOM     35  H   UNL     1      18.991   0.516  25.229  0.00  0.00    +0.156 HD
BRANCH  12  27
ATOM      2  F   UNL     1      17.205  -1.936  26.503  0.00  0.00    -0.203 F 
ATOM      3  F   UNL     1      14.964  -3.070  22.495  0.00  0.00    -0.205 F 
ATOM     27  C   UNL     1      18.059  -1.145  24.433  0.00  0.00    +0.070 A 
ATOM     29  C   UNL     1      17.116  -1.864  25.168  0.00  0.00    +0.147 A 
ATOM     30  C   UNL     1      17.957  -1.077  23.044  0.00  0.00    +0.029 A 
ATOM     31  C   UNL     1      16.071  -2.514  24.512  0.00  0.00    +0.078 A 
ATOM     32  C   UNL     1      16.911  -1.728  22.389  0.00  0.00    +0.040 A 
ATOM     33  C   UNL     1      15.969  -2.447  23.123  0.00  0.00    +0.126 A 
ENDBRANCH  12  27
ENDBRANCH  15  11
BRANCH  22  24
ATOM     24  C   UNL     1      23.970   3.315  28.628  0.00  0.00    +0.164 C 
BRANCH  24   1
ATOM      1  S   UNL     1      23.507   5.052  28.599  0.00  0.00    -0.155 S 
ATOM     28  C   UNL     1      21.957   4.913  27.677  0.00  0.00    +0.085 C 
ENDBRANCH  24   1
ENDBRANCH  22  24
TORSDOF 7
ENDMDL
MODEL 3
REMARK VINA RESULT:      -5.9     15.554     17.760
REMARK  Name = 7049381
REMARK  9 active torsions:
REMARK  status: ('A' for Active; 'I' for Inactive)
REMARK    1  A    between atoms: S_1  and  C_24
REMARK    2  A    between atoms: S_1  and  C_28
REMARK    3  A    between atoms: O_5  and  C_23
REMARK    4  A    between atoms: O_5  and  C_26
REMARK    5  A    between atoms: N_11  and  C_15
REMARK    6  A    between atoms: N_12  and  C_27
REMARK    7  A    between atoms: C_13  and  C_18
REMARK    8  A    between atoms: C_17  and  C_23
REMARK    9  A    between atoms: C_22  and  C_24
REMARK                            x       y       z     vdW  Elec       q    Type
REMARK                         _______ _______ _______ _____ _____    ______ ____
ROOT
ATOM      6  O   UNL     1      11.009   5.949   4.818  0.00  0.00    -0.275 OA
ATOM      9  N   UNL     1      12.740   7.484   4.891  0.00  0.00    -0.287 N 
ATOM     13  C   UNL     1      12.784   7.743   3.460  0.00  0.00    +0.164 C 
ATOM     14  C   UNL     1      13.659   8.987   3.308  0.00  0.00    +0.056 C 
ATOM     15  C   UNL     1      14.560   8.971   4.546  0.00  0.00    +0.094 C 
ATOM     16  C   UNL     1      13.679   8.337   5.619  0.00  0.00    +0.131 C 
ATOM     22  C   UNL     1      11.786   6.655   5.463  0.00  0.00    +0.226 C 
ENDROOT
BRANCH  13  18
ATOM      4  O   UNL     1      14.515   6.160   3.093  0.00  0.00    -0.274 OA
ATOM     10  N   UNL     1      12.607   5.965   1.797  0.00  0.00    -0.286 N 
ATOM     17  C   UNL     1      13.106   4.908   0.927  0.00  0.00    +0.185 C 
ATOM     18  C   UNL     1      13.392   6.557   2.774  0.00  0.00    +0.237 C 
ATOM     19  C   UNL     1      11.275   6.400   1.387  0.00  0.00    +0.109 C 
ATOM     20  C   UNL     1      12.133   4.882  -0.246  0.00  0.00    +0.035 C 
ATOM     21  C   UNL     1      10.822   5.366   0.368  0.00  0.00    +0.021 C 
BRANCH  17  23
ATOM      7  O   UNL     1      12.051   3.176   2.225  0.00  0.00    -0.249 OA
ATOM     23  C   UNL     1      13.064   3.631   1.713  0.00  0.00    +0.328 C 
BRANCH  23   5
ATOM      5  O   UNL     1      14.311   3.083   1.759  0.00  0.00    -0.467 OA
ATOM     26  C   UNL     1      15.284   3.694   0.906  0.00  0.00    +0.280 C 
ENDBRANCH  23   5
ENDBRANCH  17  23
ENDBRANCH  13  18
BRANCH  15  11
ATOM      8  O   UNL     1      17.246   9.823   5.062  0.00  0.00    -0.252 OA
ATOM     11  N   UNL     1      15.763   8.210   4.323  0.00  0.00    -0.295 N 
ATOM     12  N   UNL     1      18.014   7.744   4.287  0.00  0.00    -0.267 N 
ATOM     25  C   UNL     1      17.045   8.701   4.604  0.00  0.00    +0.304 C 
ATOM     34  H   UNL     1      15.684   7.296   3.888  0.00  0.00    +0.151 HD
ATOM     35  H   UNL     1      17.681   6.860   3.914  0.00  0.00    +0.156 HD
BRANCH  12  27
ATOM      2  F   UNL     1      19.216   8.077   6.780  0.00  0.00    -0.203 F 
ATOM      3  F   UNL     1      23.517   8.161   4.812  0.00  0.00    -0.205 F 
ATOM     27  C   UNL     1      19.418   7.853   4.424  0.00  0.00    +0.070 A 
ATOM     29  C   UNL     1      19.989   8.017   5.686  0.00  0.00    +0.147 A 
ATOM     30  C   UNL     1      20.232   7.792   3.293  0.00  0.00    +0.029 A 
ATOM     31  C   UNL     1      21.373   8.122   5.817  0.00  0.00    +0.078 A 
ATOM     32  C   UNL     1      21.617   7.896   3.425  0.00  0.00    +0.040 A 
ATOM     33  C   UNL     1      22.187   8.062   4.686  0.00  0.00    +0.126 A 
ENDBRANCH  12  27
ENDBRANCH  15  11
BRANCH  22  24
ATOM     24  C   UNL     1      11.750   6.646   6.970  0.00  0.00    +0.164 C 
BRANCH  24   1
ATOM      1  S   UNL     1      10.202   5.883   7.475  0.00  0.00    -0.155 S 
ATOM     28  C   UNL     1       9.206   7.379   7.679  0.00  0.00    +0.085 C 
ENDBRANCH  24   1
ENDBRANCH  22  24
TORSDOF 7
ENDMDL
MODEL 4
REMARK VINA RESULT:      -5.7     15.697     19.144
REMARK  Name = 7049381
REMARK  9 active torsions:
REMARK  status: ('A' for Active; 'I' for Inactive)
REMARK    1  A    between atoms: S_1  and  C_24
REMARK    2  A    between atoms: S_1  and  C_28
REMARK    3  A    between atoms: O_5  and  C_23
REMARK    4  A    between atoms: O_5  and  C_26
REMARK    5  A    between atoms: N_11  and  C_15
REMARK    6  A    between atoms: N_12  and  C_27
REMARK    7  A    between atoms: C_13  and  C_18
REMARK    8  A    between atoms: C_17  and  C_23
REMARK    9  A    between atoms: C_22  and  C_24
REMARK                            x       y       z     vdW  Elec       q    Type
REMARK                         _______ _______ _______ _____ _____    ______ ____
ROOT
ATOM      6  O   UNL     1      14.616   7.678   6.635  0.00  0.00    -0.275 OA
ATOM      9  N   UNL     1      13.798   8.189   4.531  0.00  0.00    -0.287 N 
ATOM     13  C   UNL     1      12.479   8.617   4.973  0.00  0.00    +0.164 C 
ATOM     14  C   UNL     1      11.860   9.311   3.760  0.00  0.00    +0.056 C 
ATOM     15  C   UNL     1      12.570   8.681   2.558  0.00  0.00    +0.094 C 
ATOM     16  C   UNL     1      13.967   8.376   3.091  0.00  0.00    +0.131 C 
ATOM     22  C   UNL     1      14.794   7.827   5.425  0.00  0.00    +0.226 C 
ENDROOT
BRANCH  13  18
ATOM      4  O   UNL     1      11.907   6.317   4.846  0.00  0.00    -0.274 OA
ATOM     10  N   UNL     1      10.740   7.616   6.364  0.00  0.00    -0.286 N 
ATOM     17  C   UNL     1       9.782   6.592   6.758  0.00  0.00    +0.185 C 
ATOM     18  C   UNL     1      11.689   7.408   5.375  0.00  0.00    +0.237 C 
ATOM     19  C   UNL     1      10.449   8.889   7.019  0.00  0.00    +0.109 C 
ATOM     20  C   UNL     1       8.681   7.352   7.488  0.00  0.00    +0.035 C 
ATOM     21  C   UNL     1       9.412   8.555   8.080  0.00  0.00    +0.021 C 
BRANCH  17  23
ATOM      7  O   UNL     1      11.630   5.828   8.100  0.00  0.00    -0.249 OA
ATOM     23  C   UNL     1      10.501   5.641   7.669  0.00  0.00    +0.328 C 
BRANCH  23   5
ATOM      5  O   UNL     1       9.705   4.564   7.925  0.00  0.00    -0.467 OA
ATOM     26  C   UNL     1       9.418   4.326   9.306  0.00  0.00    +0.280 C 
ENDBRANCH  23   5
ENDBRANCH  17  23
ENDBRANCH  13  18
BRANCH  15  11
ATOM      8  O   UNL     1      13.142   7.195   0.177  0.00  0.00    -0.252 OA
ATOM     11  N   UNL     1      11.898   7.490   2.104  0.00  0.00    -0.295 N 
ATOM     12  N   UNL     1      11.420   5.702   0.741  0.00  0.00    -0.267 N 
ATOM     25  C   UNL     1      12.241   6.819   0.923  0.00  0.00    +0.304 C 
ATOM     34  H   UNL     1      11.100   7.152   2.634  0.00  0.00    +0.151 HD
ATOM     35  H   UNL     1      10.717   5.528   1.454  0.00  0.00    +0.156 HD
BRANCH  12  27
ATOM      2  F   UNL     1      13.288   3.636   0.658  0.00  0.00    -0.203 F 
ATOM      3  F   UNL     1      11.509   2.050  -3.429  0.00  0.00    -0.205 F 
ATOM     27  C   UNL     1      11.446   4.769  -0.323  0.00  0.00    +0.070 A 
ATOM     29  C   UNL     1      12.394   3.746  -0.334  0.00  0.00    +0.147 A 
ATOM     30  C   UNL     1      10.520   4.874  -1.360  0.00  0.00    +0.029 A 
ATOM     31  C   UNL     1      12.415   2.828  -1.384  0.00  0.00    +0.078 A 
ATOM     32  C   UNL     1      10.542   3.956  -2.409  0.00  0.00    +0.040 A 
ATOM     33  C   UNL     1      11.490   2.933  -2.422  0.00  0.00    +0.126 A 
ENDBRANCH  12  27
ENDBRANCH  15  11
BRANCH  22  24
ATOM     24  C   UNL     1      16.158   7.600   4.823  0.00  0.00    +0.164 C 
BRANCH  24   1
ATOM      1  S   UNL     1      17.264   8.854   5.487  0.00  0.00    -0.155 S 
ATOM     28  C   UNL     1      18.583   8.745   4.252  0.00  0.00    +0.085 C 
ENDBRANCH  24   1
ENDBRANCH  22  24
TORSDOF 7
ENDMDL
MODEL 5
REMARK VINA RESULT:      -5.7     28.087     30.681
REMARK  Name = 7049381
REMARK  9 active torsions:
REMARK  status: ('A' for Active; 'I' for Inactive)
REMARK    1  A    between atoms: S_1  and  C_24
REMARK    2  A    between atoms: S_1  and  C_28
REMARK    3  A    between atoms: O_5  and  C_23
REMARK    4  A    between atoms: O_5  and  C_26
REMARK    5  A    between atoms: N_11  and  C_15
REMARK    6  A    between atoms: N_12  and  C_27
REMARK    7  A    between atoms: C_13  and  C_18
REMARK    8  A    between atoms: C_17  and  C_23
REMARK    9  A    between atoms: C_22  and  C_24
REMARK                            x       y       z     vdW  Elec       q    Type
REMARK                         _______ _______ _______ _____ _____    ______ ____
ROOT
ATOM      6  O   UNL     1     -10.592 -11.904  18.842  0.00  0.00    -0.275 OA
ATOM      9  N   UNL     1      -8.280 -11.909  18.722  0.00  0.00    -0.287 N 
ATOM     13  C   UNL     1      -8.137 -10.509  18.350  0.00  0.00    +0.164 C 
ATOM     14  C   UNL     1      -6.651 -10.201  18.527  0.00  0.00    +0.056 C 
ATOM     15  C   UNL     1      -5.959 -11.556  18.360  0.00  0.00    +0.094 C 
ATOM     16  C   UNL     1      -6.979 -12.547  18.914  0.00  0.00    +0.131 C 
ATOM     22  C   UNL     1      -9.512 -12.472  19.017  0.00  0.00    +0.226 C 
ENDROOT
BRANCH  13  18
ATOM      4  O   UNL     1      -8.227 -11.165  16.070  0.00  0.00    -0.274 OA
ATOM     10  N   UNL     1      -9.354  -9.232  16.662  0.00  0.00    -0.286 N 
ATOM     17  C   UNL     1      -9.722  -8.834  15.309  0.00  0.00    +0.185 C 
ATOM     18  C   UNL     1      -8.565 -10.342  16.923  0.00  0.00    +0.237 C 
ATOM     19  C   UNL     1      -9.779  -8.233  17.639  0.00  0.00    +0.109 C 
ATOM     20  C   UNL     1     -10.159  -7.380  15.440  0.00  0.00    +0.035 C 
ATOM     21  C   UNL     1     -10.695  -7.296  16.867  0.00  0.00    +0.021 C 
BRANCH  17  23
ATOM      7  O   UNL     1     -11.638 -10.251  15.654  0.00  0.00    -0.249 OA
ATOM     23  C   UNL     1     -10.853  -9.720  14.881  0.00  0.00    +0.328 C 
BRANCH  23   5
ATOM      5  O   UNL     1     -10.858  -9.829  13.522  0.00  0.00    -0.467 OA
ATOM     26  C   UNL     1      -9.587 -10.099  12.922  0.00  0.00    +0.280 C 
ENDBRANCH  23   5
ENDBRANCH  17  23
ENDBRANCH  13  18
BRANCH  15  11
ATOM      8  O   UNL     1      -4.303  -9.975  16.638  0.00  0.00    -0.252 OA
ATOM     11  N   UNL     1      -5.643 -11.828  16.980  0.00  0.00    -0.295 N 
ATOM     12  N   UNL     1      -4.694 -11.516  14.910  0.00  0.00    -0.267 N 
ATOM     25  C   UNL     1      -4.820 -11.002  16.204  0.00  0.00    +0.304 C 
ATOM     34  H   UNL     1      -6.083 -12.626  16.531  0.00  0.00    +0.151 HD
ATOM     35  H   UNL     1      -5.189 -12.381  14.709  0.00  0.00    +0.156 HD
BRANCH  12  27
ATOM      2  F   UNL     1      -1.908 -11.486  14.925  0.00  0.00    -0.203 F 
ATOM      3  F   UNL     1      -1.801  -9.416  10.674  0.00  0.00    -0.205 F 
ATOM     27  C   UNL     1      -3.953 -10.979  13.831  0.00  0.00    +0.070 A 
ATOM     29  C   UNL     1      -2.559 -10.980  13.869  0.00  0.00    +0.147 A 
ATOM     30  C   UNL     1      -4.620 -10.451  12.726  0.00  0.00    +0.029 A 
ATOM     31  C   UNL     1      -1.832 -10.451  12.802  0.00  0.00    +0.078 A 
ATOM     32  C   UNL     1      -3.893  -9.922  11.660  0.00  0.00    +0.040 A 
ATOM     33  C   UNL     1      -2.499  -9.922  11.698  0.00  0.00    +0.126 A 
ENDBRANCH  12  27
ENDBRANCH  15  11
BRANCH  22  24
ATOM     24  C   UNL     1      -9.471 -13.873  19.574  0.00  0.00    +0.164 C 
BRANCH  24   1
ATOM      1  S   UNL     1     -11.152 -14.336  20.015  0.00  0.00    -0.155 S 
ATOM     28  C   UNL     1     -11.062 -14.047  21.799  0.00  0.00    +0.085 C 
ENDBRANCH  24   1
ENDBRANCH  22  24
TORSDOF 7
ENDMDL
MODEL 6
REMARK VINA RESULT:      -5.6     13.240     15.282
REMARK  Name = 7049381
REMARK  9 active torsions:
REMARK  status: ('A' for Active; 'I' for Inactive)
REMARK    1  A    between atoms: S_1  and  C_24
REMARK    2  A    between atoms: S_1  and  C_28
REMARK    3  A    between atoms: O_5  and  C_23
REMARK    4  A    between atoms: O_5  and  C_26
REMARK    5  A    between atoms: N_11  and  C_15
REMARK    6  A    between atoms: N_12  and  C_27
REMARK    7  A    between atoms: C_13  and  C_18
REMARK    8  A    between atoms: C_17  and  C_23
REMARK    9  A    between atoms: C_22  and  C_24
REMARK                            x       y       z     vdW  Elec       q    Type
REMARK                         _______ _______ _______ _____ _____    ______ ____
ROOT
ATOM      6  O   UNL     1       9.463  10.635   8.170  0.00  0.00    -0.275 OA
ATOM      9  N   UNL     1      11.197  10.889   6.658  0.00  0.00    -0.287 N 
ATOM     13  C   UNL     1      10.752   9.859   5.731  0.00  0.00    +0.164 C 
ATOM     14  C   UNL     1      11.590  10.070   4.471  0.00  0.00    +0.056 C 
ATOM     15  C   UNL     1      12.865  10.753   4.972  0.00  0.00    +0.094 C 
ATOM     16  C   UNL     1      12.380  11.586   6.156  0.00  0.00    +0.131 C 
ATOM     22  C   UNL     1      10.457  11.247   7.775  0.00  0.00    +0.226 C 
ENDROOT
BRANCH  13  18
ATOM      4  O   UNL     1      11.985   8.341   7.076  0.00  0.00    -0.274 OA
ATOM     10  N   UNL     1      10.084   7.530   6.034  0.00  0.00    -0.286 N 
ATOM     17  C   UNL     1      10.269   6.136   6.412  0.00  0.00    +0.185 C 
ATOM     18  C   UNL     1      11.010   8.515   6.343  0.00  0.00    +0.237 C 
ATOM     19  C   UNL     1       8.916   7.692   5.173  0.00  0.00    +0.109 C 
ATOM     20  C   UNL     1       9.315   5.361   5.511  0.00  0.00    +0.035 C 
ATOM     21  C   UNL     1       8.189   6.358   5.244  0.00  0.00    +0.021 C 
BRANCH  17  23
ATOM      7  O   UNL     1       9.273   6.871   8.477  0.00  0.00    -0.249 OA
ATOM     23  C   UNL     1       9.891   6.016   7.858  0.00  0.00    +0.328 C 
BRANCH  23   5
ATOM      5  O   UNL     1      10.341   4.827   8.350  0.00  0.00    -0.467 OA
ATOM     26  C   UNL     1       9.450   4.155   9.246  0.00  0.00    +0.280 C 
ENDBRANCH  23   5
ENDBRANCH  17  23
ENDBRANCH  13  18
BRANCH  15  11
ATOM      8  O   UNL     1      15.657  10.833   4.335  0.00  0.00    -0.252 OA
ATOM     11  N   UNL     1      13.867   9.795   5.367  0.00  0.00    -0.295 N 
ATOM     12  N   UNL     1      15.949   8.836   5.535  0.00  0.00    -0.267 N 
ATOM     25  C   UNL     1      15.218   9.907   5.013  0.00  0.00    +0.304 C 
ATOM     34  H   UNL     1      13.571   8.968   5.876  0.00  0.00    +0.151 HD
ATOM     35  H   UNL     1      15.433   8.149   6.078  0.00  0.00    +0.156 HD
BRANCH  12  27
ATOM      2  F   UNL     1      17.039   7.877   3.157  0.00  0.00    -0.203 F 
ATOM      3  F   UNL     1      21.383   7.864   5.029  0.00  0.00    -0.205 F 
ATOM     27  C   UNL     1      17.335   8.585   5.404  0.00  0.00    +0.070 A 
ATOM     29  C   UNL     1      17.850   8.106   4.199  0.00  0.00    +0.147 A 
ATOM     30  C   UNL     1      18.188   8.820   6.482  0.00  0.00    +0.029 A 
ATOM     31  C   UNL     1      19.217   7.862   4.073  0.00  0.00    +0.078 A 
ATOM     32  C   UNL     1      19.555   8.576   6.355  0.00  0.00    +0.040 A 
ATOM     33  C   UNL     1      20.070   8.096   5.151  0.00  0.00    +0.126 A 
ENDBRANCH  12  27
ENDBRANCH  15  11
BRANCH  22  24
ATOM     24  C   UNL     1      10.951  12.460   8.522  0.00  0.00    +0.164 C 
BRANCH  24   1
ATOM      1  S   UNL     1      11.886  11.882   9.946  0.00  0.00    -0.155 S 
ATOM     28  C   UNL     1      10.582  11.982  11.196  0.00  0.00    +0.085 C 
ENDBRANCH  24   1
ENDBRANCH  22  24
TORSDOF 7
ENDMDL
MODEL 7
REMARK VINA RESULT:      -5.6     18.738     22.320
REMARK  Name = 7049381
REMARK  9 active torsions:
REMARK  status: ('A' for Active; 'I' for Inactive)
REMARK    1  A    between atoms: S_1  and  C_24
REMARK    2  A    between atoms: S_1  and  C_28
REMARK    3  A    between atoms: O_5  and  C_23
REMARK    4  A    between atoms: O_5  and  C_26
REMARK    5  A    between atoms: N_11  and  C_15
REMARK    6  A    between atoms: N_12  and  C_27
REMARK    7  A    between atoms: C_13  and  C_18
REMARK    8  A    between atoms: C_17  and  C_23
REMARK    9  A    between atoms: C_22  and  C_24
REMARK                            x       y       z     vdW  Elec       q    Type
REMARK                         _______ _______ _______ _____ _____    ______ ____
ROOT
ATOM      6  O   UNL     1      15.015   4.727  -2.851  0.00  0.00    -0.275 OA
ATOM      9  N   UNL     1      14.492   4.022  -0.709  0.00  0.00    -0.287 N 
ATOM     13  C   UNL     1      13.089   3.740  -0.972  0.00  0.00    +0.164 C 
ATOM     14  C   UNL     1      12.608   2.948   0.243  0.00  0.00    +0.056 C 
ATOM     15  C   UNL     1      13.547   3.380   1.373  0.00  0.00    +0.094 C 
ATOM     16  C   UNL     1      14.865   3.654   0.656  0.00  0.00    +0.131 C 
ATOM     22  C   UNL     1      15.365   4.422  -1.709  0.00  0.00    +0.226 C 
ENDROOT
BRANCH  13  18
ATOM      4  O   UNL     1      12.771   6.054  -0.549  0.00  0.00    -0.274 OA
ATOM     10  N   UNL     1      11.212   5.000  -1.895  0.00  0.00    -0.286 N 
ATOM     17  C   UNL     1      10.296   6.127  -2.002  0.00  0.00    +0.185 C 
ATOM     18  C   UNL     1      12.352   5.039  -1.108  0.00  0.00    +0.237 C 
ATOM     19  C   UNL     1      10.680   3.822  -2.576  0.00  0.00    +0.109 C 
ATOM     20  C   UNL     1       9.006   5.526  -2.550  0.00  0.00    +0.035 C 
ATOM     21  C   UNL     1       9.490   4.335  -3.372  0.00  0.00    +0.021 C 
BRANCH  17  23
ATOM      7  O   UNL     1      11.667   6.790  -3.867  0.00  0.00    -0.249 OA
ATOM     23  C   UNL     1      10.907   7.104  -2.962  0.00  0.00    +0.328 C 
BRANCH  23   5
ATOM      5  O   UNL     1      10.483   8.364  -2.661  0.00  0.00    -0.467 OA
ATOM     26  C   UNL     1      11.317   9.094  -1.756  0.00  0.00    +0.280 C 
ENDBRANCH  23   5
ENDBRANCH  17  23
ENDBRANCH  13  18
BRANCH  15  11
ATOM      8  O   UNL     1      11.217   3.545   3.032  0.00  0.00    -0.252 OA
ATOM     11  N   UNL     1      13.057   4.551   2.057  0.00  0.00    -0.295 N 
ATOM     12  N   UNL     1      11.677   5.820   3.388  0.00  0.00    -0.267 N 
ATOM     25  C   UNL     1      11.904   4.547   2.855  0.00  0.00    +0.304 C 
ATOM     34  H   UNL     1      13.536   5.434   1.910  0.00  0.00    +0.151 HD
ATOM     35  H   UNL     1      12.344   6.546   3.142  0.00  0.00    +0.156 HD
BRANCH  12  27
ATOM      2  F   UNL     1       9.318   6.901   2.372  0.00  0.00    -0.203 F 
ATOM      3  F   UNL     1       7.551   7.411   6.730  0.00  0.00    -0.205 F 
ATOM     27  C   UNL     1      10.623   6.228   4.238  0.00  0.00    +0.070 A 
ATOM     29  C   UNL     1       9.454   6.765   3.698  0.00  0.00    +0.147 A 
ATOM     30  C   UNL     1      10.754   6.091   5.620  0.00  0.00    +0.029 A 
ATOM     31  C   UNL     1       8.417   7.165   4.541  0.00  0.00    +0.078 A 
ATOM     32  C   UNL     1       9.716   6.492   6.462  0.00  0.00    +0.040 A 
ATOM     33  C   UNL     1       8.548   7.029   5.922  0.00  0.00    +0.126 A 
ENDBRANCH  12  27
ENDBRANCH  15  11
BRANCH  22  24
ATOM     24  C   UNL     1      16.820   4.483  -1.318  0.00  0.00    +0.164 C 
BRANCH  24   1
ATOM      1  S   UNL     1      17.366   6.186  -1.507  0.00  0.00    -0.155 S 
ATOM     28  C   UNL     1      16.621   6.886  -0.014  0.00  0.00    +0.085 C 
ENDBRANCH  24   1
ENDBRANCH  22  24
TORSDOF 7
ENDMDL
MODEL 8
REMARK VINA RESULT:      -5.6     28.174     30.549
REMARK  Name = 7049381
REMARK  9 active torsions:
REMARK  status: ('A' for Active; 'I' for Inactive)
REMARK    1  A    between atoms: S_1  and  C_24
REMARK    2  A    between atoms: S_1  and  C_28
REMARK    3  A    between atoms: O_5  and  C_23
REMARK    4  A    between atoms: O_5  and  C_26
REMARK    5  A    between atoms: N_11  and  C_15
REMARK    6  A    between atoms: N_12  and  C_27
REMARK    7  A    between atoms: C_13  and  C_18
REMARK    8  A    between atoms: C_17  and  C_23
REMARK    9  A    between atoms: C_22  and  C_24
REMARK                            x       y       z     vdW  Elec       q    Type
REMARK                         _______ _______ _______ _____ _____    ______ ____
ROOT
ATOM      6  O   UNL     1      -4.045 -14.578  15.872  0.00  0.00    -0.275 OA
ATOM      9  N   UNL     1      -3.056 -12.949  14.559  0.00  0.00    -0.287 N 
ATOM     13  C   UNL     1      -3.111 -11.887  15.553  0.00  0.00    +0.164 C 
ATOM     14  C   UNL     1      -2.210 -10.782  15.005  0.00  0.00    +0.056 C 
ATOM     15  C   UNL     1      -2.222 -10.999  13.489  0.00  0.00    +0.094 C 
ATOM     16  C   UNL     1      -2.365 -12.511  13.347  0.00  0.00    +0.131 C 
ATOM     22  C   UNL     1      -3.463 -14.245  14.839  0.00  0.00    +0.226 C 
ENDROOT
BRANCH  13  18
ATOM      4  O   UNL     1      -5.201 -11.174  14.681  0.00  0.00    -0.274 OA
ATOM     10  N   UNL     1      -5.005 -11.314  16.983  0.00  0.00    -0.286 N 
ATOM     17  C   UNL     1      -6.302 -10.727  17.296  0.00  0.00    +0.185 C 
ATOM     18  C   UNL     1      -4.531 -11.423  15.685  0.00  0.00    +0.237 C 
ATOM     19  C   UNL     1      -4.248 -11.597  18.199  0.00  0.00    +0.109 C 
ATOM     20  C   UNL     1      -6.223 -10.384  18.779  0.00  0.00    +0.035 C 
ATOM     21  C   UNL     1      -5.248 -11.420  19.332  0.00  0.00    +0.021 C 
BRANCH  17  23
ATOM      7  O   UNL     1      -7.125 -12.978  17.065  0.00  0.00    -0.249 OA
ATOM     23  C   UNL     1      -7.339 -11.775  17.020  0.00  0.00    +0.328 C 
BRANCH  23   5
ATOM      5  O   UNL     1      -8.525 -11.174  16.720  0.00  0.00    -0.467 OA
ATOM     26  C   UNL     1      -8.454 -10.120  15.755  0.00  0.00    +0.280 C 
ENDBRANCH  23   5
ENDBRANCH  17  23
ENDBRANCH  13  18
BRANCH  15  11
ATOM      8  O   UNL     1      -3.271 -11.471  10.866  0.00  0.00    -0.252 OA
ATOM     11  N   UNL     1      -3.311 -10.297  12.857  0.00  0.00    -0.295 N 
ATOM     12  N   UNL     1      -4.829  -9.751  11.220  0.00  0.00    -0.267 N 
ATOM     25  C   UNL     1      -3.766 -10.591  11.565  0.00  0.00    +0.304 C 
ATOM     34  H   UNL     1      -3.732  -9.514  13.348  0.00  0.00    +0.151 HD
ATOM     35  H   UNL     1      -5.121  -9.070  11.916  0.00  0.00    +0.156 HD
BRANCH  12  27
ATOM      2  F   UNL     1      -3.707  -8.797   8.855  0.00  0.00    -0.203 F 
ATOM      3  F   UNL     1      -7.703  -9.678   6.481  0.00  0.00    -0.205 F 
ATOM     27  C   UNL     1      -5.561  -9.729  10.009  0.00  0.00    +0.070 A 
ATOM     29  C   UNL     1      -4.970  -9.246   8.842  0.00  0.00    +0.147 A 
ATOM     30  C   UNL     1      -6.875 -10.195   9.985  0.00  0.00    +0.029 A 
ATOM     31  C   UNL     1      -5.694  -9.229   7.650  0.00  0.00    +0.078 A 
ATOM     32  C   UNL     1      -7.599 -10.177   8.792  0.00  0.00    +0.040 A 
ATOM     33  C   UNL     1      -7.008  -9.693   7.625  0.00  0.00    +0.126 A 
ENDBRANCH  12  27
ENDBRANCH  15  11
BRANCH  22  24
ATOM     24  C   UNL     1      -3.160 -15.267  13.772  0.00  0.00    +0.164 C 
BRANCH  24   1
ATOM      1  S   UNL     1      -1.831 -16.314  14.380  0.00  0.00    -0.155 S 
ATOM     28  C   UNL     1      -0.488 -15.693  13.339  0.00  0.00    +0.085 C 
ENDBRANCH  24   1
ENDBRANCH  22  24
TORSDOF 7
ENDMDL
MODEL 9
REMARK VINA RESULT:      -5.4     14.833     17.541
REMARK  Name = 7049381
REMARK  9 active torsions:
REMARK  status: ('A' for Active; 'I' for Inactive)
REMARK    1  A    between atoms: S_1  and  C_24
REMARK    2  A    between atoms: S_1  and  C_28
REMARK    3  A    between atoms: O_5  and  C_23
REMARK    4  A    between atoms: O_5  and  C_26
REMARK    5  A    between atoms: N_11  and  C_15
REMARK    6  A    between atoms: N_12  and  C_27
REMARK    7  A    between atoms: C_13  and  C_18
REMARK    8  A    between atoms: C_17  and  C_23
REMARK    9  A    between atoms: C_22  and  C_24
REMARK                            x       y       z     vdW  Elec       q    Type
REMARK                         _______ _______ _______ _____ _____    ______ ____
ROOT
ATOM      6  O   UNL     1       7.882   7.826   3.671  0.00  0.00    -0.275 OA
ATOM      9  N   UNL     1       9.964   7.418   2.743  0.00  0.00    -0.287 N 
ATOM     13  C   UNL     1      10.387   6.434   3.729  0.00  0.00    +0.164 C 
ATOM     14  C   UNL     1      11.631   5.781   3.128  0.00  0.00    +0.056 C 
ATOM     15  C   UNL     1      12.199   6.843   2.182  0.00  0.00    +0.094 C 
ATOM     16  C   UNL     1      10.957   7.574   1.681  0.00  0.00    +0.131 C 
ATOM     22  C   UNL     1       8.695   7.978   2.757  0.00  0.00    +0.226 C 
ENDROOT
BRANCH  13  18
ATOM      4  O   UNL     1      11.198   8.270   4.996  0.00  0.00    -0.274 OA
ATOM     10  N   UNL     1      10.392   6.446   6.170  0.00  0.00    -0.286 N 
ATOM     17  C   UNL     1      10.778   6.916   7.493  0.00  0.00    +0.185 C 
ATOM     18  C   UNL     1      10.704   7.141   5.012  0.00  0.00    +0.237 C 
ATOM     19  C   UNL     1       9.805   5.110   6.236  0.00  0.00    +0.109 C 
ATOM     20  C   UNL     1      10.668   5.687   8.388  0.00  0.00    +0.035 C 
ATOM     21  C   UNL     1       9.576   4.857   7.718  0.00  0.00    +0.021 C 
BRANCH  17  23
ATOM      7  O   UNL     1       8.600   7.789   8.035  0.00  0.00    -0.249 OA
ATOM     23  C   UNL     1       9.799   7.982   7.887  0.00  0.00    +0.328 C 
BRANCH  23   5
ATOM      5  O   UNL     1      10.454   9.167   8.047  0.00  0.00    -0.467 OA
ATOM     26  C   UNL     1       9.651  10.255   8.513  0.00  0.00    +0.280 C 
ENDBRANCH  23   5
ENDBRANCH  17  23
ENDBRANCH  13  18
BRANCH  15  11
ATOM      8  O   UNL     1      14.921   6.299   2.891  0.00  0.00    -0.252 OA
ATOM     11  N   UNL     1      13.107   7.733   2.861  0.00  0.00    -0.295 N 
ATOM     12  N   UNL     1      15.066   8.448   3.826  0.00  0.00    -0.267 N 
ATOM     25  C   UNL     1      14.429   7.390   3.171  0.00  0.00    +0.304 C 
ATOM     34  H   UNL     1      12.756   8.631   3.181  0.00  0.00    +0.151 HD
ATOM     35  H   UNL     1      14.516   9.288   3.984  0.00  0.00    +0.156 HD
BRANCH  12  27
ATOM      2  F   UNL     1      15.637   8.680   6.544  0.00  0.00    -0.203 F 
ATOM      3  F   UNL     1      20.287   8.638   5.679  0.00  0.00    -0.205 F 
ATOM     27  C   UNL     1      16.398   8.499   4.302  0.00  0.00    +0.070 A 
ATOM     29  C   UNL     1      16.650   8.614   5.669  0.00  0.00    +0.147 A 
ATOM     30  C   UNL     1      17.460   8.430   3.400  0.00  0.00    +0.029 A 
ATOM     31  C   UNL     1      17.964   8.661   6.134  0.00  0.00    +0.078 A 
ATOM     32  C   UNL     1      18.774   8.478   3.866  0.00  0.00    +0.040 A 
ATOM     33  C   UNL     1      19.025   8.594   5.232  0.00  0.00    +0.126 A 
ENDBRANCH  12  27
ENDBRANCH  15  11
BRANCH  22  24
ATOM     24  C   UNL     1       8.345   8.827   1.561  0.00  0.00    +0.164 C 
BRANCH  24   1
ATOM      1  S   UNL     1       6.897   9.805   1.989  0.00  0.00    -0.155 S 
ATOM     28  C   UNL     1       6.017   9.706   0.411  0.00  0.00    +0.085 C 
ENDBRANCH  24   1
ENDBRANCH  22  24
TORSDOF 7
ENDMDL
MODEL 10
REMARK VINA RESULT:      -5.4     16.452     19.483
REMARK  Name = 7049381
REMARK  9 active torsions:
REMARK  status: ('A' for Active; 'I' for Inactive)
REMARK    1  A    between atoms: S_1  and  C_24
REMARK    2  A    between atoms: S_1  and  C_28
REMARK    3  A    between atoms: O_5  and  C_23
REMARK    4  A    between atoms: O_5  and  C_26
REMARK    5  A    between atoms: N_11  and  C_15
REMARK    6  A    between atoms: N_12  and  C_27
REMARK    7  A    between atoms: C_13  and  C_18
REMARK    8  A    between atoms: C_17  and  C_23
REMARK    9  A    between atoms: C_22  and  C_24
REMARK                            x       y       z     vdW  Elec       q    Type
REMARK                         _______ _______ _______ _____ _____    ______ ____
ROOT
ATOM      6  O   UNL     1      17.240  11.579   4.112  0.00  0.00    -0.275 OA
ATOM      9  N   UNL     1      15.802   9.808   4.507  0.00  0.00    -0.287 N 
ATOM     13  C   UNL     1      16.669   9.102   5.438  0.00  0.00    +0.164 C 
ATOM     14  C   UNL     1      15.779   8.043   6.084  0.00  0.00    +0.056 C 
ATOM     15  C   UNL     1      14.680   7.786   5.049  0.00  0.00    +0.094 C 
ATOM     16  C   UNL     1      14.507   9.142   4.371  0.00  0.00    +0.131 C 
ATOM     22  C   UNL     1      16.137  11.046   3.978  0.00  0.00    +0.226 C 
ENDROOT
BRANCH  13  18
ATOM      4  O   UNL     1      17.623   8.095   3.512  0.00  0.00    -0.274 OA
ATOM     10  N   UNL     1      19.002   8.389   5.347  0.00  0.00    -0.286 N 
ATOM     17  C   UNL     1      20.149   7.669   4.810  0.00  0.00    +0.185 C 
ATOM     18  C   UNL     1      17.796   8.479   4.670  0.00  0.00    +0.237 C 
ATOM     19  C   UNL     1      19.252   8.831   6.717  0.00  0.00    +0.109 C 
ATOM     20  C   UNL     1      21.051   7.424   6.014  0.00  0.00    +0.035 C 
ATOM     21  C   UNL     1      20.739   8.600   6.937  0.00  0.00    +0.021 C 
BRANCH  17  23
ATOM      7  O   UNL     1      20.782   9.789   3.858  0.00  0.00    -0.249 OA
ATOM     23  C   UNL     1      20.800   8.567   3.800  0.00  0.00    +0.328 C 
BRANCH  23   5
ATOM      5  O   UNL     1      21.398   7.811   2.836  0.00  0.00    -0.467 OA
ATOM     26  C   UNL     1      20.675   7.698   1.607  0.00  0.00    +0.280 C 
ENDBRANCH  23   5
ENDBRANCH  17  23
ENDBRANCH  13  18
BRANCH  15  11
ATOM      8  O   UNL     1      13.242   7.001   2.700  0.00  0.00    -0.252 OA
ATOM     11  N   UNL     1      15.059   6.761   4.109  0.00  0.00    -0.295 N 
ATOM     12  N   UNL     1      14.911   5.410   2.256  0.00  0.00    -0.267 N 
ATOM     25  C   UNL     1      14.298   6.437   2.979  0.00  0.00    +0.304 C 
ATOM     34  H   UNL     1      15.888   6.208   4.304  0.00  0.00    +0.151 HD
ATOM     35  H   UNL     1      15.788   5.050   2.624  0.00  0.00    +0.156 HD
BRANCH  12  27
ATOM      2  F   UNL     1      12.813   3.576   2.250  0.00  0.00    -0.203 F 
ATOM      3  F   UNL     1      13.154   3.040  -2.437  0.00  0.00    -0.205 F 
ATOM     27  C   UNL     1      14.462   4.802   1.060  0.00  0.00    +0.070 A 
ATOM     29  C   UNL     1      13.408   3.889   1.091  0.00  0.00    +0.147 A 
ATOM     30  C   UNL     1      15.074   5.120  -0.153  0.00  0.00    +0.029 A 
ATOM     31  C   UNL     1      12.967   3.293  -0.090  0.00  0.00    +0.078 A 
ATOM     32  C   UNL     1      14.632   4.524  -1.334  0.00  0.00    +0.040 A 
ATOM     33  C   UNL     1      13.579   3.610  -1.302  0.00  0.00    +0.126 A 
ENDBRANCH  12  27
ENDBRANCH  15  11
BRANCH  22  24
ATOM     24  C   UNL     1      15.051  11.733   3.188  0.00  0.00    +0.164 C 
BRANCH  24   1
ATOM      1  S   UNL     1      15.679  12.017   1.527  0.00  0.00    -0.155 S 
ATOM     28  C   UNL     1      15.677  10.308   0.932  0.00  0.00    +0.085 C 
ENDBRANCH  24   1
ENDBRANCH  22  24
TORSDOF 7
ENDMDL
