REMARK  Name = 75536997
REMARK  5 active torsions:
REMARK  status: ('A' for Active; 'I' for Inactive)
REMARK    1  A    between atoms: N_5  and  C_14
REMARK    2  A    between atoms: N_7  and  C_17
REMARK    3  A    between atoms: C_14  and  C_16
REMARK    4  A    between atoms: C_17  and  C_20
REMARK    5  A    between atoms: C_17  and  C_21
REMARK                            x       y       z     vdW  Elec       q    Type
REMARK                         _______ _______ _______ _____ _____    ______ ____
ROOT
ATOM      2  O   UNL     1      -1.568   2.933   0.002  0.00  0.00    -0.252 OA
ATOM      3  O   UNL     1       4.820   0.711  -1.434  0.00  0.00    -0.253 OA
ATOM      4  N   UNL     1       0.376   1.617   0.104  0.00  0.00    -0.278 N 
ATOM      5  N   UNL     1      -1.445   0.918   1.221  0.00  0.00    -0.279 N 
ATOM      6  N   UNL     1       2.630   0.273  -0.814  0.00  0.00    -0.282 N 
ATOM      7  N   UNL     1       4.421  -1.053  -0.024  0.00  0.00    -0.297 N 
ATOM      8  C   UNL     1       0.820   0.439   0.830  0.00  0.00    +0.112 C 
ATOM      9  C   UNL     1      -0.471  -0.145   1.398  0.00  0.00    +0.133 C 
ATOM     10  C   UNL     1       1.588  -0.494  -0.102  0.00  0.00    +0.133 C 
ATOM     11  C   UNL     1       1.316   2.358  -0.719  0.00  0.00    +0.128 C 
ATOM     12  C   UNL     1       2.105   1.397  -1.607  0.00  0.00    +0.128 C 
ATOM     13  C   UNL     1      -0.955   1.950   0.396  0.00  0.00    +0.306 C 
ATOM     15  C   UNL     1       4.011   0.022  -0.802  0.00  0.00    +0.303 C 
ATOM     25  H   UNL     1       3.776  -1.521   0.597  0.00  0.00    +0.150 HD
ENDROOT
BRANCH   7  17
ATOM     17  C   UNL     1       5.811  -1.432   0.094  0.00  0.00    +0.068 C 
ATOM     20  C   UNL     1       5.935  -2.938   0.287  0.00  0.00    +0.027 C 
ATOM     21  C   UNL     1       6.478  -0.672   1.234  0.00  0.00    +0.027 C 
ENDBRANCH   7  17
BRANCH   5  14
ATOM     14  C   UNL     1      -2.795   0.813   1.730  0.00  0.00    +0.144 C 
BRANCH  14  16
ATOM      1  F   UNL     1      -6.101  -2.219  -1.673  0.00  0.00    -0.205 F 
ATOM     16  C   UNL     1      -3.676   0.005   0.823  0.00  0.00    -0.030 A 
ATOM     18  C   UNL     1      -3.782  -1.375   1.000  0.00  0.00    +0.008 A 
ATOM     19  C   UNL     1      -4.390   0.633  -0.198  0.00  0.00    +0.008 A 
ATOM     22  C   UNL     1      -4.601  -2.126   0.158  0.00  0.00    +0.038 A 
ATOM     23  C   UNL     1      -5.209  -0.118  -1.041  0.00  0.00    +0.038 A 
ATOM     24  C   UNL     1      -5.315  -1.498  -0.863  0.00  0.00    +0.123 A 
ENDBRANCH  14  16
ENDBRANCH   5  14
TORSDOF 3
