MODEL 1
REMARK VINA RESULT:      -8.6      0.000      0.000
REMARK  Name = 56774784
REMARK  7 active torsions:
REMARK  status: ('A' for Active; 'I' for Inactive)
REMARK    1  A    between atoms: O_3  and  C_11
REMARK    2  A    between atoms: N_6  and  C_13
REMARK    3  A    between atoms: N_8  and  C_22
REMARK    4  A    between atoms: C_10  and  C_11
REMARK    5  A    between atoms: C_11  and  C_15
REMARK    6  A    between atoms: C_13  and  C_17
REMARK    7  A    between atoms: C_27  and  C_28
REMARK                            x       y       z     vdW  Elec       q    Type
REMARK                         _______ _______ _______ _____ _____    ______ ____
ROOT
ATOM     11  C   UNL     1      14.080   6.765  19.947  0.00  0.00    +0.167 C 
ENDROOT
BRANCH  11  10
ATOM      2  O   UNL     1      14.297   8.405  17.524  0.00  0.00    -0.369 OA
ATOM      4  O   UNL     1      10.698   8.465  17.817  0.00  0.00    -0.273 OA
ATOM      6  N   UNL     1      12.307   8.420  19.498  0.00  0.00    -0.286 N 
ATOM     10  C   UNL     1      13.725   8.250  19.839  0.00  0.00    +0.135 C 
ATOM     12  C   UNL     1      14.597   8.949  18.803  0.00  0.00    +0.185 C 
ATOM     14  C   UNL     1      11.877   8.495  18.174  0.00  0.00    +0.242 C 
ATOM     16  C   UNL     1      12.976   8.713  17.141  0.00  0.00    +0.255 C 
BRANCH   6  13
ATOM     13  C   UNL     1      11.338   8.323  20.582  0.00  0.00    +0.163 C 
BRANCH  13  17
ATOM      7  N   UNL     1      11.703  10.710  20.842  0.00  0.00    -0.258 NA
ATOM     17  C   UNL     1      11.326   9.557  21.437  0.00  0.00    +0.059 A 
ATOM     23  C   UNL     1      10.938   9.459  22.763  0.00  0.00    +0.025 A 
ATOM     24  C   UNL     1      10.938  10.621  23.528  0.00  0.00    +0.003 A 
ATOM     25  C   UNL     1      11.691  11.818  21.616  0.00  0.00    +0.111 A 
ATOM     26  C   UNL     1      11.321  11.827  22.952  0.00  0.00    +0.020 A 
ENDBRANCH  13  17
ENDBRANCH   6  13
ENDBRANCH  11  10
BRANCH  11  15
ATOM     15  C   UNL     1      15.570   6.548  20.017  0.00  0.00    -0.017 A 
ATOM     18  C   UNL     1      16.268   6.876  21.179  0.00  0.00    +0.008 A 
ATOM     19  C   UNL     1      16.251   6.022  18.919  0.00  0.00    +0.008 A 
ATOM     20  C   UNL     1      17.648   6.676  21.244  0.00  0.00    +0.023 A 
ATOM     21  C   UNL     1      17.630   5.823  18.983  0.00  0.00    +0.023 A 
ATOM     22  C   UNL     1      18.328   6.150  20.146  0.00  0.00    +0.034 A 
BRANCH  22   8
ATOM      5  O   UNL     1      20.527   8.040  20.911  0.00  0.00    -0.270 OA
ATOM      8  N   UNL     1      19.708   5.951  20.209  0.00  0.00    -0.282 N 
ATOM     27  C   UNL     1      20.697   6.872  20.575  0.00  0.00    +0.248 C 
ATOM     34  H   UNL     1      19.994   4.999  19.995  0.00  0.00    +0.155 HD
BRANCH  27  28
ATOM      1 CL   UNL     1      24.017   2.871  20.524  0.00  0.00    -0.062 Cl
ATOM      9  N   UNL     1      24.707   5.369  20.568  0.00  0.00    -0.244 NA
ATOM     28  C   UNL     1      22.089   6.349  20.573  0.00  0.00    +0.041 A 
ATOM     29  C   UNL     1      22.320   4.979  20.551  0.00  0.00    +0.053 A 
ATOM     30  C   UNL     1      23.165   7.230  20.593  0.00  0.00    +0.033 A 
ATOM     31  C   UNL     1      23.636   4.544  20.550  0.00  0.00    +0.130 A 
ATOM     32  C   UNL     1      24.442   6.695  20.590  0.00  0.00    +0.113 A 
ENDBRANCH  27  28
ENDBRANCH  22   8
ENDBRANCH  11  15
BRANCH  11   3
ATOM      3  O   UNL     1      13.465   6.217  21.107  0.00  0.00    -0.385 OA
ATOM     33  H   UNL     1      12.501   6.311  21.034  0.00  0.00    +0.210 HD
ENDBRANCH  11   3
TORSDOF 7
ENDMDL
MODEL 2
REMARK VINA RESULT:      -7.7      5.079      8.142
REMARK  Name = 56774784
REMARK  7 active torsions:
REMARK  status: ('A' for Active; 'I' for Inactive)
REMARK    1  A    between atoms: O_3  and  C_11
REMARK    2  A    between atoms: N_6  and  C_13
REMARK    3  A    between atoms: N_8  and  C_22
REMARK    4  A    between atoms: C_10  and  C_11
REMARK    5  A    between atoms: C_11  and  C_15
REMARK    6  A    between atoms: C_13  and  C_17
REMARK    7  A    between atoms: C_27  and  C_28
REMARK                            x       y       z     vdW  Elec       q    Type
REMARK                         _______ _______ _______ _____ _____    ______ ____
ROOT
ATOM     11  C   UNL     1      11.807   9.456  19.322  0.00  0.00    +0.167 C 
ENDROOT
BRANCH  11  10
ATOM      2  O   UNL     1      10.750   9.112  22.037  0.00  0.00    -0.369 OA
ATOM      4  O   UNL     1      11.074   5.612  21.205  0.00  0.00    -0.273 OA
ATOM      6  N   UNL     1      12.407   7.405  20.553  0.00  0.00    -0.286 N 
ATOM     10  C   UNL     1      12.571   8.863  20.509  0.00  0.00    +0.135 C 
ATOM     12  C   UNL     1      12.107   9.480  21.823  0.00  0.00    +0.185 C 
ATOM     14  C   UNL     1      11.369   6.807  21.265  0.00  0.00    +0.242 C 
ATOM     16  C   UNL     1      10.630   7.721  22.236  0.00  0.00    +0.255 C 
BRANCH   6  13
ATOM     13  C   UNL     1      13.255   6.606  19.677  0.00  0.00    +0.163 C 
BRANCH  13  17
ATOM      7  N   UNL     1      14.956   6.845  21.394  0.00  0.00    -0.258 NA
ATOM     17  C   UNL     1      14.699   6.675  20.078  0.00  0.00    +0.059 A 
ATOM     23  C   UNL     1      15.680   6.566  19.105  0.00  0.00    +0.025 A 
ATOM     24  C   UNL     1      17.008   6.634  19.509  0.00  0.00    +0.003 A 
ATOM     25  C   UNL     1      16.259   6.907  21.750  0.00  0.00    +0.111 A 
ATOM     26  C   UNL     1      17.312   6.809  20.854  0.00  0.00    +0.020 A 
ENDBRANCH  13  17
ENDBRANCH   6  13
ENDBRANCH  11  10
BRANCH  11  15
ATOM     15  C   UNL     1      12.735   9.868  18.207  0.00  0.00    -0.017 A 
ATOM     18  C   UNL     1      12.761   9.139  17.017  0.00  0.00    +0.008 A 
ATOM     19  C   UNL     1      13.567  10.976  18.365  0.00  0.00    +0.008 A 
ATOM     20  C   UNL     1      13.621   9.519  15.986  0.00  0.00    +0.023 A 
ATOM     21  C   UNL     1      14.427  11.355  17.334  0.00  0.00    +0.023 A 
ATOM     22  C   UNL     1      14.453  10.627  16.144  0.00  0.00    +0.034 A 
BRANCH  22   8
ATOM      5  O   UNL     1      13.996  12.459  13.815  0.00  0.00    -0.270 OA
ATOM      8  N   UNL     1      15.313  11.008  15.113  0.00  0.00    -0.282 N 
ATOM     27  C   UNL     1      15.048  11.871  14.043  0.00  0.00    +0.248 C 
ATOM     34  H   UNL     1      16.250  10.624  15.200  0.00  0.00    +0.155 HD
BRANCH  27  28
ATOM      1 CL   UNL     1      16.884  12.513   9.221  0.00  0.00    -0.062 Cl
ATOM      9  N   UNL     1      18.328  12.544  11.373  0.00  0.00    -0.244 NA
ATOM     28  C   UNL     1      16.186  12.105  13.116  0.00  0.00    +0.041 A 
ATOM     29  C   UNL     1      15.966  12.183  11.745  0.00  0.00    +0.053 A 
ATOM     30  C   UNL     1      17.476  12.245  13.616  0.00  0.00    +0.033 A 
ATOM     31  C   UNL     1      17.061  12.402  10.924  0.00  0.00    +0.130 A 
ATOM     32  C   UNL     1      18.503  12.461  12.712  0.00  0.00    +0.113 A 
ENDBRANCH  27  28
ENDBRANCH  22   8
ENDBRANCH  11  15
BRANCH  11   3
ATOM      3  O   UNL     1      10.875   8.497  18.835  0.00  0.00    -0.385 OA
ATOM     33  H   UNL     1      10.193   8.341  19.510  0.00  0.00    +0.210 HD
ENDBRANCH  11   3
TORSDOF 7
ENDMDL
MODEL 3
REMARK VINA RESULT:      -7.1      3.578      9.700
REMARK  Name = 56774784
REMARK  7 active torsions:
REMARK  status: ('A' for Active; 'I' for Inactive)
REMARK    1  A    between atoms: O_3  and  C_11
REMARK    2  A    between atoms: N_6  and  C_13
REMARK    3  A    between atoms: N_8  and  C_22
REMARK    4  A    between atoms: C_10  and  C_11
REMARK    5  A    between atoms: C_11  and  C_15
REMARK    6  A    between atoms: C_13  and  C_17
REMARK    7  A    between atoms: C_27  and  C_28
REMARK                            x       y       z     vdW  Elec       q    Type
REMARK                         _______ _______ _______ _____ _____    ______ ____
ROOT
ATOM     11  C   UNL     1      20.721   5.329  20.901  0.00  0.00    +0.167 C 
ENDROOT
BRANCH  11  10
ATOM      2  O   UNL     1      23.036   4.754  22.610  0.00  0.00    -0.369 OA
ATOM      4  O   UNL     1      24.706   6.931  20.262  0.00  0.00    -0.273 OA
ATOM      6  N   UNL     1      22.514   7.017  21.038  0.00  0.00    -0.286 N 
ATOM     10  C   UNL     1      21.449   6.342  21.790  0.00  0.00    +0.135 C 
ATOM     12  C   UNL     1      22.029   5.668  23.027  0.00  0.00    +0.185 C 
ATOM     14  C   UNL     1      23.814   6.516  21.003  0.00  0.00    +0.242 C 
ATOM     16  C   UNL     1      24.127   5.434  22.030  0.00  0.00    +0.255 C 
BRANCH   6  13
ATOM     13  C   UNL     1      22.131   8.129  20.178  0.00  0.00    +0.163 C 
BRANCH  13  17
ATOM      7  N   UNL     1      23.023   9.927  21.545  0.00  0.00    -0.258 NA
ATOM     17  C   UNL     1      21.929   9.396  20.955  0.00  0.00    +0.059 A 
ATOM     23  C   UNL     1      20.661   9.951  21.032  0.00  0.00    +0.025 A 
ATOM     24  C   UNL     1      20.507  11.126  21.760  0.00  0.00    +0.003 A 
ATOM     25  C   UNL     1      22.835  11.069  22.244  0.00  0.00    +0.111 A 
ATOM     26  C   UNL     1      21.610  11.701  22.381  0.00  0.00    +0.020 A 
ENDBRANCH  13  17
ENDBRANCH   6  13
ENDBRANCH  11  10
BRANCH  11  15
ATOM     15  C   UNL     1      19.355   5.821  20.493  0.00  0.00    -0.017 A 
ATOM     18  C   UNL     1      18.697   5.234  19.412  0.00  0.00    +0.008 A 
ATOM     19  C   UNL     1      18.751   6.864  21.195  0.00  0.00    +0.008 A 
ATOM     20  C   UNL     1      17.433   5.689  19.034  0.00  0.00    +0.023 A 
ATOM     21  C   UNL     1      17.488   7.320  20.817  0.00  0.00    +0.023 A 
ATOM     22  C   UNL     1      16.829   6.732  19.736  0.00  0.00    +0.034 A 
BRANCH  22   8
ATOM      5  O   UNL     1      14.159   6.352  21.046  0.00  0.00    -0.270 OA
ATOM      8  N   UNL     1      15.566   7.189  19.359  0.00  0.00    -0.282 N 
ATOM     27  C   UNL     1      14.344   6.982  20.010  0.00  0.00    +0.248 C 
ATOM     34  H   UNL     1      15.574   7.772  18.526  0.00  0.00    +0.155 HD
BRANCH  27  28
ATOM      1 CL   UNL     1      12.082   9.172  15.871  0.00  0.00    -0.062 Cl
ATOM      9  N   UNL     1      10.946   8.836  18.176  0.00  0.00    -0.244 NA
ATOM     28  C   UNL     1      13.165   7.626  19.372  0.00  0.00    +0.041 A 
ATOM     29  C   UNL     1      13.225   8.038  18.046  0.00  0.00    +0.053 A 
ATOM     30  C   UNL     1      11.996   7.819  20.102  0.00  0.00    +0.033 A 
ATOM     31  C   UNL     1      12.099   8.632  17.500  0.00  0.00    +0.130 A 
ATOM     32  C   UNL     1      10.926   8.422  19.464  0.00  0.00    +0.113 A 
ENDBRANCH  27  28
ENDBRANCH  22   8
ENDBRANCH  11  15
BRANCH  11   3
ATOM      3  O   UNL     1      21.502   5.075  19.739  0.00  0.00    -0.385 OA
ATOM     33  H   UNL     1      21.509   5.869  19.178  0.00  0.00    +0.210 HD
ENDBRANCH  11   3
TORSDOF 7
ENDMDL
MODEL 4
REMARK VINA RESULT:      -7.1     27.872     31.057
REMARK  Name = 56774784
REMARK  7 active torsions:
REMARK  status: ('A' for Active; 'I' for Inactive)
REMARK    1  A    between atoms: O_3  and  C_11
REMARK    2  A    between atoms: N_6  and  C_13
REMARK    3  A    between atoms: N_8  and  C_22
REMARK    4  A    between atoms: C_10  and  C_11
REMARK    5  A    between atoms: C_11  and  C_15
REMARK    6  A    between atoms: C_13  and  C_17
REMARK    7  A    between atoms: C_27  and  C_28
REMARK                            x       y       z     vdW  Elec       q    Type
REMARK                         _______ _______ _______ _____ _____    ______ ____
ROOT
ATOM     11  C   UNL     1     -11.078   9.726  19.701  0.00  0.00    +0.167 C 
ENDROOT
BRANCH  11  10
ATOM      2  O   UNL     1     -10.100  11.878  17.963  0.00  0.00    -0.369 OA
ATOM      4  O   UNL     1     -10.340   9.303  15.442  0.00  0.00    -0.273 OA
ATOM      6  N   UNL     1     -11.682   9.657  17.310  0.00  0.00    -0.286 N 
ATOM     10  C   UNL     1     -11.868  10.389  18.569  0.00  0.00    +0.135 C 
ATOM     12  C   UNL     1     -11.456  11.845  18.392  0.00  0.00    +0.185 C 
ATOM     14  C   UNL     1     -10.656   9.978  16.423  0.00  0.00    +0.242 C 
ATOM     16  C   UNL     1      -9.962  11.311  16.679  0.00  0.00    +0.255 C 
BRANCH   6  13
ATOM     13  C   UNL     1     -12.489   8.462  17.100  0.00  0.00    +0.163 C 
BRANCH  13  17
ATOM      7  N   UNL     1     -14.471   9.684  16.412  0.00  0.00    -0.258 NA
ATOM     17  C   UNL     1     -13.956   8.744  17.235  0.00  0.00    +0.059 A 
ATOM     23  C   UNL     1     -14.698   8.047  18.176  0.00  0.00    +0.025 A 
ATOM     24  C   UNL     1     -16.055   8.333  18.276  0.00  0.00    +0.003 A 
ATOM     25  C   UNL     1     -15.794   9.935  16.538  0.00  0.00    +0.111 A 
ATOM     26  C   UNL     1     -16.621   9.294  17.446  0.00  0.00    +0.020 A 
ENDBRANCH  13  17
ENDBRANCH   6  13
ENDBRANCH  11  10
BRANCH  11  15
ATOM     15  C   UNL     1     -11.913   8.720  20.453  0.00  0.00    -0.017 A 
ATOM     18  C   UNL     1     -11.551   7.373  20.450  0.00  0.00    +0.008 A 
ATOM     19  C   UNL     1     -13.047   9.137  21.149  0.00  0.00    +0.008 A 
ATOM     20  C   UNL     1     -12.325   6.442  21.146  0.00  0.00    +0.023 A 
ATOM     21  C   UNL     1     -13.821   8.207  21.844  0.00  0.00    +0.023 A 
ATOM     22  C   UNL     1     -13.459   6.859  21.843  0.00  0.00    +0.034 A 
BRANCH  22   8
ATOM      5  O   UNL     1     -15.765   5.180  20.919  0.00  0.00    -0.270 OA
ATOM      8  N   UNL     1     -14.233   5.929  22.538  0.00  0.00    -0.282 N 
ATOM     27  C   UNL     1     -15.305   5.168  22.057  0.00  0.00    +0.248 C 
ATOM     34  H   UNL     1     -13.931   5.783  23.497  0.00  0.00    +0.155 HD
BRANCH  27  28
ATOM      1 CL   UNL     1     -19.092   1.868  23.398  0.00  0.00    -0.062 Cl
ATOM      9  N   UNL     1     -17.064   2.481  24.890  0.00  0.00    -0.244 NA
ATOM     28  C   UNL     1     -15.916   4.235  23.039  0.00  0.00    +0.041 A 
ATOM     29  C   UNL     1     -17.104   3.579  22.736  0.00  0.00    +0.053 A 
ATOM     30  C   UNL     1     -15.302   4.016  24.268  0.00  0.00    +0.033 A 
ATOM     31  C   UNL     1     -17.631   2.720  23.686  0.00  0.00    +0.130 A 
ATOM     32  C   UNL     1     -15.910   3.138  25.150  0.00  0.00    +0.113 A 
ENDBRANCH  27  28
ENDBRANCH  22   8
ENDBRANCH  11  15
BRANCH  11   3
ATOM      3  O   UNL     1      -9.931   9.081  19.159  0.00  0.00    -0.385 OA
ATOM     33  H   UNL     1      -9.655   9.544  18.351  0.00  0.00    +0.210 HD
ENDBRANCH  11   3
TORSDOF 7
ENDMDL
MODEL 5
REMARK VINA RESULT:      -7.1     28.343     31.563
REMARK  Name = 56774784
REMARK  7 active torsions:
REMARK  status: ('A' for Active; 'I' for Inactive)
REMARK    1  A    between atoms: O_3  and  C_11
REMARK    2  A    between atoms: N_6  and  C_13
REMARK    3  A    between atoms: N_8  and  C_22
REMARK    4  A    between atoms: C_10  and  C_11
REMARK    5  A    between atoms: C_11  and  C_15
REMARK    6  A    between atoms: C_13  and  C_17
REMARK    7  A    between atoms: C_27  and  C_28
REMARK                            x       y       z     vdW  Elec       q    Type
REMARK                         _______ _______ _______ _____ _____    ______ ____
ROOT
ATOM     11  C   UNL     1     -13.047  -7.193  15.175  0.00  0.00    +0.167 C 
ENDROOT
BRANCH  11  10
ATOM      2  O   UNL     1     -15.698  -7.410  13.935  0.00  0.00    -0.369 OA
ATOM      4  O   UNL     1     -15.030  -3.979  13.030  0.00  0.00    -0.273 OA
ATOM      6  N   UNL     1     -13.544  -5.759  13.231  0.00  0.00    -0.286 N 
ATOM     10  C   UNL     1     -13.337  -7.144  13.672  0.00  0.00    +0.135 C 
ATOM     12  C   UNL     1     -14.554  -7.991  13.320  0.00  0.00    +0.185 C 
ATOM     14  C   UNL     1     -14.810  -5.176  13.223  0.00  0.00    +0.242 C 
ATOM     16  C   UNL     1     -15.978  -6.142  13.386  0.00  0.00    +0.255 C 
BRANCH   6  13
ATOM     13  C   UNL     1     -12.360  -4.950  12.974  0.00  0.00    +0.163 C 
BRANCH  13  17
ATOM      7  N   UNL     1     -11.970  -5.955  10.797  0.00  0.00    -0.258 NA
ATOM     17  C   UNL     1     -12.084  -4.809  11.505  0.00  0.00    +0.059 A 
ATOM     23  C   UNL     1     -11.962  -3.543  10.956  0.00  0.00    +0.025 A 
ATOM     24  C   UNL     1     -11.706  -3.447   9.592  0.00  0.00    +0.003 A 
ATOM     25  C   UNL     1     -11.721  -5.823   9.475  0.00  0.00    +0.111 A 
ATOM     26  C   UNL     1     -11.581  -4.604   8.831  0.00  0.00    +0.020 A 
ENDBRANCH  13  17
ENDBRANCH   6  13
ENDBRANCH  11  10
BRANCH  11  15
ATOM     15  C   UNL     1     -11.667  -7.728  15.463  0.00  0.00    -0.017 A 
ATOM     18  C   UNL     1     -11.023  -8.534  14.524  0.00  0.00    +0.008 A 
ATOM     19  C   UNL     1     -11.036  -7.417  16.667  0.00  0.00    +0.008 A 
ATOM     20  C   UNL     1      -9.746  -9.029  14.790  0.00  0.00    +0.023 A 
ATOM     21  C   UNL     1      -9.759  -7.914  16.933  0.00  0.00    +0.023 A 
ATOM     22  C   UNL     1      -9.114  -8.719  15.994  0.00  0.00    +0.034 A 
BRANCH  22   8
ATOM      5  O   UNL     1      -8.205 -10.746  18.007  0.00  0.00    -0.270 OA
ATOM      8  N   UNL     1      -7.838  -9.215  16.261  0.00  0.00    -0.282 N 
ATOM     27  C   UNL     1      -7.465 -10.167  17.218  0.00  0.00    +0.248 C 
ATOM     34  H   UNL     1      -7.119  -8.848  15.643  0.00  0.00    +0.155 HD
BRANCH  27  28
ATOM      1 CL   UNL     1      -3.373 -12.296  19.619  0.00  0.00    -0.062 Cl
ATOM      9  N   UNL     1      -3.301 -11.164  17.288  0.00  0.00    -0.244 NA
ATOM     28  C   UNL     1      -6.019 -10.513  17.244  0.00  0.00    +0.041 A 
ATOM     29  C   UNL     1      -5.479 -11.178  18.339  0.00  0.00    +0.053 A 
ATOM     30  C   UNL     1      -5.202 -10.172  16.171  0.00  0.00    +0.033 A 
ATOM     31  C   UNL     1      -4.126 -11.478  18.312  0.00  0.00    +0.130 A 
ATOM     32  C   UNL     1      -3.862 -10.517  16.241  0.00  0.00    +0.113 A 
ENDBRANCH  27  28
ENDBRANCH  22   8
ENDBRANCH  11  15
BRANCH  11   3
ATOM      3  O   UNL     1     -13.174  -5.885  15.722  0.00  0.00    -0.385 OA
ATOM     33  H   UNL     1     -13.790  -5.910  16.473  0.00  0.00    +0.210 HD
ENDBRANCH  11   3
TORSDOF 7
ENDMDL
MODEL 6
REMARK VINA RESULT:      -6.8     27.964     30.835
REMARK  Name = 56774784
REMARK  7 active torsions:
REMARK  status: ('A' for Active; 'I' for Inactive)
REMARK    1  A    between atoms: O_3  and  C_11
REMARK    2  A    between atoms: N_6  and  C_13
REMARK    3  A    between atoms: N_8  and  C_22
REMARK    4  A    between atoms: C_10  and  C_11
REMARK    5  A    between atoms: C_11  and  C_15
REMARK    6  A    between atoms: C_13  and  C_17
REMARK    7  A    between atoms: C_27  and  C_28
REMARK                            x       y       z     vdW  Elec       q    Type
REMARK                         _______ _______ _______ _____ _____    ______ ____
ROOT
ATOM     11  C   UNL     1     -11.503   9.397  20.027  0.00  0.00    +0.167 C 
ENDROOT
BRANCH  11  10
ATOM      2  O   UNL     1     -12.050  12.120  19.082  0.00  0.00    -0.369 OA
ATOM      4  O   UNL     1      -9.596  11.235  16.585  0.00  0.00    -0.273 OA
ATOM      6  N   UNL     1     -11.177   9.886  17.631  0.00  0.00    -0.286 N 
ATOM     10  C   UNL     1     -12.175   9.764  18.701  0.00  0.00    +0.135 C 
ATOM     12  C   UNL     1     -12.965  11.062  18.827  0.00  0.00    +0.185 C 
ATOM     14  C   UNL     1     -10.556  11.101  17.345  0.00  0.00    +0.242 C 
ATOM     16  C   UNL     1     -11.199  12.329  17.978  0.00  0.00    +0.255 C 
BRANCH   6  13
ATOM     13  C   UNL     1     -10.718   8.658  16.996  0.00  0.00    +0.163 C 
BRANCH  13  17
ATOM      7  N   UNL     1     -12.765   8.500  15.697  0.00  0.00    -0.258 NA
ATOM     17  C   UNL     1     -11.417   8.406  15.691  0.00  0.00    +0.059 A 
ATOM     23  C   UNL     1     -10.666   8.095  14.569  0.00  0.00    +0.025 A 
ATOM     24  C   UNL     1     -11.343   7.867  13.376  0.00  0.00    +0.003 A 
ATOM     25  C   UNL     1     -13.389   8.272  14.520  0.00  0.00    +0.111 A 
ATOM     26  C   UNL     1     -12.731   7.955  13.342  0.00  0.00    +0.020 A 
ENDBRANCH  13  17
ENDBRANCH   6  13
ENDBRANCH  11  10
BRANCH  11  15
ATOM     15  C   UNL     1     -12.302   8.376  20.796  0.00  0.00    -0.017 A 
ATOM     18  C   UNL     1     -11.929   7.031  20.764  0.00  0.00    +0.008 A 
ATOM     19  C   UNL     1     -13.413   8.774  21.538  0.00  0.00    +0.008 A 
ATOM     20  C   UNL     1     -12.669   6.086  21.476  0.00  0.00    +0.023 A 
ATOM     21  C   UNL     1     -14.153   7.829  22.248  0.00  0.00    +0.023 A 
ATOM     22  C   UNL     1     -13.780   6.485  22.218  0.00  0.00    +0.034 A 
BRANCH  22   8
ATOM      5  O   UNL     1     -16.053   4.740  21.335  0.00  0.00    -0.270 OA
ATOM      8  N   UNL     1     -14.521   5.540  22.929  0.00  0.00    -0.282 N 
ATOM     27  C   UNL     1     -15.579   4.747  22.467  0.00  0.00    +0.248 C 
ATOM     34  H   UNL     1     -14.204   5.408  23.885  0.00  0.00    +0.155 HD
BRANCH  27  28
ATOM      1 CL   UNL     1     -15.945   3.018  27.356  0.00  0.00    -0.062 Cl
ATOM      9  N   UNL     1     -17.235   2.034  25.335  0.00  0.00    -0.244 NA
ATOM     28  C   UNL     1     -16.153   3.806  23.463  0.00  0.00    +0.041 A 
ATOM     29  C   UNL     1     -15.781   3.890  24.800  0.00  0.00    +0.053 A 
ATOM     30  C   UNL     1     -17.065   2.836  23.061  0.00  0.00    +0.033 A 
ATOM     31  C   UNL     1     -16.346   2.988  25.688  0.00  0.00    +0.130 A 
ATOM     32  C   UNL     1     -17.573   1.982  24.026  0.00  0.00    +0.113 A 
ENDBRANCH  27  28
ENDBRANCH  22   8
ENDBRANCH  11  15
BRANCH  11   3
ATOM      3  O   UNL     1     -10.200   8.885  19.768  0.00  0.00    -0.385 OA
ATOM     33  H   UNL     1      -9.569   9.623  19.727  0.00  0.00    +0.210 HD
ENDBRANCH  11   3
TORSDOF 7
ENDMDL
MODEL 7
REMARK VINA RESULT:      -6.8     28.252     31.185
REMARK  Name = 56774784
REMARK  7 active torsions:
REMARK  status: ('A' for Active; 'I' for Inactive)
REMARK    1  A    between atoms: O_3  and  C_11
REMARK    2  A    between atoms: N_6  and  C_13
REMARK    3  A    between atoms: N_8  and  C_22
REMARK    4  A    between atoms: C_10  and  C_11
REMARK    5  A    between atoms: C_11  and  C_15
REMARK    6  A    between atoms: C_13  and  C_17
REMARK    7  A    between atoms: C_27  and  C_28
REMARK                            x       y       z     vdW  Elec       q    Type
REMARK                         _______ _______ _______ _____ _____    ______ ____
ROOT
ATOM     11  C   UNL     1      -9.857 -11.385  20.010  0.00  0.00    +0.167 C 
ENDROOT
BRANCH  11  10
ATOM      2  O   UNL     1     -11.627 -13.687  20.427  0.00  0.00    -0.369 OA
ATOM      4  O   UNL     1     -14.020 -11.099  21.215  0.00  0.00    -0.273 OA
ATOM      6  N   UNL     1     -12.279 -11.067  19.670  0.00  0.00    -0.286 N 
ATOM     10  C   UNL     1     -11.078 -11.738  19.157  0.00  0.00    +0.135 C 
ATOM     12  C   UNL     1     -11.301 -13.245  19.115  0.00  0.00    +0.185 C 
ATOM     14  C   UNL     1     -13.103 -11.669  20.621  0.00  0.00    +0.242 C 
ATOM     16  C   UNL     1     -12.865 -13.158  20.845  0.00  0.00    +0.255 C 
BRANCH   6  13
ATOM     13  C   UNL     1     -12.486  -9.675  19.293  0.00  0.00    +0.163 C 
BRANCH  13  17
ATOM      7  N   UNL     1     -13.042 -10.193  16.986  0.00  0.00    -0.258 NA
ATOM     17  C   UNL     1     -12.279  -9.455  17.823  0.00  0.00    +0.059 A 
ATOM     23  C   UNL     1     -11.339  -8.529  17.401  0.00  0.00    +0.025 A 
ATOM     24  C   UNL     1     -11.171  -8.349  16.032  0.00  0.00    +0.003 A 
ATOM     25  C   UNL     1     -12.852  -9.992  15.663  0.00  0.00    +0.111 A 
ATOM     26  C   UNL     1     -11.938  -9.091  15.140  0.00  0.00    +0.020 A 
ENDBRANCH  13  17
ENDBRANCH   6  13
ENDBRANCH  11  10
BRANCH  11  15
ATOM     15  C   UNL     1      -8.630 -11.156  19.165  0.00  0.00    -0.017 A 
ATOM     18  C   UNL     1      -7.365 -11.167  19.754  0.00  0.00    +0.008 A 
ATOM     19  C   UNL     1      -8.759 -10.933  17.794  0.00  0.00    +0.008 A 
ATOM     20  C   UNL     1      -6.229 -10.956  18.971  0.00  0.00    +0.023 A 
ATOM     21  C   UNL     1      -7.624 -10.721  17.012  0.00  0.00    +0.023 A 
ATOM     22  C   UNL     1      -6.359 -10.732  17.601  0.00  0.00    +0.034 A 
BRANCH  22   8
ATOM      5  O   UNL     1      -4.511 -12.697  16.292  0.00  0.00    -0.270 OA
ATOM      8  N   UNL     1      -5.224 -10.520  16.818  0.00  0.00    -0.282 N 
ATOM     27  C   UNL     1      -4.391 -11.478  16.227  0.00  0.00    +0.248 C 
ATOM     34  H   UNL     1      -5.026  -9.538  16.642  0.00  0.00    +0.155 HD
BRANCH  27  28
ATOM      1 CL   UNL     1      -2.305 -10.289  11.615  0.00  0.00    -0.062 Cl
ATOM      9  N   UNL     1      -1.150  -9.916  13.905  0.00  0.00    -0.244 NA
ATOM     28  C   UNL     1      -3.267 -10.936  15.420  0.00  0.00    +0.041 A 
ATOM     29  C   UNL     1      -3.357 -10.894  14.033  0.00  0.00    +0.053 A 
ATOM     30  C   UNL     1      -2.118 -10.469  16.050  0.00  0.00    +0.033 A 
ATOM     31  C   UNL     1      -2.281 -10.379  13.328  0.00  0.00    +0.130 A 
ATOM     32  C   UNL     1      -1.098  -9.973  15.255  0.00  0.00    +0.113 A 
ENDBRANCH  27  28
ENDBRANCH  22   8
ENDBRANCH  11  15
BRANCH  11   3
ATOM      3  O   UNL     1     -10.136 -10.214  20.770  0.00  0.00    -0.385 OA
ATOM     33  H   UNL     1     -10.450  -9.513  20.174  0.00  0.00    +0.210 HD
ENDBRANCH  11   3
TORSDOF 7
ENDMDL
MODEL 8
REMARK VINA RESULT:      -6.7     27.933     30.790
REMARK  Name = 56774784
REMARK  7 active torsions:
REMARK  status: ('A' for Active; 'I' for Inactive)
REMARK    1  A    between atoms: O_3  and  C_11
REMARK    2  A    between atoms: N_6  and  C_13
REMARK    3  A    between atoms: N_8  and  C_22
REMARK    4  A    between atoms: C_10  and  C_11
REMARK    5  A    between atoms: C_11  and  C_15
REMARK    6  A    between atoms: C_13  and  C_17
REMARK    7  A    between atoms: C_27  and  C_28
REMARK                            x       y       z     vdW  Elec       q    Type
REMARK                         _______ _______ _______ _____ _____    ______ ____
ROOT
ATOM     11  C   UNL     1      -2.566 -11.174  11.418  0.00  0.00    +0.167 C 
ENDROOT
BRANCH  11  10
ATOM      2  O   UNL     1      -1.250 -12.885  13.405  0.00  0.00    -0.369 OA
ATOM      4  O   UNL     1      -2.473 -10.365  15.684  0.00  0.00    -0.273 OA
ATOM      6  N   UNL     1      -3.441 -11.165  13.724  0.00  0.00    -0.286 N 
ATOM     10  C   UNL     1      -3.273 -11.978  12.513  0.00  0.00    +0.135 C 
ATOM     12  C   UNL     1      -2.503 -13.251  12.841  0.00  0.00    +0.185 C 
ATOM     14  C   UNL     1      -2.477 -11.147  14.731  0.00  0.00    +0.242 C 
ATOM     16  C   UNL     1      -1.422 -12.244  14.648  0.00  0.00    +0.255 C 
BRANCH   6  13
ATOM     13  C   UNL     1      -4.561 -10.234  13.760  0.00  0.00    +0.163 C 
BRANCH  13  17
ATOM      7  N   UNL     1      -6.162 -11.813  14.679  0.00  0.00    -0.258 NA
ATOM     17  C   UNL     1      -5.566 -10.606  14.810  0.00  0.00    +0.059 A 
ATOM     23  C   UNL     1      -5.833  -9.718  15.840  0.00  0.00    +0.025 A 
ATOM     24  C   UNL     1      -6.770 -10.093  16.796  0.00  0.00    +0.003 A 
ATOM     25  C   UNL     1      -7.067 -12.143  15.627  0.00  0.00    +0.111 A 
ATOM     26  C   UNL     1      -7.404 -11.327  16.695  0.00  0.00    +0.020 A 
ENDBRANCH  13  17
ENDBRANCH   6  13
ENDBRANCH  11  10
BRANCH  11  15
ATOM     15  C   UNL     1      -3.540 -10.635  10.401  0.00  0.00    -0.017 A 
ATOM     18  C   UNL     1      -4.506 -11.476   9.848  0.00  0.00    +0.008 A 
ATOM     19  C   UNL     1      -3.474  -9.297  10.012  0.00  0.00    +0.008 A 
ATOM     20  C   UNL     1      -5.408 -10.978   8.906  0.00  0.00    +0.023 A 
ATOM     21  C   UNL     1      -4.375  -8.799   9.070  0.00  0.00    +0.023 A 
ATOM     22  C   UNL     1      -5.342  -9.640   8.518  0.00  0.00    +0.034 A 
BRANCH  22   8
ATOM      5  O   UNL     1      -7.902  -8.125   8.896  0.00  0.00    -0.270 OA
ATOM      8  N   UNL     1      -6.242  -9.141   7.576  0.00  0.00    -0.282 N 
ATOM     27  C   UNL     1      -7.430  -8.436   7.806  0.00  0.00    +0.248 C 
ATOM     34  H   UNL     1      -5.952  -9.291   6.613  0.00  0.00    +0.155 HD
BRANCH  27  28
ATOM      1 CL   UNL     1      -7.725  -7.993   2.634  0.00  0.00    -0.062 Cl
ATOM      9  N   UNL     1      -9.551  -7.204   4.296  0.00  0.00    -0.244 NA
ATOM     28  C   UNL     1      -8.165  -8.009   6.587  0.00  0.00    +0.041 A 
ATOM     29  C   UNL     1      -7.608  -8.206   5.329  0.00  0.00    +0.053 A 
ATOM     30  C   UNL     1      -9.415  -7.408   6.701  0.00  0.00    +0.033 A 
ATOM     31  C   UNL     1      -8.335  -7.790   4.225  0.00  0.00    +0.130 A 
ATOM     32  C   UNL     1     -10.060  -7.028   5.537  0.00  0.00    +0.113 A 
ENDBRANCH  27  28
ENDBRANCH  22   8
ENDBRANCH  11  15
BRANCH  11   3
ATOM      3  O   UNL     1      -1.853 -10.094  12.011  0.00  0.00    -0.385 OA
ATOM     33  H   UNL     1      -0.918 -10.146  11.751  0.00  0.00    +0.210 HD
ENDBRANCH  11   3
TORSDOF 7
ENDMDL
MODEL 9
REMARK VINA RESULT:      -6.7     27.916     31.251
REMARK  Name = 56774784
REMARK  7 active torsions:
REMARK  status: ('A' for Active; 'I' for Inactive)
REMARK    1  A    between atoms: O_3  and  C_11
REMARK    2  A    between atoms: N_6  and  C_13
REMARK    3  A    between atoms: N_8  and  C_22
REMARK    4  A    between atoms: C_10  and  C_11
REMARK    5  A    between atoms: C_11  and  C_15
REMARK    6  A    between atoms: C_13  and  C_17
REMARK    7  A    between atoms: C_27  and  C_28
REMARK                            x       y       z     vdW  Elec       q    Type
REMARK                         _______ _______ _______ _____ _____    ______ ____
ROOT
ATOM     11  C   UNL     1     -12.500   8.298  19.442  0.00  0.00    +0.167 C 
ENDROOT
BRANCH  11  10
ATOM      2  O   UNL     1     -10.499  10.223  18.494  0.00  0.00    -0.369 OA
ATOM      4  O   UNL     1     -13.048  12.606  19.426  0.00  0.00    -0.273 OA
ATOM      6  N   UNL     1     -12.516  10.566  20.412  0.00  0.00    -0.286 N 
ATOM     10  C   UNL     1     -11.755   9.314  20.313  0.00  0.00    +0.135 C 
ATOM     12  C   UNL     1     -10.362   9.592  19.761  0.00  0.00    +0.185 C 
ATOM     14  C   UNL     1     -12.330  11.608  19.504  0.00  0.00    +0.242 C 
ATOM     16  C   UNL     1     -11.090  11.496  18.625  0.00  0.00    +0.255 C 
BRANCH   6  13
ATOM     13  C   UNL     1     -13.605  10.617  21.378  0.00  0.00    +0.163 C 
BRANCH  13  17
ATOM      7  N   UNL     1     -13.786  12.604  22.765  0.00  0.00    -0.258 NA
ATOM     17  C   UNL     1     -13.225  11.384  22.612  0.00  0.00    +0.059 A 
ATOM     23  C   UNL     1     -12.338  10.820  23.514  0.00  0.00    +0.025 A 
ATOM     24  C   UNL     1     -12.006  11.556  24.647  0.00  0.00    +0.003 A 
ATOM     25  C   UNL     1     -13.440  13.290  23.877  0.00  0.00    +0.111 A 
ATOM     26  C   UNL     1     -12.563  12.815  24.839  0.00  0.00    +0.020 A 
ENDBRANCH  13  17
ENDBRANCH   6  13
ENDBRANCH  11  10
BRANCH  11  15
ATOM     15  C   UNL     1     -13.182   7.241  20.274  0.00  0.00    -0.017 A 
ATOM     18  C   UNL     1     -14.566   7.080  20.197  0.00  0.00    +0.008 A 
ATOM     19  C   UNL     1     -12.431   6.427  21.120  0.00  0.00    +0.008 A 
ATOM     20  C   UNL     1     -15.198   6.103  20.967  0.00  0.00    +0.023 A 
ATOM     21  C   UNL     1     -13.063   5.450  21.891  0.00  0.00    +0.023 A 
ATOM     22  C   UNL     1     -14.446   5.288  21.813  0.00  0.00    +0.034 A 
BRANCH  22   8
ATOM      5  O   UNL     1     -16.230   5.561  24.208  0.00  0.00    -0.270 OA
ATOM      8  N   UNL     1     -15.077   4.311  22.584  0.00  0.00    -0.282 N 
ATOM     27  C   UNL     1     -15.905   4.493  23.699  0.00  0.00    +0.248 C 
ATOM     34  H   UNL     1     -14.928   3.364  22.246  0.00  0.00    +0.155 HD
BRANCH  27  28
ATOM      1 CL   UNL     1     -16.347   1.222  27.717  0.00  0.00    -0.062 Cl
ATOM      9  N   UNL     1     -17.492   0.904  25.413  0.00  0.00    -0.244 NA
ATOM     28  C   UNL     1     -16.455   3.247  24.295  0.00  0.00    +0.041 A 
ATOM     29  C   UNL     1     -16.141   2.900  25.604  0.00  0.00    +0.053 A 
ATOM     30  C   UNL     1     -17.287   2.423  23.544  0.00  0.00    +0.033 A 
ATOM     31  C   UNL     1     -16.680   1.729  26.112  0.00  0.00    +0.130 A 
ATOM     32  C   UNL     1     -17.775   1.274  24.143  0.00  0.00    +0.113 A 
ENDBRANCH  27  28
ENDBRANCH  22   8
ENDBRANCH  11  15
BRANCH  11   3
ATOM      3  O   UNL     1     -13.467   8.976  18.649  0.00  0.00    -0.385 OA
ATOM     33  H   UNL     1     -13.857   9.700  19.168  0.00  0.00    +0.210 HD
ENDBRANCH  11   3
TORSDOF 7
ENDMDL
MODEL 10
REMARK VINA RESULT:      -6.6     29.059     32.196
REMARK  Name = 56774784
REMARK  7 active torsions:
REMARK  status: ('A' for Active; 'I' for Inactive)
REMARK    1  A    between atoms: O_3  and  C_11
REMARK    2  A    between atoms: N_6  and  C_13
REMARK    3  A    between atoms: N_8  and  C_22
REMARK    4  A    between atoms: C_10  and  C_11
REMARK    5  A    between atoms: C_11  and  C_15
REMARK    6  A    between atoms: C_13  and  C_17
REMARK    7  A    between atoms: C_27  and  C_28
REMARK                            x       y       z     vdW  Elec       q    Type
REMARK                         _______ _______ _______ _____ _____    ______ ____
ROOT
ATOM     11  C   UNL     1     -13.664  -5.868  13.625  0.00  0.00    +0.167 C 
ENDROOT
BRANCH  11  10
ATOM      2  O   UNL     1     -16.074  -5.319  12.045  0.00  0.00    -0.369 OA
ATOM      4  O   UNL     1     -13.793  -3.244  10.167  0.00  0.00    -0.273 OA
ATOM      6  N   UNL     1     -13.386  -5.263  11.250  0.00  0.00    -0.286 N 
ATOM     10  C   UNL     1     -13.893  -6.288  12.171  0.00  0.00    +0.135 C 
ATOM     12  C   UNL     1     -15.371  -6.547  11.901  0.00  0.00    +0.185 C 
ATOM     14  C   UNL     1     -14.196  -4.223  10.797  0.00  0.00    +0.242 C 
ATOM     16  C   UNL     1     -15.689  -4.396  11.052  0.00  0.00    +0.255 C 
BRANCH   6  13
ATOM     13  C   UNL     1     -11.957  -5.260  10.966  0.00  0.00    +0.163 C 
BRANCH  13  17
ATOM      7  N   UNL     1     -11.228  -7.434  10.165  0.00  0.00    -0.258 NA
ATOM     17  C   UNL     1     -11.608  -6.181   9.833  0.00  0.00    +0.059 A 
ATOM     23  C   UNL     1     -11.688  -5.714   8.531  0.00  0.00    +0.025 A 
ATOM     24  C   UNL     1     -11.358  -6.592   7.504  0.00  0.00    +0.003 A 
ATOM     25  C   UNL     1     -10.914  -8.259   9.141  0.00  0.00    +0.111 A 
ATOM     26  C   UNL     1     -10.962  -7.890   7.806  0.00  0.00    +0.020 A 
ENDBRANCH  13  17
ENDBRANCH   6  13
ENDBRANCH  11  10
BRANCH  11  15
ATOM     15  C   UNL     1     -12.435  -6.517  14.209  0.00  0.00    -0.017 A 
ATOM     18  C   UNL     1     -11.607  -5.796  15.069  0.00  0.00    +0.008 A 
ATOM     19  C   UNL     1     -12.125  -7.839  13.887  0.00  0.00    +0.008 A 
ATOM     20  C   UNL     1     -10.469  -6.397  15.609  0.00  0.00    +0.023 A 
ATOM     21  C   UNL     1     -10.987  -8.440  14.426  0.00  0.00    +0.023 A 
ATOM     22  C   UNL     1     -10.159  -7.718  15.288  0.00  0.00    +0.034 A 
BRANCH  22   8
ATOM      5  O   UNL     1      -9.810  -9.288  17.818  0.00  0.00    -0.270 OA
ATOM      8  N   UNL     1      -9.021  -8.320  15.826  0.00  0.00    -0.282 N 
ATOM     27  C   UNL     1      -8.912  -9.046  17.018  0.00  0.00    +0.248 C 
ATOM     34  H   UNL     1      -8.197  -8.235  15.238  0.00  0.00    +0.155 HD
BRANCH  27  28
ATOM      1 CL   UNL     1      -5.600 -11.410  20.256  0.00  0.00    -0.062 Cl
ATOM      9  N   UNL     1      -5.018 -10.618  17.858  0.00  0.00    -0.244 NA
ATOM     28  C   UNL     1      -7.560  -9.592  17.311  0.00  0.00    +0.041 A 
ATOM     29  C   UNL     1      -7.294 -10.177  18.544  0.00  0.00    +0.053 A 
ATOM     30  C   UNL     1      -6.556  -9.518  16.352  0.00  0.00    +0.033 A 
ATOM     31  C   UNL     1      -6.018 -10.671  18.765  0.00  0.00    +0.130 A 
ATOM     32  C   UNL     1      -5.314 -10.041  16.671  0.00  0.00    +0.113 A 
ENDBRANCH  27  28
ENDBRANCH  22   8
ENDBRANCH  11  15
BRANCH  11   3
ATOM      3  O   UNL     1     -13.530  -4.452  13.691  0.00  0.00    -0.385 OA
ATOM     33  H   UNL     1     -14.412  -4.045  13.660  0.00  0.00    +0.210 HD
ENDBRANCH  11   3
TORSDOF 7
ENDMDL
