MODEL 1
REMARK VINA RESULT:      -7.0      0.000      0.000
REMARK  Name = 25390190
REMARK  10 active torsions:
REMARK  status: ('A' for Active; 'I' for Inactive)
REMARK    1  A    between atoms: O_3  and  C_9
REMARK    2  A    between atoms: O_4  and  C_10
REMARK    3  A    between atoms: N_7  and  C_14
REMARK    4  A    between atoms: N_8  and  C_17
REMARK    5  A    between atoms: C_11  and  C_13
REMARK    6  A    between atoms: C_12  and  C_14
REMARK    7  A    between atoms: C_13  and  C_15
REMARK    8  A    between atoms: C_16  and  C_18
REMARK    9  A    between atoms: C_17  and  C_19
REMARK   10  A    between atoms: C_26  and  C_30
REMARK                            x       y       z     vdW  Elec       q    Type
REMARK                         _______ _______ _______ _____ _____    ______ ____
ROOT
ATOM      2  O   UNL     1      12.617  10.944  22.052  0.00  0.00    -0.366 OA
ATOM      9  C   UNL     1      11.240  11.496  23.883  0.00  0.00    +0.175 C 
ATOM     10  C   UNL     1      12.353  12.521  23.813  0.00  0.00    +0.176 C 
ATOM     11  C   UNL     1      11.240  10.948  22.467  0.00  0.00    +0.158 C 
ATOM     12  C   UNL     1      13.372  11.822  22.918  0.00  0.00    +0.167 C 
ENDROOT
BRANCH   9   3
ATOM      3  O   UNL     1       9.991  12.051  24.237  0.00  0.00    -0.387 OA
ATOM     31  H   UNL     1      10.150  12.695  24.948  0.00  0.00    +0.210 HD
ENDBRANCH   9   3
BRANCH  10   4
ATOM      4  O   UNL     1      11.904  13.695  23.139  0.00  0.00    -0.387 OA
ATOM     32  H   UNL     1      11.340  13.408  22.400  0.00  0.00    +0.210 HD
ENDBRANCH  10   4
BRANCH  11  13
ATOM     13  C   UNL     1      10.671   9.544  22.363  0.00  0.00    +0.130 C 
BRANCH  13  15
ATOM      5  O   UNL     1      12.374   7.864  22.009  0.00  0.00    -0.276 OA
ATOM      8  N   UNL     1      11.266   8.758  20.173  0.00  0.00    -0.311 N 
ATOM     15  C   UNL     1      11.539   8.623  21.526  0.00  0.00    +0.216 C 
ATOM     34  H   UNL     1      10.541   9.410  19.884  0.00  0.00    +0.149 HD
BRANCH   8  17
ATOM     17  C   UNL     1      11.950   8.000  19.150  0.00  0.00    +0.139 C 
BRANCH  17  19
ATOM      1  F   UNL     1      15.086  11.294  15.831  0.00  0.00    -0.205 F 
ATOM     19  C   UNL     1      12.786   8.878  18.265  0.00  0.00    -0.030 A 
ATOM     22  C   UNL     1      12.984  10.219  18.599  0.00  0.00    +0.008 A 
ATOM     23  C   UNL     1      13.366   8.354  17.110  0.00  0.00    +0.008 A 
ATOM     27  C   UNL     1      13.760  11.034  17.776  0.00  0.00    +0.038 A 
ATOM     28  C   UNL     1      14.142   9.171  16.288  0.00  0.00    +0.038 A 
ATOM     29  C   UNL     1      14.340  10.510  16.620  0.00  0.00    +0.123 A 
ENDBRANCH  17  19
ENDBRANCH   8  17
ENDBRANCH  13  15
ENDBRANCH  11  13
BRANCH  12  14
ATOM     14  C   UNL     1      14.362  10.967  23.698  0.00  0.00    +0.138 C 
BRANCH  14   7
ATOM      6  O   UNL     1      16.687  11.090  22.017  0.00  0.00    -0.270 OA
ATOM      7  N   UNL     1      14.886   9.911  22.884  0.00  0.00    -0.309 N 
ATOM     16  C   UNL     1      16.025  10.059  22.096  0.00  0.00    +0.244 C 
ATOM     33  H   UNL     1      14.354   9.048  22.861  0.00  0.00    +0.149 HD
BRANCH  16  18
ATOM     18  C   UNL     1      16.424   8.878  21.289  0.00  0.00    +0.037 A 
ATOM     20  C   UNL     1      15.549   8.352  20.339  0.00  0.00    +0.013 A 
ATOM     21  C   UNL     1      17.677   8.294  21.481  0.00  0.00    +0.013 A 
ATOM     24  C   UNL     1      15.924   7.242  19.581  0.00  0.00    +0.004 A 
ATOM     25  C   UNL     1      18.052   7.184  20.725  0.00  0.00    +0.004 A 
ATOM     26  C   UNL     1      17.176   6.658  19.775  0.00  0.00    -0.050 A 
ATOM     30  C   UNL     1      17.578   5.472  18.964  0.00  0.00    +0.044 C 
ENDBRANCH  16  18
ENDBRANCH  14   7
ENDBRANCH  12  14
TORSDOF 9
ENDMDL
MODEL 2
REMARK VINA RESULT:      -6.9      2.757      6.177
REMARK  Name = 25390190
REMARK  10 active torsions:
REMARK  status: ('A' for Active; 'I' for Inactive)
REMARK    1  A    between atoms: O_3  and  C_9
REMARK    2  A    between atoms: O_4  and  C_10
REMARK    3  A    between atoms: N_7  and  C_14
REMARK    4  A    between atoms: N_8  and  C_17
REMARK    5  A    between atoms: C_11  and  C_13
REMARK    6  A    between atoms: C_12  and  C_14
REMARK    7  A    between atoms: C_13  and  C_15
REMARK    8  A    between atoms: C_16  and  C_18
REMARK    9  A    between atoms: C_17  and  C_19
REMARK   10  A    between atoms: C_26  and  C_30
REMARK                            x       y       z     vdW  Elec       q    Type
REMARK                         _______ _______ _______ _____ _____    ______ ____
ROOT
ATOM      2  O   UNL     1      13.488   8.986  18.092  0.00  0.00    -0.366 OA
ATOM      9  C   UNL     1      11.660   9.121  16.610  0.00  0.00    +0.175 C 
ATOM     10  C   UNL     1      12.902   9.551  15.857  0.00  0.00    +0.176 C 
ATOM     11  C   UNL     1      12.259   8.321  17.753  0.00  0.00    +0.158 C 
ATOM     12  C   UNL     1      13.877   9.843  16.993  0.00  0.00    +0.167 C 
ENDROOT
BRANCH   9   3
ATOM      3  O   UNL     1      10.773   8.348  15.829  0.00  0.00    -0.387 OA
ATOM     31  H   UNL     1      11.240   8.106  15.011  0.00  0.00    +0.210 HD
ENDBRANCH   9   3
BRANCH  10   4
ATOM      4  O   UNL     1      13.422   8.463  15.096  0.00  0.00    -0.387 OA
ATOM     32  H   UNL     1      14.372   8.626  14.968  0.00  0.00    +0.210 HD
ENDBRANCH  10   4
BRANCH  11  13
ATOM     13  C   UNL     1      11.361   8.251  18.976  0.00  0.00    +0.130 C 
BRANCH  13  15
ATOM      5  O   UNL     1      11.626   6.335  20.427  0.00  0.00    -0.276 OA
ATOM      8  N   UNL     1      12.993   8.187  20.736  0.00  0.00    -0.311 N 
ATOM     15  C   UNL     1      11.986   7.466  20.114  0.00  0.00    +0.216 C 
ATOM     34  H   UNL     1      13.220   9.114  20.384  0.00  0.00    +0.149 HD
BRANCH   8  17
ATOM     17  C   UNL     1      13.755   7.677  21.854  0.00  0.00    +0.139 C 
BRANCH  17  19
ATOM      1  F   UNL     1      19.298   7.851  20.881  0.00  0.00    -0.205 F 
ATOM     19  C   UNL     1      15.233   7.723  21.594  0.00  0.00    -0.030 A 
ATOM     22  C   UNL     1      15.913   6.564  21.219  0.00  0.00    +0.008 A 
ATOM     23  C   UNL     1      15.927   8.926  21.728  0.00  0.00    +0.008 A 
ATOM     27  C   UNL     1      17.286   6.607  20.979  0.00  0.00    +0.038 A 
ATOM     28  C   UNL     1      17.300   8.968  21.487  0.00  0.00    +0.038 A 
ATOM     29  C   UNL     1      17.980   7.810  21.113  0.00  0.00    +0.123 A 
ENDBRANCH  17  19
ENDBRANCH   8  17
ENDBRANCH  13  15
ENDBRANCH  11  13
BRANCH  12  14
ATOM     14  C   UNL     1      13.810  11.284  17.481  0.00  0.00    +0.138 C 
BRANCH  14   7
ATOM      6  O   UNL     1      15.210  11.897  19.912  0.00  0.00    -0.270 OA
ATOM      7  N   UNL     1      13.248  11.359  18.796  0.00  0.00    -0.309 N 
ATOM     16  C   UNL     1      14.004  11.665  19.924  0.00  0.00    +0.244 C 
ATOM     33  H   UNL     1      12.265  11.123  18.885  0.00  0.00    +0.149 HD
BRANCH  16  18
ATOM     18  C   UNL     1      13.277  11.678  21.220  0.00  0.00    +0.037 A 
ATOM     20  C   UNL     1      13.975  11.879  22.410  0.00  0.00    +0.013 A 
ATOM     21  C   UNL     1      11.895  11.488  21.246  0.00  0.00    +0.013 A 
ATOM     24  C   UNL     1      13.291  11.890  23.627  0.00  0.00    +0.004 A 
ATOM     25  C   UNL     1      11.211  11.498  22.461  0.00  0.00    +0.004 A 
ATOM     26  C   UNL     1      11.910  11.700  23.652  0.00  0.00    -0.050 A 
ATOM     30  C   UNL     1      11.179  11.712  24.953  0.00  0.00    +0.044 C 
ENDBRANCH  16  18
ENDBRANCH  14   7
ENDBRANCH  12  14
TORSDOF 9
ENDMDL
MODEL 3
REMARK VINA RESULT:      -6.8      3.001      5.757
REMARK  Name = 25390190
REMARK  10 active torsions:
REMARK  status: ('A' for Active; 'I' for Inactive)
REMARK    1  A    between atoms: O_3  and  C_9
REMARK    2  A    between atoms: O_4  and  C_10
REMARK    3  A    between atoms: N_7  and  C_14
REMARK    4  A    between atoms: N_8  and  C_17
REMARK    5  A    between atoms: C_11  and  C_13
REMARK    6  A    between atoms: C_12  and  C_14
REMARK    7  A    between atoms: C_13  and  C_15
REMARK    8  A    between atoms: C_16  and  C_18
REMARK    9  A    between atoms: C_17  and  C_19
REMARK   10  A    between atoms: C_26  and  C_30
REMARK                            x       y       z     vdW  Elec       q    Type
REMARK                         _______ _______ _______ _____ _____    ______ ____
ROOT
ATOM      2  O   UNL     1      12.932   7.592  21.934  0.00  0.00    -0.366 OA
ATOM      9  C   UNL     1      12.154   9.607  20.989  0.00  0.00    +0.175 C 
ATOM     10  C   UNL     1      11.116   8.537  20.722  0.00  0.00    +0.176 C 
ATOM     11  C   UNL     1      12.910   9.012  22.164  0.00  0.00    +0.158 C 
ATOM     12  C   UNL     1      11.908   7.257  20.968  0.00  0.00    +0.167 C 
ENDROOT
BRANCH   9   3
ATOM      3  O   UNL     1      11.594  10.865  21.302  0.00  0.00    -0.387 OA
ATOM     31  H   UNL     1      10.646  10.727  21.469  0.00  0.00    +0.210 HD
ENDBRANCH   9   3
BRANCH  10   4
ATOM      4  O   UNL     1      10.073   8.606  21.693  0.00  0.00    -0.387 OA
ATOM     32  H   UNL     1      10.386   8.143  22.490  0.00  0.00    +0.210 HD
ENDBRANCH  10   4
BRANCH  11  13
ATOM     13  C   UNL     1      14.332   9.530  22.292  0.00  0.00    +0.130 C 
BRANCH  13  15
ATOM      5  O   UNL     1      14.598  11.933  22.237  0.00  0.00    -0.276 OA
ATOM      8  N   UNL     1      14.192  10.884  24.270  0.00  0.00    -0.311 N 
ATOM     15  C   UNL     1      14.393  10.920  22.899  0.00  0.00    +0.216 C 
ATOM     34  H   UNL     1      14.016   9.988  24.716  0.00  0.00    +0.149 HD
BRANCH   8  17
ATOM     17  C   UNL     1      14.202  12.068  25.100  0.00  0.00    +0.139 C 
BRANCH  17  19
ATOM      1  F   UNL     1       9.486  15.089  24.515  0.00  0.00    -0.205 F 
ATOM     19  C   UNL     1      12.944  12.873  24.944  0.00  0.00    -0.030 A 
ATOM     22  C   UNL     1      13.014  14.200  24.515  0.00  0.00    +0.008 A 
ATOM     23  C   UNL     1      11.706  12.296  25.227  0.00  0.00    +0.008 A 
ATOM     27  C   UNL     1      11.846  14.947  24.371  0.00  0.00    +0.038 A 
ATOM     28  C   UNL     1      10.539  13.045  25.082  0.00  0.00    +0.038 A 
ATOM     29  C   UNL     1      10.608  14.370  24.654  0.00  0.00    +0.123 A 
ENDBRANCH  17  19
ENDBRANCH   8  17
ENDBRANCH  13  15
ENDBRANCH  11  13
BRANCH  12  14
ATOM     14  C   UNL     1      12.601   6.736  19.717  0.00  0.00    +0.138 C 
BRANCH  14   7
ATOM      6  O   UNL     1      14.849   8.125  18.594  0.00  0.00    -0.270 OA
ATOM      7  N   UNL     1      13.986   6.466  19.968  0.00  0.00    -0.309 N 
ATOM     16  C   UNL     1      15.016   7.193  19.377  0.00  0.00    +0.244 C 
ATOM     33  H   UNL     1      14.194   5.671  20.563  0.00  0.00    +0.149 HD
BRANCH  16  18
ATOM     18  C   UNL     1      16.399   6.772  19.718  0.00  0.00    +0.037 A 
ATOM     20  C   UNL     1      17.043   7.322  20.826  0.00  0.00    +0.013 A 
ATOM     21  C   UNL     1      17.053   5.825  18.930  0.00  0.00    +0.013 A 
ATOM     24  C   UNL     1      18.343   6.926  21.145  0.00  0.00    +0.004 A 
ATOM     25  C   UNL     1      18.352   5.430  19.248  0.00  0.00    +0.004 A 
ATOM     26  C   UNL     1      18.997   5.980  20.356  0.00  0.00    -0.050 A 
ATOM     30  C   UNL     1      20.386   5.557  20.698  0.00  0.00    +0.044 C 
ENDBRANCH  16  18
ENDBRANCH  14   7
ENDBRANCH  12  14
TORSDOF 9
ENDMDL
MODEL 4
REMARK VINA RESULT:      -6.7      3.223      5.908
REMARK  Name = 25390190
REMARK  10 active torsions:
REMARK  status: ('A' for Active; 'I' for Inactive)
REMARK    1  A    between atoms: O_3  and  C_9
REMARK    2  A    between atoms: O_4  and  C_10
REMARK    3  A    between atoms: N_7  and  C_14
REMARK    4  A    between atoms: N_8  and  C_17
REMARK    5  A    between atoms: C_11  and  C_13
REMARK    6  A    between atoms: C_12  and  C_14
REMARK    7  A    between atoms: C_13  and  C_15
REMARK    8  A    between atoms: C_16  and  C_18
REMARK    9  A    between atoms: C_17  and  C_19
REMARK   10  A    between atoms: C_26  and  C_30
REMARK                            x       y       z     vdW  Elec       q    Type
REMARK                         _______ _______ _______ _____ _____    ______ ____
ROOT
ATOM      2  O   UNL     1      13.152   6.934  20.502  0.00  0.00    -0.366 OA
ATOM      9  C   UNL     1      11.769   8.411  19.294  0.00  0.00    +0.175 C 
ATOM     10  C   UNL     1      12.668   7.700  18.303  0.00  0.00    +0.176 C 
ATOM     11  C   UNL     1      11.817   7.465  20.481  0.00  0.00    +0.158 C 
ATOM     12  C   UNL     1      13.764   7.147  19.209  0.00  0.00    +0.167 C 
ENDROOT
BRANCH   9   3
ATOM      3  O   UNL     1      10.453   8.600  18.819  0.00  0.00    -0.387 OA
ATOM     31  H   UNL     1       9.867   8.037  19.354  0.00  0.00    +0.210 HD
ENDBRANCH   9   3
BRANCH  10   4
ATOM      4  O   UNL     1      11.982   6.597  17.715  0.00  0.00    -0.387 OA
ATOM     32  H   UNL     1      11.037   6.826  17.682  0.00  0.00    +0.210 HD
ENDBRANCH  10   4
BRANCH  11  13
ATOM     13  C   UNL     1      11.515   8.144  21.806  0.00  0.00    +0.130 C 
BRANCH  13  15
ATOM      5  O   UNL     1      13.341   9.697  22.129  0.00  0.00    -0.276 OA
ATOM      8  N   UNL     1      11.205  10.524  21.736  0.00  0.00    -0.311 N 
ATOM     15  C   UNL     1      12.145   9.520  21.912  0.00  0.00    +0.216 C 
ATOM     34  H   UNL     1      10.241  10.264  21.547  0.00  0.00    +0.149 HD
BRANCH   8  17
ATOM     17  C   UNL     1      11.534  11.931  21.789  0.00  0.00    +0.139 C 
BRANCH  17  19
ATOM      1  F   UNL     1      10.226  14.212  26.769  0.00  0.00    -0.205 F 
ATOM     19  C   UNL     1      11.185  12.539  23.116  0.00  0.00    -0.030 A 
ATOM     22  C   UNL     1      11.591  11.917  24.298  0.00  0.00    +0.008 A 
ATOM     23  C   UNL     1      10.456  13.727  23.170  0.00  0.00    +0.008 A 
ATOM     27  C   UNL     1      11.267  12.482  25.531  0.00  0.00    +0.038 A 
ATOM     28  C   UNL     1      10.132  14.291  24.404  0.00  0.00    +0.038 A 
ATOM     29  C   UNL     1      10.537  13.669  25.584  0.00  0.00    +0.123 A 
ENDBRANCH  17  19
ENDBRANCH   8  17
ENDBRANCH  13  15
ENDBRANCH  11  13
BRANCH  12  14
ATOM     14  C   UNL     1      14.925   8.113  19.397  0.00  0.00    +0.138 C 
BRANCH  14   7
ATOM      6  O   UNL     1      16.684   8.553  21.623  0.00  0.00    -0.270 OA
ATOM      7  N   UNL     1      16.142   7.411  19.678  0.00  0.00    -0.309 N 
ATOM     16  C   UNL     1      16.937   7.691  20.786  0.00  0.00    +0.244 C 
ATOM     33  H   UNL     1      16.438   6.722  18.994  0.00  0.00    +0.149 HD
BRANCH  16  18
ATOM     18  C   UNL     1      18.182   6.892  20.921  0.00  0.00    +0.037 A 
ATOM     20  C   UNL     1      18.480   5.898  19.988  0.00  0.00    +0.013 A 
ATOM     21  C   UNL     1      19.055   7.135  21.982  0.00  0.00    +0.013 A 
ATOM     24  C   UNL     1      19.649   5.148  20.117  0.00  0.00    +0.004 A 
ATOM     25  C   UNL     1      20.223   6.385  22.111  0.00  0.00    +0.004 A 
ATOM     26  C   UNL     1      20.520   5.391  21.178  0.00  0.00    -0.050 A 
ATOM     30  C   UNL     1      21.771   4.589  21.315  0.00  0.00    +0.044 C 
ENDBRANCH  16  18
ENDBRANCH  14   7
ENDBRANCH  12  14
TORSDOF 9
ENDMDL
MODEL 5
REMARK VINA RESULT:      -6.4     27.621     31.023
REMARK  Name = 25390190
REMARK  10 active torsions:
REMARK  status: ('A' for Active; 'I' for Inactive)
REMARK    1  A    between atoms: O_3  and  C_9
REMARK    2  A    between atoms: O_4  and  C_10
REMARK    3  A    between atoms: N_7  and  C_14
REMARK    4  A    between atoms: N_8  and  C_17
REMARK    5  A    between atoms: C_11  and  C_13
REMARK    6  A    between atoms: C_12  and  C_14
REMARK    7  A    between atoms: C_13  and  C_15
REMARK    8  A    between atoms: C_16  and  C_18
REMARK    9  A    between atoms: C_17  and  C_19
REMARK   10  A    between atoms: C_26  and  C_30
REMARK                            x       y       z     vdW  Elec       q    Type
REMARK                         _______ _______ _______ _____ _____    ______ ____
ROOT
ATOM      2  O   UNL     1     -16.120   2.523  25.508  0.00  0.00    -0.366 OA
ATOM      9  C   UNL     1     -18.222   2.647  24.448  0.00  0.00    +0.175 C 
ATOM     10  C   UNL     1     -17.158   2.923  23.406  0.00  0.00    +0.176 C 
ATOM     11  C   UNL     1     -17.423   1.914  25.512  0.00  0.00    +0.158 C 
ATOM     12  C   UNL     1     -15.944   3.249  24.270  0.00  0.00    +0.167 C 
ENDROOT
BRANCH   9   3
ATOM      3  O   UNL     1     -19.294   1.869  23.960  0.00  0.00    -0.387 OA
ATOM     31  H   UNL     1     -19.897   2.468  23.488  0.00  0.00    +0.210 HD
ENDBRANCH   9   3
BRANCH  10   4
ATOM      4  O   UNL     1     -16.870   1.739  22.666  0.00  0.00    -0.387 OA
ATOM     32  H   UNL     1     -17.274   0.993  23.142  0.00  0.00    +0.210 HD
ENDBRANCH  10   4
BRANCH  11  13
ATOM     13  C   UNL     1     -18.031   2.016  26.899  0.00  0.00    +0.130 C 
BRANCH  13  15
ATOM      5  O   UNL     1     -17.987   0.009  28.247  0.00  0.00    -0.276 OA
ATOM      8  N   UNL     1     -16.158   1.441  28.288  0.00  0.00    -0.311 N 
ATOM     15  C   UNL     1     -17.418   1.032  27.878  0.00  0.00    +0.216 C 
ATOM     34  H   UNL     1     -15.776   2.303  27.907  0.00  0.00    +0.149 HD
BRANCH   8  17
ATOM     17  C   UNL     1     -15.349   0.690  29.222  0.00  0.00    +0.139 C 
BRANCH  17  19
ATOM      1  F   UNL     1     -13.881   3.777  33.696  0.00  0.00    -0.205 F 
ATOM     19  C   UNL     1     -14.958   1.513  30.414  0.00  0.00    -0.030 A 
ATOM     22  C   UNL     1     -14.614   2.856  30.254  0.00  0.00    +0.008 A 
ATOM     23  C   UNL     1     -14.937   0.936  31.684  0.00  0.00    +0.008 A 
ATOM     27  C   UNL     1     -14.250   3.620  31.362  0.00  0.00    +0.038 A 
ATOM     28  C   UNL     1     -14.573   1.701  32.792  0.00  0.00    +0.038 A 
ATOM     29  C   UNL     1     -14.230   3.043  32.632  0.00  0.00    +0.123 A 
ENDBRANCH  17  19
ENDBRANCH   8  17
ENDBRANCH  13  15
ENDBRANCH  11  13
BRANCH  12  14
ATOM     14  C   UNL     1     -15.834   4.729  24.610  0.00  0.00    +0.138 C 
BRANCH  14   7
ATOM      6  O   UNL     1     -16.336   6.666  22.550  0.00  0.00    -0.270 OA
ATOM      7  N   UNL     1     -14.856   5.378  23.788  0.00  0.00    -0.309 N 
ATOM     16  C   UNL     1     -15.189   6.309  22.809  0.00  0.00    +0.244 C 
ATOM     33  H   UNL     1     -13.892   5.086  23.913  0.00  0.00    +0.149 HD
BRANCH  16  18
ATOM     18  C   UNL     1     -14.061   6.871  22.023  0.00  0.00    +0.037 A 
ATOM     20  C   UNL     1     -13.015   6.045  21.613  0.00  0.00    +0.013 A 
ATOM     21  C   UNL     1     -14.047   8.227  21.695  0.00  0.00    +0.013 A 
ATOM     24  C   UNL     1     -11.955   6.573  20.876  0.00  0.00    +0.004 A 
ATOM     25  C   UNL     1     -12.988   8.756  20.959  0.00  0.00    +0.004 A 
ATOM     26  C   UNL     1     -11.942   7.929  20.549  0.00  0.00    -0.050 A 
ATOM     30  C   UNL     1     -10.809   8.495  19.761  0.00  0.00    +0.044 C 
ENDBRANCH  16  18
ENDBRANCH  14   7
ENDBRANCH  12  14
TORSDOF 9
ENDMDL
MODEL 6
REMARK VINA RESULT:      -6.3     27.397     29.516
REMARK  Name = 25390190
REMARK  10 active torsions:
REMARK  status: ('A' for Active; 'I' for Inactive)
REMARK    1  A    between atoms: O_3  and  C_9
REMARK    2  A    between atoms: O_4  and  C_10
REMARK    3  A    between atoms: N_7  and  C_14
REMARK    4  A    between atoms: N_8  and  C_17
REMARK    5  A    between atoms: C_11  and  C_13
REMARK    6  A    between atoms: C_12  and  C_14
REMARK    7  A    between atoms: C_13  and  C_15
REMARK    8  A    between atoms: C_16  and  C_18
REMARK    9  A    between atoms: C_17  and  C_19
REMARK   10  A    between atoms: C_26  and  C_30
REMARK                            x       y       z     vdW  Elec       q    Type
REMARK                         _______ _______ _______ _____ _____    ______ ____
ROOT
ATOM      2  O   UNL     1      -6.690 -10.849  17.094  0.00  0.00    -0.366 OA
ATOM      9  C   UNL     1      -6.718 -12.421  18.850  0.00  0.00    +0.175 C 
ATOM     10  C   UNL     1      -5.904 -11.228  19.307  0.00  0.00    +0.176 C 
ATOM     11  C   UNL     1      -7.545 -11.815  17.730  0.00  0.00    +0.158 C 
ATOM     12  C   UNL     1      -5.597 -10.529  17.986  0.00  0.00    +0.167 C 
ENDROOT
BRANCH   9   3
ATOM      3  O   UNL     1      -7.527 -12.969  19.869  0.00  0.00    -0.387 OA
ATOM     31  H   UNL     1      -8.078 -12.249  20.221  0.00  0.00    +0.210 HD
ENDBRANCH   9   3
BRANCH  10   4
ATOM      4  O   UNL     1      -6.707 -10.352  20.095  0.00  0.00    -0.387 OA
ATOM     32  H   UNL     1      -7.034  -9.650  19.507  0.00  0.00    +0.210 HD
ENDBRANCH  10   4
BRANCH  11  13
ATOM     13  C   UNL     1      -8.014 -12.834  16.707  0.00  0.00    +0.130 C 
BRANCH  13  15
ATOM      5  O   UNL     1      -6.938 -14.984  16.974  0.00  0.00    -0.276 OA
ATOM      8  N   UNL     1      -6.065 -13.461  15.451  0.00  0.00    -0.311 N 
ATOM     15  C   UNL     1      -6.966 -13.891  16.414  0.00  0.00    +0.216 C 
ATOM     34  H   UNL     1      -6.191 -12.539  15.042  0.00  0.00    +0.149 HD
BRANCH   8  17
ATOM     17  C   UNL     1      -4.962 -14.270  14.984  0.00  0.00    +0.139 C 
BRANCH  17  19
ATOM      1  F   UNL     1      -3.771 -13.285   9.570  0.00  0.00    -0.205 F 
ATOM     19  C   UNL     1      -4.644 -14.008  13.541  0.00  0.00    -0.030 A 
ATOM     22  C   UNL     1      -5.660 -13.637  12.659  0.00  0.00    +0.008 A 
ATOM     23  C   UNL     1      -3.334 -14.133  13.081  0.00  0.00    +0.008 A 
ATOM     27  C   UNL     1      -5.365 -13.394  11.318  0.00  0.00    +0.038 A 
ATOM     28  C   UNL     1      -3.039 -13.889  11.739  0.00  0.00    +0.038 A 
ATOM     29  C   UNL     1      -4.054 -13.520  10.858  0.00  0.00    +0.123 A 
ENDBRANCH  17  19
ENDBRANCH   8  17
ENDBRANCH  13  15
ENDBRANCH  11  13
BRANCH  12  14
ATOM     14  C   UNL     1      -4.309 -11.017  17.338  0.00  0.00    +0.138 C 
BRANCH  14   7
ATOM      6  O   UNL     1      -2.116 -11.421  15.529  0.00  0.00    -0.270 OA
ATOM      7  N   UNL     1      -4.292 -10.725  15.935  0.00  0.00    -0.309 N 
ATOM     16  C   UNL     1      -3.180 -10.954  15.130  0.00  0.00    +0.244 C 
ATOM     33  H   UNL     1      -5.122 -10.284  15.553  0.00  0.00    +0.149 HD
BRANCH  16  18
ATOM     18  C   UNL     1      -3.313 -10.572  13.701  0.00  0.00    +0.037 A 
ATOM     20  C   UNL     1      -2.187 -10.537  12.879  0.00  0.00    +0.013 A 
ATOM     21  C   UNL     1      -4.566 -10.249  13.179  0.00  0.00    +0.013 A 
ATOM     24  C   UNL     1      -2.313 -10.178  11.537  0.00  0.00    +0.004 A 
ATOM     25  C   UNL     1      -4.693  -9.889  11.838  0.00  0.00    +0.004 A 
ATOM     26  C   UNL     1      -3.565  -9.854  11.017  0.00  0.00    -0.050 A 
ATOM     30  C   UNL     1      -3.700  -9.471   9.581  0.00  0.00    +0.044 C 
ENDBRANCH  16  18
ENDBRANCH  14   7
ENDBRANCH  12  14
TORSDOF 9
ENDMDL
MODEL 7
REMARK VINA RESULT:      -6.3     27.419     30.702
REMARK  Name = 25390190
REMARK  10 active torsions:
REMARK  status: ('A' for Active; 'I' for Inactive)
REMARK    1  A    between atoms: O_3  and  C_9
REMARK    2  A    between atoms: O_4  and  C_10
REMARK    3  A    between atoms: N_7  and  C_14
REMARK    4  A    between atoms: N_8  and  C_17
REMARK    5  A    between atoms: C_11  and  C_13
REMARK    6  A    between atoms: C_12  and  C_14
REMARK    7  A    between atoms: C_13  and  C_15
REMARK    8  A    between atoms: C_16  and  C_18
REMARK    9  A    between atoms: C_17  and  C_19
REMARK   10  A    between atoms: C_26  and  C_30
REMARK                            x       y       z     vdW  Elec       q    Type
REMARK                         _______ _______ _______ _____ _____    ______ ____
ROOT
ATOM      2  O   UNL     1     -16.757   2.837  27.005  0.00  0.00    -0.366 OA
ATOM      9  C   UNL     1     -16.812   1.211  25.300  0.00  0.00    +0.175 C 
ATOM     10  C   UNL     1     -17.698   0.730  26.430  0.00  0.00    +0.176 C 
ATOM     11  C   UNL     1     -16.752   2.704  25.573  0.00  0.00    +0.158 C 
ATOM     12  C   UNL     1     -17.236   1.604  27.591  0.00  0.00    +0.167 C 
ENDROOT
BRANCH   9   3
ATOM      3  O   UNL     1     -17.334   0.927  24.019  0.00  0.00    -0.387 OA
ATOM     31  H   UNL     1     -17.749   0.048  24.063  0.00  0.00    +0.210 HD
ENDBRANCH   9   3
BRANCH  10   4
ATOM      4  O   UNL     1     -19.063   1.043  26.156  0.00  0.00    -0.387 OA
ATOM     32  H   UNL     1     -19.607   0.567  26.806  0.00  0.00    +0.210 HD
ENDBRANCH  10   4
BRANCH  11  13
ATOM     13  C   UNL     1     -15.514   3.373  25.002  0.00  0.00    +0.130 C 
BRANCH  13  15
ATOM      5  O   UNL     1     -16.270   3.618  22.718  0.00  0.00    -0.276 OA
ATOM      8  N   UNL     1     -15.474   5.482  23.854  0.00  0.00    -0.311 N 
ATOM     15  C   UNL     1     -15.804   4.141  23.726  0.00  0.00    +0.216 C 
ATOM     34  H   UNL     1     -15.106   5.812  24.743  0.00  0.00    +0.149 HD
BRANCH   8  17
ATOM     17  C   UNL     1     -15.646   6.443  22.788  0.00  0.00    +0.139 C 
BRANCH  17  19
ATOM      1  F   UNL     1     -10.761   7.727  20.301  0.00  0.00    -0.205 F 
ATOM     19  C   UNL     1     -14.344   6.785  22.125  0.00  0.00    -0.030 A 
ATOM     22  C   UNL     1     -13.417   5.780  21.847  0.00  0.00    +0.008 A 
ATOM     23  C   UNL     1     -14.060   8.108  21.785  0.00  0.00    +0.008 A 
ATOM     27  C   UNL     1     -12.207   6.099  21.231  0.00  0.00    +0.038 A 
ATOM     28  C   UNL     1     -12.850   8.426  21.169  0.00  0.00    +0.038 A 
ATOM     29  C   UNL     1     -11.923   7.422  20.892  0.00  0.00    +0.123 A 
ENDBRANCH  17  19
ENDBRANCH   8  17
ENDBRANCH  13  15
ENDBRANCH  11  13
BRANCH  12  14
ATOM     14  C   UNL     1     -16.089   0.988  28.381  0.00  0.00    +0.138 C 
BRANCH  14   7
ATOM      6  O   UNL     1     -13.666   0.990  29.921  0.00  0.00    -0.270 OA
ATOM      7  N   UNL     1     -15.845   1.716  29.591  0.00  0.00    -0.309 N 
ATOM     16  C   UNL     1     -14.634   1.658  30.275  0.00  0.00    +0.244 C 
ATOM     33  H   UNL     1     -16.625   2.244  29.969  0.00  0.00    +0.149 HD
BRANCH  16  18
ATOM     18  C   UNL     1     -14.549   2.449  31.529  0.00  0.00    +0.037 A 
ATOM     20  C   UNL     1     -14.233   3.806  31.479  0.00  0.00    +0.013 A 
ATOM     21  C   UNL     1     -14.787   1.834  32.759  0.00  0.00    +0.013 A 
ATOM     24  C   UNL     1     -14.152   4.549  32.658  0.00  0.00    +0.004 A 
ATOM     25  C   UNL     1     -14.705   2.575  33.938  0.00  0.00    +0.004 A 
ATOM     26  C   UNL     1     -14.388   3.933  33.887  0.00  0.00    -0.050 A 
ATOM     30  C   UNL     1     -14.303   4.727  35.147  0.00  0.00    +0.044 C 
ENDBRANCH  16  18
ENDBRANCH  14   7
ENDBRANCH  12  14
TORSDOF 9
ENDMDL
MODEL 8
REMARK VINA RESULT:      -6.3     28.322     30.960
REMARK  Name = 25390190
REMARK  10 active torsions:
REMARK  status: ('A' for Active; 'I' for Inactive)
REMARK    1  A    between atoms: O_3  and  C_9
REMARK    2  A    between atoms: O_4  and  C_10
REMARK    3  A    between atoms: N_7  and  C_14
REMARK    4  A    between atoms: N_8  and  C_17
REMARK    5  A    between atoms: C_11  and  C_13
REMARK    6  A    between atoms: C_12  and  C_14
REMARK    7  A    between atoms: C_13  and  C_15
REMARK    8  A    between atoms: C_16  and  C_18
REMARK    9  A    between atoms: C_17  and  C_19
REMARK   10  A    between atoms: C_26  and  C_30
REMARK                            x       y       z     vdW  Elec       q    Type
REMARK                         _______ _______ _______ _____ _____    ______ ____
ROOT
ATOM      2  O   UNL     1      -6.478 -11.673  17.150  0.00  0.00    -0.366 OA
ATOM      9  C   UNL     1      -4.300 -11.325  17.980  0.00  0.00    +0.175 C 
ATOM     10  C   UNL     1      -4.923 -12.457  18.770  0.00  0.00    +0.176 C 
ATOM     11  C   UNL     1      -5.150 -11.327  16.722  0.00  0.00    +0.158 C 
ATOM     12  C   UNL     1      -6.407 -12.281  18.461  0.00  0.00    +0.167 C 
ENDROOT
BRANCH   9   3
ATOM      3  O   UNL     1      -2.932 -11.527  17.697  0.00  0.00    -0.387 OA
ATOM     31  H   UNL     1      -2.538 -10.654  17.529  0.00  0.00    +0.210 HD
ENDBRANCH   9   3
BRANCH  10   4
ATOM      4  O   UNL     1      -4.507 -13.716  18.244  0.00  0.00    -0.387 OA
ATOM     32  H   UNL     1      -5.283 -14.302  18.246  0.00  0.00    +0.210 HD
ENDBRANCH  10   4
BRANCH  11  13
ATOM     13  C   UNL     1      -5.176  -9.987  16.009  0.00  0.00    +0.130 C 
BRANCH  13  15
ATOM      5  O   UNL     1      -5.338 -10.396  13.631  0.00  0.00    -0.276 OA
ATOM      8  N   UNL     1      -7.219  -9.674  14.787  0.00  0.00    -0.311 N 
ATOM     15  C   UNL     1      -5.890 -10.051  14.672  0.00  0.00    +0.216 C 
ATOM     34  H   UNL     1      -7.578  -9.420  15.704  0.00  0.00    +0.149 HD
BRANCH   8  17
ATOM     17  C   UNL     1      -8.131  -9.642  13.665  0.00  0.00    +0.139 C 
BRANCH  17  19
ATOM      1  F   UNL     1     -13.219 -11.630  15.031  0.00  0.00    -0.205 F 
ATOM     19  C   UNL     1      -9.487 -10.172  14.030  0.00  0.00    -0.030 A 
ATOM     22  C   UNL     1      -9.601 -11.281  14.870  0.00  0.00    +0.008 A 
ATOM     23  C   UNL     1     -10.635  -9.556  13.529  0.00  0.00    +0.008 A 
ATOM     27  C   UNL     1     -10.862 -11.773  15.207  0.00  0.00    +0.038 A 
ATOM     28  C   UNL     1     -11.895 -10.049  13.868  0.00  0.00    +0.038 A 
ATOM     29  C   UNL     1     -12.009 -11.157  14.706  0.00  0.00    +0.123 A 
ENDBRANCH  17  19
ENDBRANCH   8  17
ENDBRANCH  13  15
ENDBRANCH  11  13
BRANCH  12  14
ATOM     14  C   UNL     1      -7.115 -11.358  19.442  0.00  0.00    +0.138 C 
BRANCH  14   7
ATOM      6  O   UNL     1      -9.983 -11.276  19.543  0.00  0.00    -0.270 OA
ATOM      7  N   UNL     1      -7.969 -10.433  18.758  0.00  0.00    -0.309 N 
ATOM     16  C   UNL     1      -9.357 -10.466  18.865  0.00  0.00    +0.244 C 
ATOM     33  H   UNL     1      -7.517  -9.772  18.136  0.00  0.00    +0.149 HD
BRANCH  16  18
ATOM     18  C   UNL     1     -10.102  -9.456  18.071  0.00  0.00    +0.037 A 
ATOM     20  C   UNL     1     -11.495  -9.499  18.016  0.00  0.00    +0.013 A 
ATOM     21  C   UNL     1      -9.408  -8.462  17.380  0.00  0.00    +0.013 A 
ATOM     24  C   UNL     1     -12.194  -8.550  17.270  0.00  0.00    +0.004 A 
ATOM     25  C   UNL     1     -10.106  -7.514  16.633  0.00  0.00    +0.004 A 
ATOM     26  C   UNL     1     -11.500  -7.557  16.578  0.00  0.00    -0.050 A 
ATOM     30  C   UNL     1     -12.247  -6.542  15.781  0.00  0.00    +0.044 C 
ENDBRANCH  16  18
ENDBRANCH  14   7
ENDBRANCH  12  14
TORSDOF 9
ENDMDL
MODEL 9
REMARK VINA RESULT:      -6.3      2.978      6.697
REMARK  Name = 25390190
REMARK  10 active torsions:
REMARK  status: ('A' for Active; 'I' for Inactive)
REMARK    1  A    between atoms: O_3  and  C_9
REMARK    2  A    between atoms: O_4  and  C_10
REMARK    3  A    between atoms: N_7  and  C_14
REMARK    4  A    between atoms: N_8  and  C_17
REMARK    5  A    between atoms: C_11  and  C_13
REMARK    6  A    between atoms: C_12  and  C_14
REMARK    7  A    between atoms: C_13  and  C_15
REMARK    8  A    between atoms: C_16  and  C_18
REMARK    9  A    between atoms: C_17  and  C_19
REMARK   10  A    between atoms: C_26  and  C_30
REMARK                            x       y       z     vdW  Elec       q    Type
REMARK                         _______ _______ _______ _____ _____    ______ ____
ROOT
ATOM      2  O   UNL     1      14.831   7.474  18.444  0.00  0.00    -0.366 OA
ATOM      9  C   UNL     1      12.811   7.535  19.658  0.00  0.00    +0.175 C 
ATOM     10  C   UNL     1      12.524   8.021  18.252  0.00  0.00    +0.176 C 
ATOM     11  C   UNL     1      14.100   6.758  19.454  0.00  0.00    +0.158 C 
ATOM     12  C   UNL     1      13.922   8.350  17.738  0.00  0.00    +0.167 C 
ENDROOT
BRANCH   9   3
ATOM      3  O   UNL     1      11.783   6.727  20.191  0.00  0.00    -0.387 OA
ATOM     31  H   UNL     1      12.206   5.952  20.600  0.00  0.00    +0.210 HD
ENDBRANCH   9   3
BRANCH  10   4
ATOM      4  O   UNL     1      11.999   6.959  17.458  0.00  0.00    -0.387 OA
ATOM     32  H   UNL     1      11.938   6.173  18.028  0.00  0.00    +0.210 HD
ENDBRANCH  10   4
BRANCH  11  13
ATOM     13  C   UNL     1      14.942   6.645  20.712  0.00  0.00    +0.130 C 
BRANCH  13  15
ATOM      5  O   UNL     1      17.190   7.472  20.379  0.00  0.00    -0.276 OA
ATOM      8  N   UNL     1      15.593   8.877  21.313  0.00  0.00    -0.311 N 
ATOM     15  C   UNL     1      16.046   7.685  20.770  0.00  0.00    +0.216 C 
ATOM     34  H   UNL     1      14.618   8.949  21.591  0.00  0.00    +0.149 HD
BRANCH   8  17
ATOM     17  C   UNL     1      16.438  10.038  21.486  0.00  0.00    +0.139 C 
BRANCH  17  19
ATOM      1  F   UNL     1      13.804  14.166  24.264  0.00  0.00    -0.205 F 
ATOM     19  C   UNL     1      15.736  11.138  22.226  0.00  0.00    -0.030 A 
ATOM     22  C   UNL     1      14.952  10.840  23.342  0.00  0.00    +0.008 A 
ATOM     23  C   UNL     1      15.867  12.460  21.801  0.00  0.00    +0.008 A 
ATOM     27  C   UNL     1      14.300  11.862  24.029  0.00  0.00    +0.038 A 
ATOM     28  C   UNL     1      15.214  13.482  22.489  0.00  0.00    +0.038 A 
ATOM     29  C   UNL     1      14.431  13.184  23.603  0.00  0.00    +0.123 A 
ENDBRANCH  17  19
ENDBRANCH   8  17
ENDBRANCH  13  15
ENDBRANCH  11  13
BRANCH  12  14
ATOM     14  C   UNL     1      14.341   9.785  18.027  0.00  0.00    +0.138 C 
BRANCH  14   7
ATOM      6  O   UNL     1      13.588  12.540  18.320  0.00  0.00    -0.270 OA
ATOM      7  N   UNL     1      13.557  10.350  19.085  0.00  0.00    -0.309 N 
ATOM     16  C   UNL     1      13.237  11.704  19.148  0.00  0.00    +0.244 C 
ATOM     33  H   UNL     1      13.282   9.722  19.833  0.00  0.00    +0.149 HD
BRANCH  16  18
ATOM     18  C   UNL     1      12.439  12.137  20.324  0.00  0.00    +0.037 A 
ATOM     20  C   UNL     1      12.184  13.492  20.534  0.00  0.00    +0.013 A 
ATOM     21  C   UNL     1      11.943  11.188  21.218  0.00  0.00    +0.013 A 
ATOM     24  C   UNL     1      11.435  13.899  21.638  0.00  0.00    +0.004 A 
ATOM     25  C   UNL     1      11.195  11.594  22.323  0.00  0.00    +0.004 A 
ATOM     26  C   UNL     1      10.940  12.949  22.533  0.00  0.00    -0.050 A 
ATOM     30  C   UNL     1      10.139  13.384  23.713  0.00  0.00    +0.044 C 
ENDBRANCH  16  18
ENDBRANCH  14   7
ENDBRANCH  12  14
TORSDOF 9
ENDMDL
MODEL 10
REMARK VINA RESULT:      -6.3     28.141     30.961
REMARK  Name = 25390190
REMARK  10 active torsions:
REMARK  status: ('A' for Active; 'I' for Inactive)
REMARK    1  A    between atoms: O_3  and  C_9
REMARK    2  A    between atoms: O_4  and  C_10
REMARK    3  A    between atoms: N_7  and  C_14
REMARK    4  A    between atoms: N_8  and  C_17
REMARK    5  A    between atoms: C_11  and  C_13
REMARK    6  A    between atoms: C_12  and  C_14
REMARK    7  A    between atoms: C_13  and  C_15
REMARK    8  A    between atoms: C_16  and  C_18
REMARK    9  A    between atoms: C_17  and  C_19
REMARK   10  A    between atoms: C_26  and  C_30
REMARK                            x       y       z     vdW  Elec       q    Type
REMARK                         _______ _______ _______ _____ _____    ______ ____
ROOT
ATOM      2  O   UNL     1      -6.438 -11.600  17.267  0.00  0.00    -0.366 OA
ATOM      9  C   UNL     1      -4.196 -11.245  17.901  0.00  0.00    +0.175 C 
ATOM     10  C   UNL     1      -4.754 -12.354  18.768  0.00  0.00    +0.176 C 
ATOM     11  C   UNL     1      -5.150 -11.272  16.719  0.00  0.00    +0.158 C 
ATOM     12  C   UNL     1      -6.258 -12.177  18.581  0.00  0.00    +0.167 C 
ENDROOT
BRANCH   9   3
ATOM      3  O   UNL     1      -2.858 -11.462  17.507  0.00  0.00    -0.387 OA
ATOM     31  H   UNL     1      -2.651 -10.816  16.810  0.00  0.00    +0.210 HD
ENDBRANCH   9   3
BRANCH  10   4
ATOM      4  O   UNL     1      -4.389 -13.627  18.239  0.00  0.00    -0.387 OA
ATOM     32  H   UNL     1      -5.075 -14.262  18.510  0.00  0.00    +0.210 HD
ENDBRANCH  10   4
BRANCH  11  13
ATOM     13  C   UNL     1      -5.231  -9.949  15.978  0.00  0.00    +0.130 C 
BRANCH  13  15
ATOM      5  O   UNL     1      -5.995 -10.113  13.690  0.00  0.00    -0.276 OA
ATOM      8  N   UNL     1      -7.551  -9.780  15.383  0.00  0.00    -0.311 N 
ATOM     15  C   UNL     1      -6.273  -9.962  14.876  0.00  0.00    +0.216 C 
ATOM     34  H   UNL     1      -7.669  -9.678  16.388  0.00  0.00    +0.149 HD
BRANCH   8  17
ATOM     17  C   UNL     1      -8.733  -9.747  14.551  0.00  0.00    +0.139 C 
BRANCH  17  19
ATOM      1  F   UNL     1     -12.577  -6.120  16.492  0.00  0.00    -0.205 F 
ATOM     19  C   UNL     1      -9.758  -8.781  15.069  0.00  0.00    -0.030 A 
ATOM     22  C   UNL     1     -10.917  -8.532  14.333  0.00  0.00    +0.008 A 
ATOM     23  C   UNL     1      -9.552  -8.130  16.285  0.00  0.00    +0.008 A 
ATOM     27  C   UNL     1     -11.869  -7.633  14.813  0.00  0.00    +0.038 A 
ATOM     28  C   UNL     1     -10.505  -7.231  16.766  0.00  0.00    +0.038 A 
ATOM     29  C   UNL     1     -11.663  -6.982  16.030  0.00  0.00    +0.123 A 
ENDBRANCH  17  19
ENDBRANCH   8  17
ENDBRANCH  13  15
ENDBRANCH  11  13
BRANCH  12  14
ATOM     14  C   UNL     1      -6.877 -11.227  19.596  0.00  0.00    +0.138 C 
BRANCH  14   7
ATOM      6  O   UNL     1      -9.385 -12.523  20.114  0.00  0.00    -0.270 OA
ATOM      7  N   UNL     1      -8.172 -10.786  19.170  0.00  0.00    -0.309 N 
ATOM     16  C   UNL     1      -9.341 -11.480  19.467  0.00  0.00    +0.244 C 
ATOM     33  H   UNL     1      -8.200  -9.958  18.583  0.00  0.00    +0.149 HD
BRANCH  16  18
ATOM     18  C   UNL     1     -10.601 -10.907  18.929  0.00  0.00    +0.037 A 
ATOM     20  C   UNL     1     -11.368 -10.046  19.714  0.00  0.00    +0.013 A 
ATOM     21  C   UNL     1     -11.018 -11.229  17.637  0.00  0.00    +0.013 A 
ATOM     24  C   UNL     1     -12.553  -9.508  19.208  0.00  0.00    +0.004 A 
ATOM     25  C   UNL     1     -12.202 -10.693  17.131  0.00  0.00    +0.004 A 
ATOM     26  C   UNL     1     -12.969  -9.832  17.917  0.00  0.00    -0.050 A 
ATOM     30  C   UNL     1     -14.234  -9.257  17.376  0.00  0.00    +0.044 C 
ENDBRANCH  16  18
ENDBRANCH  14   7
ENDBRANCH  12  14
TORSDOF 9
ENDMDL
