MODEL 1
REMARK VINA RESULT:      -8.0      0.000      0.000
REMARK  Name = 40777108
REMARK  9 active torsions:
REMARK  status: ('A' for Active; 'I' for Inactive)
REMARK    1  A    between atoms: N_4  and  C_15
REMARK    2  A    between atoms: N_7  and  C_32
REMARK    3  A    between atoms: N_7  and  C_34
REMARK    4  A    between atoms: N_7  and  C_35
REMARK    5  A    between atoms: C_9  and  C_16
REMARK    6  A    between atoms: C_10  and  C_15
REMARK    7  A    between atoms: C_18  and  C_21
REMARK    8  A    between atoms: C_19  and  C_23
REMARK    9  A    between atoms: C_20  and  C_22
REMARK                            x       y       z     vdW  Elec       q    Type
REMARK                         _______ _______ _______ _____ _____    ______ ____
ROOT
ATOM      3  N   UNL     1      12.703   7.075  19.412  0.00  0.00    -0.297 NA
ATOM      8  C   UNL     1      12.304   8.154  21.749  0.00  0.00    +0.002 C 
ATOM      9  C   UNL     1      11.701   9.046  20.628  0.00  0.00    +0.055 C 
ATOM     10  C   UNL     1      13.977   7.118  20.177  0.00  0.00    +0.074 C 
ATOM     11  C   UNL     1      13.806   7.937  21.475  0.00  0.00    +0.024 C 
ATOM     12  C   UNL     1      11.618   6.775  21.638  0.00  0.00    +0.019 C 
ATOM     13  C   UNL     1      12.152   8.447  19.266  0.00  0.00    +0.094 C 
ATOM     14  C   UNL     1      11.733   6.268  20.190  0.00  0.00    +0.085 C 
ENDROOT
BRANCH   9  16
ATOM      5  N   UNL     1      12.669  11.098  19.715  0.00  0.00    -0.237 NA
ATOM      6  N   UNL     1      12.384  13.238  20.784  0.00  0.00    -0.232 NA
ATOM     16  C   UNL     1      11.932  10.549  20.703  0.00  0.00    +0.050 A 
ATOM     17  C   UNL     1      11.396  11.268  21.752  0.00  0.00    +0.052 A 
ATOM     18  C   UNL     1      11.657  12.623  21.740  0.00  0.00    +0.076 A 
ATOM     19  C   UNL     1      12.853  12.428  19.817  0.00  0.00    +0.127 A 
ATOM     23  C   UNL     1      13.663  13.072  18.743  0.00  0.00    +0.088 C 
BRANCH  18  21
ATOM      1 BR   UNL     1      13.353  12.612  24.451  0.00  0.00    -0.050 Br
ATOM     21  C   UNL     1      11.154  13.488  22.781  0.00  0.00    +0.014 A 
ATOM     24  C   UNL     1      11.784  13.594  24.022  0.00  0.00    +0.027 A 
ATOM     25  C   UNL     1      10.004  14.230  22.517  0.00  0.00    +0.011 A 
ATOM     28  C   UNL     1      11.262  14.443  24.998  0.00  0.00    +0.016 A 
ATOM     29  C   UNL     1       9.483  15.079  23.492  0.00  0.00    +0.001 A 
ATOM     33  C   UNL     1      10.111  15.186  24.733  0.00  0.00    +0.001 A 
ENDBRANCH  18  21
ENDBRANCH   9  16
BRANCH  10  15
ATOM     15  C   UNL     1      15.147   7.627  19.331  0.00  0.00    +0.123 C 
BRANCH  15   4
ATOM      2  O   UNL     1      16.907   5.482  18.592  0.00  0.00    -0.270 OA
ATOM      4  N   UNL     1      16.398   7.299  19.943  0.00  0.00    -0.310 N 
ATOM     20  C   UNL     1      17.193   6.236  19.519  0.00  0.00    +0.244 C 
ATOM     36  H   UNL     1      16.665   7.845  20.755  0.00  0.00    +0.149 HD
BRANCH  20  22
ATOM     22  C   UNL     1      18.452   6.012  20.275  0.00  0.00    +0.037 A 
ATOM     26  C   UNL     1      18.720   6.761  21.421  0.00  0.00    +0.015 A 
ATOM     27  C   UNL     1      19.364   5.051  19.841  0.00  0.00    +0.015 A 
ATOM     30  C   UNL     1      19.902   6.550  22.132  0.00  0.00    +0.024 A 
ATOM     31  C   UNL     1      20.546   4.840  20.551  0.00  0.00    +0.024 A 
ATOM     32  C   UNL     1      20.814   5.589  21.697  0.00  0.00    +0.029 A 
BRANCH  32   7
ATOM      7  N   UNL     1      22.009   5.375  22.415  0.00  0.00    -0.336 N 
ATOM     34  C   UNL     1      22.781   6.500  22.907  0.00  0.00    +0.129 C 
ATOM     35  C   UNL     1      22.477   4.029  22.678  0.00  0.00    +0.129 C 
ENDBRANCH  32   7
ENDBRANCH  20  22
ENDBRANCH  15   4
ENDBRANCH  10  15
TORSDOF 6
ENDMDL
MODEL 2
REMARK VINA RESULT:      -7.7     26.730     30.847
REMARK  Name = 40777108
REMARK  9 active torsions:
REMARK  status: ('A' for Active; 'I' for Inactive)
REMARK    1  A    between atoms: N_4  and  C_15
REMARK    2  A    between atoms: N_7  and  C_32
REMARK    3  A    between atoms: N_7  and  C_34
REMARK    4  A    between atoms: N_7  and  C_35
REMARK    5  A    between atoms: C_9  and  C_16
REMARK    6  A    between atoms: C_10  and  C_15
REMARK    7  A    between atoms: C_18  and  C_21
REMARK    8  A    between atoms: C_19  and  C_23
REMARK    9  A    between atoms: C_20  and  C_22
REMARK                            x       y       z     vdW  Elec       q    Type
REMARK                         _______ _______ _______ _____ _____    ______ ____
ROOT
ATOM      3  N   UNL     1      -4.846 -11.530   9.822  0.00  0.00    -0.297 NA
ATOM      8  C   UNL     1      -4.341  -9.272  11.017  0.00  0.00    +0.002 C 
ATOM      9  C   UNL     1      -3.515 -10.422  11.657  0.00  0.00    +0.055 C 
ATOM     10  C   UNL     1      -6.118 -10.856  10.194  0.00  0.00    +0.074 C 
ATOM     11  C   UNL     1      -5.842  -9.624  11.083  0.00  0.00    +0.024 C 
ATOM     12  C   UNL     1      -3.951  -9.221   9.524  0.00  0.00    +0.019 C 
ATOM     13  C   UNL     1      -4.017 -11.755  11.033  0.00  0.00    +0.094 C 
ATOM     14  C   UNL     1      -4.101 -10.625   8.914  0.00  0.00    +0.085 C 
ENDROOT
BRANCH   9  16
ATOM      5  N   UNL     1      -2.203 -10.401  13.722  0.00  0.00    -0.237 NA
ATOM      6  N   UNL     1      -3.225 -10.610  15.893  0.00  0.00    -0.232 NA
ATOM     16  C   UNL     1      -3.434 -10.490  13.176  0.00  0.00    +0.050 A 
ATOM     17  C   UNL     1      -4.592 -10.640  13.912  0.00  0.00    +0.052 A 
ATOM     18  C   UNL     1      -4.424 -10.694  15.281  0.00  0.00    +0.076 A 
ATOM     19  C   UNL     1      -2.173 -10.467  15.066  0.00  0.00    +0.127 A 
ATOM     23  C   UNL     1      -0.829 -10.372  15.707  0.00  0.00    +0.088 C 
BRANCH  18  21
ATOM      1 BR   UNL     1      -5.234 -13.719  15.931  0.00  0.00    -0.050 Br
ATOM     21  C   UNL     1      -5.555 -10.849  16.164  0.00  0.00    +0.014 A 
ATOM     24  C   UNL     1      -6.030 -12.106  16.543  0.00  0.00    +0.027 A 
ATOM     25  C   UNL     1      -6.177  -9.696  16.642  0.00  0.00    +0.011 A 
ATOM     28  C   UNL     1      -7.127 -12.207  17.399  0.00  0.00    +0.016 A 
ATOM     29  C   UNL     1      -7.272  -9.798  17.498  0.00  0.00    +0.001 A 
ATOM     33  C   UNL     1      -7.748 -11.053  17.877  0.00  0.00    +0.001 A 
ENDBRANCH  18  21
ENDBRANCH   9  16
BRANCH  10  15
ATOM     15  C   UNL     1      -7.117 -11.816  10.845  0.00  0.00    +0.123 C 
BRANCH  15   4
ATOM      2  O   UNL     1      -7.715 -12.803  13.474  0.00  0.00    -0.270 OA
ATOM      4  N   UNL     1      -7.880 -11.149  11.855  0.00  0.00    -0.310 N 
ATOM     20  C   UNL     1      -8.123 -11.703  13.110  0.00  0.00    +0.244 C 
ATOM     36  H   UNL     1      -8.299 -10.262  11.597  0.00  0.00    +0.149 HD
BRANCH  20  22
ATOM     22  C   UNL     1      -8.956 -10.893  14.037  0.00  0.00    +0.037 A 
ATOM     26  C   UNL     1      -9.849 -11.524  14.903  0.00  0.00    +0.015 A 
ATOM     27  C   UNL     1      -8.842  -9.504  14.042  0.00  0.00    +0.015 A 
ATOM     30  C   UNL     1     -10.629 -10.764  15.775  0.00  0.00    +0.024 A 
ATOM     31  C   UNL     1      -9.623  -8.744  14.913  0.00  0.00    +0.024 A 
ATOM     32  C   UNL     1     -10.517  -9.374  15.779  0.00  0.00    +0.029 A 
BRANCH  32   7
ATOM      7  N   UNL     1     -11.306  -8.605  16.659  0.00  0.00    -0.336 N 
ATOM     34  C   UNL     1     -12.460  -9.191  17.312  0.00  0.00    +0.129 C 
ATOM     35  C   UNL     1     -10.969  -7.222  16.930  0.00  0.00    +0.129 C 
ENDBRANCH  32   7
ENDBRANCH  20  22
ENDBRANCH  15   4
ENDBRANCH  10  15
TORSDOF 6
ENDMDL
MODEL 3
REMARK VINA RESULT:      -7.7      2.923      6.288
REMARK  Name = 40777108
REMARK  9 active torsions:
REMARK  status: ('A' for Active; 'I' for Inactive)
REMARK    1  A    between atoms: N_4  and  C_15
REMARK    2  A    between atoms: N_7  and  C_32
REMARK    3  A    between atoms: N_7  and  C_34
REMARK    4  A    between atoms: N_7  and  C_35
REMARK    5  A    between atoms: C_9  and  C_16
REMARK    6  A    between atoms: C_10  and  C_15
REMARK    7  A    between atoms: C_18  and  C_21
REMARK    8  A    between atoms: C_19  and  C_23
REMARK    9  A    between atoms: C_20  and  C_22
REMARK                            x       y       z     vdW  Elec       q    Type
REMARK                         _______ _______ _______ _____ _____    ______ ____
ROOT
ATOM      3  N   UNL     1      10.670  12.339  22.727  0.00  0.00    -0.297 NA
ATOM      8  C   UNL     1      13.163  13.000  23.088  0.00  0.00    +0.002 C 
ATOM      9  C   UNL     1      12.812  13.007  21.574  0.00  0.00    +0.055 C 
ATOM     10  C   UNL     1      11.335  11.351  23.617  0.00  0.00    +0.074 C 
ATOM     11  C   UNL     1      12.856  11.607  23.676  0.00  0.00    +0.024 C 
ATOM     12  C   UNL     1      12.207  14.003  23.771  0.00  0.00    +0.019 C 
ATOM     13  C   UNL     1      11.383  12.412  21.427  0.00  0.00    +0.094 C 
ATOM     14  C   UNL     1      10.758  13.668  23.378  0.00  0.00    +0.085 C 
ENDROOT
BRANCH   9  16
ATOM      5  N   UNL     1      13.327  12.040  19.387  0.00  0.00    -0.237 NA
ATOM      6  N   UNL     1      15.530  11.243  18.822  0.00  0.00    -0.232 NA
ATOM     16  C   UNL     1      13.802  12.378  20.604  0.00  0.00    +0.050 A 
ATOM     17  C   UNL     1      15.110  12.183  20.999  0.00  0.00    +0.052 A 
ATOM     18  C   UNL     1      15.937  11.605  20.057  0.00  0.00    +0.076 A 
ATOM     19  C   UNL     1      14.232  11.485  18.559  0.00  0.00    +0.127 A 
ATOM     23  C   UNL     1      13.744  11.097  17.204  0.00  0.00    +0.088 C 
BRANCH  18  21
ATOM      1 BR   UNL     1      17.975  13.864  19.068  0.00  0.00    -0.050 Br
ATOM     21  C   UNL     1      17.328  11.346  20.345  0.00  0.00    +0.014 A 
ATOM     24  C   UNL     1      18.338  12.236  19.978  0.00  0.00    +0.027 A 
ATOM     25  C   UNL     1      17.648  10.163  21.011  0.00  0.00    +0.011 A 
ATOM     28  C   UNL     1      19.668  11.942  20.278  0.00  0.00    +0.016 A 
ATOM     29  C   UNL     1      18.978   9.870  21.311  0.00  0.00    +0.001 A 
ATOM     33  C   UNL     1      19.989  10.760  20.945  0.00  0.00    +0.001 A 
ENDBRANCH  18  21
ENDBRANCH   9  16
BRANCH  10  15
ATOM     15  C   UNL     1      11.015   9.906  23.225  0.00  0.00    +0.123 C 
BRANCH  15   4
ATOM      2  O   UNL     1      11.439   9.204  20.473  0.00  0.00    -0.270 OA
ATOM      4  N   UNL     1      12.168   9.260  22.676  0.00  0.00    -0.310 N 
ATOM     20  C   UNL     1      12.292   8.956  21.322  0.00  0.00    +0.244 C 
ATOM     36  H   UNL     1      12.884   8.972  23.333  0.00  0.00    +0.149 HD
BRANCH  20  22
ATOM     22  C   UNL     1      13.541   8.262  20.914  0.00  0.00    +0.037 A 
ATOM     26  C   UNL     1      14.474   7.882  21.879  0.00  0.00    +0.015 A 
ATOM     27  C   UNL     1      13.778   7.989  19.568  0.00  0.00    +0.015 A 
ATOM     30  C   UNL     1      15.646   7.229  21.496  0.00  0.00    +0.024 A 
ATOM     31  C   UNL     1      14.951   7.337  19.185  0.00  0.00    +0.024 A 
ATOM     32  C   UNL     1      15.884   6.957  20.149  0.00  0.00    +0.029 A 
BRANCH  32   7
ATOM      7  N   UNL     1      17.069   6.298  19.762  0.00  0.00    -0.336 N 
ATOM     34  C   UNL     1      18.206   6.243  20.660  0.00  0.00    +0.129 C 
ATOM     35  C   UNL     1      17.164   5.660  18.464  0.00  0.00    +0.129 C 
ENDBRANCH  32   7
ENDBRANCH  20  22
ENDBRANCH  15   4
ENDBRANCH  10  15
TORSDOF 6
ENDMDL
MODEL 4
REMARK VINA RESULT:      -7.6     18.035     20.560
REMARK  Name = 40777108
REMARK  9 active torsions:
REMARK  status: ('A' for Active; 'I' for Inactive)
REMARK    1  A    between atoms: N_4  and  C_15
REMARK    2  A    between atoms: N_7  and  C_32
REMARK    3  A    between atoms: N_7  and  C_34
REMARK    4  A    between atoms: N_7  and  C_35
REMARK    5  A    between atoms: C_9  and  C_16
REMARK    6  A    between atoms: C_10  and  C_15
REMARK    7  A    between atoms: C_18  and  C_21
REMARK    8  A    between atoms: C_19  and  C_23
REMARK    9  A    between atoms: C_20  and  C_22
REMARK                            x       y       z     vdW  Elec       q    Type
REMARK                         _______ _______ _______ _____ _____    ______ ____
ROOT
ATOM      3  N   UNL     1       8.579   6.397   5.978  0.00  0.00    -0.297 NA
ATOM      8  C   UNL     1       9.830   8.549   5.210  0.00  0.00    +0.002 C 
ATOM      9  C   UNL     1       8.576   8.305   4.326  0.00  0.00    +0.055 C 
ATOM     10  C   UNL     1      10.027   6.108   5.800  0.00  0.00    +0.074 C 
ATOM     11  C   UNL     1      10.746   7.309   5.149  0.00  0.00    +0.024 C 
ATOM     12  C   UNL     1       9.331   8.673   6.667  0.00  0.00    +0.019 C 
ATOM     13  C   UNL     1       8.004   6.910   4.709  0.00  0.00    +0.094 C 
ATOM     14  C   UNL     1       8.451   7.458   7.005  0.00  0.00    +0.085 C 
ENDROOT
BRANCH   9  16
ATOM      5  N   UNL     1       8.059   9.522   2.268  0.00  0.00    -0.237 NA
ATOM      6  N   UNL     1       8.919   8.840   0.123  0.00  0.00    -0.232 NA
ATOM     16  C   UNL     1       8.713   8.479   2.820  0.00  0.00    +0.050 A 
ATOM     17  C   UNL     1       9.479   7.584   2.099  0.00  0.00    +0.052 A 
ATOM     18  C   UNL     1       9.546   7.817   0.741  0.00  0.00    +0.076 A 
ATOM     19  C   UNL     1       8.204   9.641   0.935  0.00  0.00    +0.127 A 
ATOM     23  C   UNL     1       7.495  10.783   0.288  0.00  0.00    +0.088 C 
BRANCH  18  21
ATOM      1 BR   UNL     1      12.282   9.066  -0.347  0.00  0.00    -0.050 Br
ATOM     21  C   UNL     1      10.312   6.954  -0.126  0.00  0.00    +0.014 A 
ATOM     24  C   UNL     1      11.529   7.354  -0.681  0.00  0.00    +0.027 A 
ATOM     25  C   UNL     1       9.803   5.686  -0.404  0.00  0.00    +0.011 A 
ATOM     28  C   UNL     1      12.234   6.485  -1.513  0.00  0.00    +0.016 A 
ATOM     29  C   UNL     1      10.508   4.818  -1.235  0.00  0.00    +0.001 A 
ATOM     33  C   UNL     1      11.725   5.217  -1.790  0.00  0.00    +0.001 A 
ENDBRANCH  18  21
ENDBRANCH   9  16
BRANCH  10  15
ATOM     15  C   UNL     1      10.271   4.810   5.026  0.00  0.00    +0.123 C 
BRANCH  15   4
ATOM      2  O   UNL     1      10.447   3.840   2.329  0.00  0.00    -0.270 OA
ATOM      4  N   UNL     1      11.385   4.947   4.140  0.00  0.00    -0.310 N 
ATOM     20  C   UNL     1      11.387   4.444   2.841  0.00  0.00    +0.244 C 
ATOM     36  H   UNL     1      12.218   5.384   4.520  0.00  0.00    +0.149 HD
BRANCH  20  22
ATOM     22  C   UNL     1      12.632   4.648   2.056  0.00  0.00    +0.037 A 
ATOM     26  C   UNL     1      13.297   5.873   2.108  0.00  0.00    +0.015 A 
ATOM     27  C   UNL     1      13.136   3.613   1.269  0.00  0.00    +0.015 A 
ATOM     30  C   UNL     1      14.467   6.064   1.373  0.00  0.00    +0.024 A 
ATOM     31  C   UNL     1      14.306   3.804   0.533  0.00  0.00    +0.024 A 
ATOM     32  C   UNL     1      14.971   5.029   0.585  0.00  0.00    +0.029 A 
BRANCH  32   7
ATOM      7  N   UNL     1      16.153   5.222  -0.159  0.00  0.00    -0.336 N 
ATOM     34  C   UNL     1      16.677   4.157  -0.992  0.00  0.00    +0.129 C 
ATOM     35  C   UNL     1      16.855   6.488  -0.108  0.00  0.00    +0.129 C 
ENDBRANCH  32   7
ENDBRANCH  20  22
ENDBRANCH  15   4
ENDBRANCH  10  15
TORSDOF 6
ENDMDL
MODEL 5
REMARK VINA RESULT:      -7.6     17.506     21.130
REMARK  Name = 40777108
REMARK  9 active torsions:
REMARK  status: ('A' for Active; 'I' for Inactive)
REMARK    1  A    between atoms: N_4  and  C_15
REMARK    2  A    between atoms: N_7  and  C_32
REMARK    3  A    between atoms: N_7  and  C_34
REMARK    4  A    between atoms: N_7  and  C_35
REMARK    5  A    between atoms: C_9  and  C_16
REMARK    6  A    between atoms: C_10  and  C_15
REMARK    7  A    between atoms: C_18  and  C_21
REMARK    8  A    between atoms: C_19  and  C_23
REMARK    9  A    between atoms: C_20  and  C_22
REMARK                            x       y       z     vdW  Elec       q    Type
REMARK                         _______ _______ _______ _____ _____    ______ ____
ROOT
ATOM      3  N   UNL     1       9.825   6.936   7.547  0.00  0.00    -0.297 NA
ATOM      8  C   UNL     1       9.774   5.071   5.730  0.00  0.00    +0.002 C 
ATOM      9  C   UNL     1      11.083   5.900   5.621  0.00  0.00    +0.055 C 
ATOM     10  C   UNL     1       8.530   6.972   6.818  0.00  0.00    +0.074 C 
ATOM     11  C   UNL     1       8.560   6.016   5.606  0.00  0.00    +0.024 C 
ATOM     12  C   UNL     1       9.741   4.475   7.154  0.00  0.00    +0.019 C 
ATOM     13  C   UNL     1      10.950   7.107   6.592  0.00  0.00    +0.094 C 
ATOM     14  C   UNL     1       9.954   5.602   8.179  0.00  0.00    +0.085 C 
ENDROOT
BRANCH   9  16
ATOM      5  N   UNL     1      12.178   7.515   4.146  0.00  0.00    -0.237 NA
ATOM      6  N   UNL     1      12.414   7.138   1.778  0.00  0.00    -0.232 NA
ATOM     16  C   UNL     1      11.553   6.323   4.236  0.00  0.00    +0.050 A 
ATOM     17  C   UNL     1      11.323   5.494   3.157  0.00  0.00    +0.052 A 
ATOM     18  C   UNL     1      11.780   5.957   1.940  0.00  0.00    +0.076 A 
ATOM     19  C   UNL     1      12.577   7.855   2.905  0.00  0.00    +0.127 A 
ATOM     23  C   UNL     1      13.272   9.167   2.766  0.00  0.00    +0.088 C 
BRANCH  18  21
ATOM      1 BR   UNL     1      13.948   3.654   1.467  0.00  0.00    -0.050 Br
ATOM     21  C   UNL     1      11.602   5.186   0.734  0.00  0.00    +0.014 A 
ATOM     24  C   UNL     1      12.464   4.145   0.386  0.00  0.00    +0.027 A 
ATOM     25  C   UNL     1      10.527   5.507  -0.096  0.00  0.00    +0.011 A 
ATOM     28  C   UNL     1      12.252   3.427  -0.790  0.00  0.00    +0.016 A 
ATOM     29  C   UNL     1      10.314   4.788  -1.271  0.00  0.00    +0.001 A 
ATOM     33  C   UNL     1      11.177   3.748  -1.619  0.00  0.00    +0.001 A 
ENDBRANCH  18  21
ENDBRANCH   9  16
BRANCH  10  15
ATOM     15  C   UNL     1       8.128   8.393   6.413  0.00  0.00    +0.123 C 
BRANCH  15   4
ATOM      2  O   UNL     1       9.723   9.800   4.485  0.00  0.00    -0.270 OA
ATOM      4  N   UNL     1       7.891   8.473   5.004  0.00  0.00    -0.310 N 
ATOM     20  C   UNL     1       8.720   9.181   4.137  0.00  0.00    +0.244 C 
ATOM     36  H   UNL     1       7.044   8.035   4.659  0.00  0.00    +0.149 HD
BRANCH  20  22
ATOM     22  C   UNL     1       8.323   9.188   2.705  0.00  0.00    +0.037 A 
ATOM     26  C   UNL     1       7.062   9.656   2.333  0.00  0.00    +0.015 A 
ATOM     27  C   UNL     1       9.211   8.729   1.734  0.00  0.00    +0.015 A 
ATOM     30  C   UNL     1       6.690   9.664   0.989  0.00  0.00    +0.024 A 
ATOM     31  C   UNL     1       8.839   8.736   0.389  0.00  0.00    +0.024 A 
ATOM     32  C   UNL     1       7.578   9.204   0.017  0.00  0.00    +0.029 A 
BRANCH  32   7
ATOM      7  N   UNL     1       7.202   9.211  -1.342  0.00  0.00    -0.336 N 
ATOM     34  C   UNL     1       8.154   9.598  -2.365  0.00  0.00    +0.129 C 
ATOM     35  C   UNL     1       5.862   8.823  -1.735  0.00  0.00    +0.129 C 
ENDBRANCH  32   7
ENDBRANCH  20  22
ENDBRANCH  15   4
ENDBRANCH  10  15
TORSDOF 6
ENDMDL
MODEL 6
REMARK VINA RESULT:      -7.6     15.155     18.395
REMARK  Name = 40777108
REMARK  9 active torsions:
REMARK  status: ('A' for Active; 'I' for Inactive)
REMARK    1  A    between atoms: N_4  and  C_15
REMARK    2  A    between atoms: N_7  and  C_32
REMARK    3  A    between atoms: N_7  and  C_34
REMARK    4  A    between atoms: N_7  and  C_35
REMARK    5  A    between atoms: C_9  and  C_16
REMARK    6  A    between atoms: C_10  and  C_15
REMARK    7  A    between atoms: C_18  and  C_21
REMARK    8  A    between atoms: C_19  and  C_23
REMARK    9  A    between atoms: C_20  and  C_22
REMARK                            x       y       z     vdW  Elec       q    Type
REMARK                         _______ _______ _______ _____ _____    ______ ____
ROOT
ATOM      3  N   UNL     1      15.481  10.091   3.286  0.00  0.00    -0.297 NA
ATOM      8  C   UNL     1      16.140   7.633   3.841  0.00  0.00    +0.002 C 
ATOM      9  C   UNL     1      15.190   7.677   2.613  0.00  0.00    +0.055 C 
ATOM     10  C   UNL     1      15.269   9.821   4.733  0.00  0.00    +0.074 C 
ATOM     11  C   UNL     1      15.456   8.320   5.040  0.00  0.00    +0.024 C 
ATOM     12  C   UNL     1      17.378   8.483   3.476  0.00  0.00    +0.019 C 
ATOM     13  C   UNL     1      14.683   9.140   2.470  0.00  0.00    +0.094 C 
ATOM     14  C   UNL     1      16.915   9.866   2.987  0.00  0.00    +0.085 C 
ENDROOT
BRANCH   9  16
ATOM      5  N   UNL     1      14.285   5.541   1.835  0.00  0.00    -0.237 NA
ATOM      6  N   UNL     1      12.056   4.814   2.388  0.00  0.00    -0.232 NA
ATOM     16  C   UNL     1      14.055   6.664   2.546  0.00  0.00    +0.050 A 
ATOM     17  C   UNL     1      12.866   6.931   3.196  0.00  0.00    +0.052 A 
ATOM     18  C   UNL     1      11.893   5.960   3.081  0.00  0.00    +0.076 A 
ATOM     19  C   UNL     1      13.258   4.672   1.799  0.00  0.00    +0.127 A 
ATOM     23  C   UNL     1      13.475   3.417   1.022  0.00  0.00    +0.088 C 
BRANCH  18  21
ATOM      1 BR   UNL     1      10.453   8.765   2.546  0.00  0.00    -0.050 Br
ATOM     21  C   UNL     1      10.604   6.118   3.712  0.00  0.00    +0.014 A 
ATOM     24  C   UNL     1       9.851   7.285   3.574  0.00  0.00    +0.027 A 
ATOM     25  C   UNL     1      10.117   5.060   4.479  0.00  0.00    +0.011 A 
ATOM     28  C   UNL     1       8.611   7.392   4.203  0.00  0.00    +0.016 A 
ATOM     29  C   UNL     1       8.877   5.167   5.106  0.00  0.00    +0.001 A 
ATOM     33  C   UNL     1       8.123   6.333   4.969  0.00  0.00    +0.001 A 
ENDBRANCH  18  21
ENDBRANCH   9  16
BRANCH  10  15
ATOM     15  C   UNL     1      13.918  10.342   5.231  0.00  0.00    +0.123 C 
BRANCH  15   4
ATOM      2  O   UNL     1      11.134  10.385   5.931  0.00  0.00    -0.270 OA
ATOM      4  N   UNL     1      13.189   9.307   5.898  0.00  0.00    -0.310 N 
ATOM     20  C   UNL     1      11.833   9.411   6.200  0.00  0.00    +0.244 C 
ATOM     36  H   UNL     1      13.721   8.500   6.204  0.00  0.00    +0.149 HD
BRANCH  20  22
ATOM     22  C   UNL     1      11.228   8.259   6.918  0.00  0.00    +0.037 A 
ATOM     26  C   UNL     1      11.935   7.063   7.038  0.00  0.00    +0.015 A 
ATOM     27  C   UNL     1       9.954   8.376   7.472  0.00  0.00    +0.015 A 
ATOM     30  C   UNL     1      11.367   5.982   7.714  0.00  0.00    +0.024 A 
ATOM     31  C   UNL     1       9.385   7.295   8.147  0.00  0.00    +0.024 A 
ATOM     32  C   UNL     1      10.093   6.098   8.268  0.00  0.00    +0.029 A 
BRANCH  32   7
ATOM      7  N   UNL     1       9.518   5.006   8.950  0.00  0.00    -0.336 N 
ATOM     34  C   UNL     1       9.527   3.683   8.356  0.00  0.00    +0.129 C 
ATOM     35  C   UNL     1       8.917   5.189  10.255  0.00  0.00    +0.129 C 
ENDBRANCH  32   7
ENDBRANCH  20  22
ENDBRANCH  15   4
ENDBRANCH  10  15
TORSDOF 6
ENDMDL
MODEL 7
REMARK VINA RESULT:      -7.5     28.351     31.945
REMARK  Name = 40777108
REMARK  9 active torsions:
REMARK  status: ('A' for Active; 'I' for Inactive)
REMARK    1  A    between atoms: N_4  and  C_15
REMARK    2  A    between atoms: N_7  and  C_32
REMARK    3  A    between atoms: N_7  and  C_34
REMARK    4  A    between atoms: N_7  and  C_35
REMARK    5  A    between atoms: C_9  and  C_16
REMARK    6  A    between atoms: C_10  and  C_15
REMARK    7  A    between atoms: C_18  and  C_21
REMARK    8  A    between atoms: C_19  and  C_23
REMARK    9  A    between atoms: C_20  and  C_22
REMARK                            x       y       z     vdW  Elec       q    Type
REMARK                         _______ _______ _______ _____ _____    ______ ____
ROOT
ATOM      3  N   UNL     1     -18.656   2.743  26.258  0.00  0.00    -0.297 NA
ATOM      8  C   UNL     1     -16.738   0.984  26.138  0.00  0.00    +0.002 C 
ATOM      9  C   UNL     1     -17.221   1.163  27.604  0.00  0.00    +0.055 C 
ATOM     10  C   UNL     1     -17.510   3.291  25.485  0.00  0.00    +0.074 C 
ATOM     11  C   UNL     1     -16.290   2.351  25.579  0.00  0.00    +0.024 C 
ATOM     12  C   UNL     1     -17.967   0.539  25.316  0.00  0.00    +0.019 C 
ATOM     13  C   UNL     1     -18.213   2.361  27.622  0.00  0.00    +0.094 C 
ATOM     14  C   UNL     1     -19.126   1.519  25.566  0.00  0.00    +0.085 C 
ENDROOT
BRANCH   9  16
ATOM      5  N   UNL     1     -15.272   0.263  28.776  0.00  0.00    -0.237 NA
ATOM      6  N   UNL     1     -14.262   1.398  30.646  0.00  0.00    -0.232 NA
ATOM     16  C   UNL     1     -16.170   1.268  28.700  0.00  0.00    +0.050 A 
ATOM     17  C   UNL     1     -16.179   2.355  29.549  0.00  0.00    +0.052 A 
ATOM     18  C   UNL     1     -15.191   2.367  30.513  0.00  0.00    +0.076 A 
ATOM     19  C   UNL     1     -14.360   0.391  29.758  0.00  0.00    +0.127 A 
ATOM     23  C   UNL     1     -13.350  -0.700  29.874  0.00  0.00    +0.088 C 
BRANCH  18  21
ATOM      1 BR   UNL     1     -14.696   1.468  33.542  0.00  0.00    -0.050 Br
ATOM     21  C   UNL     1     -15.092   3.447  31.465  0.00  0.00    +0.014 A 
ATOM     24  C   UNL     1     -14.877   3.218  32.824  0.00  0.00    +0.027 A 
ATOM     25  C   UNL     1     -15.218   4.752  30.990  0.00  0.00    +0.011 A 
ATOM     28  C   UNL     1     -14.787   4.294  33.708  0.00  0.00    +0.016 A 
ATOM     29  C   UNL     1     -15.128   5.828  31.872  0.00  0.00    +0.001 A 
ATOM     33  C   UNL     1     -14.913   5.599  33.232  0.00  0.00    +0.001 A 
ENDBRANCH  18  21
ENDBRANCH   9  16
BRANCH  10  15
ATOM     15  C   UNL     1     -17.160   4.723  25.901  0.00  0.00    +0.123 C 
BRANCH  15   4
ATOM      2  O   UNL     1     -17.749   6.254  23.544  0.00  0.00    -0.270 OA
ATOM      4  N   UNL     1     -16.212   5.298  24.996  0.00  0.00    -0.310 N 
ATOM     20  C   UNL     1     -16.586   6.030  23.872  0.00  0.00    +0.244 C 
ATOM     36  H   UNL     1     -15.234   5.099  25.175  0.00  0.00    +0.149 HD
BRANCH  20  22
ATOM     22  C   UNL     1     -15.481   6.540  23.019  0.00  0.00    +0.037 A 
ATOM     26  C   UNL     1     -14.581   5.647  22.437  0.00  0.00    +0.015 A 
ATOM     27  C   UNL     1     -15.346   7.910  22.800  0.00  0.00    +0.015 A 
ATOM     30  C   UNL     1     -13.545   6.125  21.635  0.00  0.00    +0.024 A 
ATOM     31  C   UNL     1     -14.308   8.389  21.999  0.00  0.00    +0.024 A 
ATOM     32  C   UNL     1     -13.408   7.496  21.417  0.00  0.00    +0.029 A 
BRANCH  32   7
ATOM      7  N   UNL     1     -12.360   7.980  20.607  0.00  0.00    -0.336 N 
ATOM     34  C   UNL     1     -11.556   7.064  19.823  0.00  0.00    +0.129 C 
ATOM     35  C   UNL     1     -12.078   9.400  20.543  0.00  0.00    +0.129 C 
ENDBRANCH  32   7
ENDBRANCH  20  22
ENDBRANCH  15   4
ENDBRANCH  10  15
TORSDOF 6
ENDMDL
MODEL 8
REMARK VINA RESULT:      -7.4     16.819     19.732
REMARK  Name = 40777108
REMARK  9 active torsions:
REMARK  status: ('A' for Active; 'I' for Inactive)
REMARK    1  A    between atoms: N_4  and  C_15
REMARK    2  A    between atoms: N_7  and  C_32
REMARK    3  A    between atoms: N_7  and  C_34
REMARK    4  A    between atoms: N_7  and  C_35
REMARK    5  A    between atoms: C_9  and  C_16
REMARK    6  A    between atoms: C_10  and  C_15
REMARK    7  A    between atoms: C_18  and  C_21
REMARK    8  A    between atoms: C_19  and  C_23
REMARK    9  A    between atoms: C_20  and  C_22
REMARK                            x       y       z     vdW  Elec       q    Type
REMARK                         _______ _______ _______ _____ _____    ______ ____
ROOT
ATOM      3  N   UNL     1      10.556   5.725   7.656  0.00  0.00    -0.297 NA
ATOM      8  C   UNL     1       9.366   7.711   6.463  0.00  0.00    +0.002 C 
ATOM      9  C   UNL     1       9.280   6.425   5.595  0.00  0.00    +0.055 C 
ATOM     10  C   UNL     1      11.448   6.914   7.635  0.00  0.00    +0.074 C 
ATOM     11  C   UNL     1      10.847   8.031   6.755  0.00  0.00    +0.024 C 
ATOM     12  C   UNL     1       8.698   7.380   7.816  0.00  0.00    +0.019 C 
ATOM     13  C   UNL     1      10.178   5.349   6.270  0.00  0.00    +0.094 C 
ATOM     14  C   UNL     1       9.321   6.096   8.387  0.00  0.00    +0.085 C 
ENDROOT
BRANCH   9  16
ATOM      5  N   UNL     1       8.951   7.572   3.459  0.00  0.00    -0.237 NA
ATOM      6  N   UNL     1       9.992   6.815   1.423  0.00  0.00    -0.232 NA
ATOM     16  C   UNL     1       9.549   6.547   4.102  0.00  0.00    +0.050 A 
ATOM     17  C   UNL     1      10.371   5.628   3.482  0.00  0.00    +0.052 A 
ATOM     18  C   UNL     1      10.558   5.814   2.127  0.00  0.00    +0.076 A 
ATOM     19  C   UNL     1       9.212   7.645   2.141  0.00  0.00    +0.127 A 
ATOM     23  C   UNL     1       8.567   8.765   1.396  0.00  0.00    +0.088 C 
BRANCH  18  21
ATOM      1 BR   UNL     1       9.733   5.482  -0.945  0.00  0.00    -0.050 Br
ATOM     21  C   UNL     1      11.394   4.920   1.361  0.00  0.00    +0.014 A 
ATOM     24  C   UNL     1      11.163   4.671   0.008  0.00  0.00    +0.027 A 
ATOM     25  C   UNL     1      12.458   4.298   2.013  0.00  0.00    +0.011 A 
ATOM     28  C   UNL     1      11.998   3.799  -0.693  0.00  0.00    +0.016 A 
ATOM     29  C   UNL     1      13.292   3.428   1.313  0.00  0.00    +0.001 A 
ATOM     33  C   UNL     1      13.063   3.178  -0.040  0.00  0.00    +0.001 A 
ENDBRANCH  18  21
ENDBRANCH   9  16
BRANCH  10  15
ATOM     15  C   UNL     1      12.877   6.563   7.213  0.00  0.00    +0.123 C 
BRANCH  15   4
ATOM      2  O   UNL     1      14.989   7.959   5.858  0.00  0.00    -0.270 OA
ATOM      4  N   UNL     1      13.039   6.703   5.798  0.00  0.00    -0.310 N 
ATOM     20  C   UNL     1      14.098   7.400   5.222  0.00  0.00    +0.244 C 
ATOM     36  H   UNL     1      12.304   6.316   5.216  0.00  0.00    +0.149 HD
BRANCH  20  22
ATOM     22  C   UNL     1      14.109   7.475   3.738  0.00  0.00    +0.037 A 
ATOM     26  C   UNL     1      15.062   6.762   3.010  0.00  0.00    +0.015 A 
ATOM     27  C   UNL     1      13.164   8.256   3.074  0.00  0.00    +0.015 A 
ATOM     30  C   UNL     1      15.071   6.832   1.617  0.00  0.00    +0.024 A 
ATOM     31  C   UNL     1      13.174   8.327   1.680  0.00  0.00    +0.024 A 
ATOM     32  C   UNL     1      14.127   7.614   0.952  0.00  0.00    +0.029 A 
BRANCH  32   7
ATOM      7  N   UNL     1      14.136   7.685  -0.456  0.00  0.00    -0.336 N 
ATOM     34  C   UNL     1      15.391   7.725  -1.181  0.00  0.00    +0.129 C 
ATOM     35  C   UNL     1      12.891   7.712  -1.198  0.00  0.00    +0.129 C 
ENDBRANCH  32   7
ENDBRANCH  20  22
ENDBRANCH  15   4
ENDBRANCH  10  15
TORSDOF 6
ENDMDL
MODEL 9
REMARK VINA RESULT:      -7.3      2.789      6.276
REMARK  Name = 40777108
REMARK  9 active torsions:
REMARK  status: ('A' for Active; 'I' for Inactive)
REMARK    1  A    between atoms: N_4  and  C_15
REMARK    2  A    between atoms: N_7  and  C_32
REMARK    3  A    between atoms: N_7  and  C_34
REMARK    4  A    between atoms: N_7  and  C_35
REMARK    5  A    between atoms: C_9  and  C_16
REMARK    6  A    between atoms: C_10  and  C_15
REMARK    7  A    between atoms: C_18  and  C_21
REMARK    8  A    between atoms: C_19  and  C_23
REMARK    9  A    between atoms: C_20  and  C_22
REMARK                            x       y       z     vdW  Elec       q    Type
REMARK                         _______ _______ _______ _____ _____    ______ ____
ROOT
ATOM      3  N   UNL     1      10.542  12.508  22.845  0.00  0.00    -0.297 NA
ATOM      8  C   UNL     1      12.970  13.284  23.379  0.00  0.00    +0.002 C 
ATOM      9  C   UNL     1      12.692  13.379  21.854  0.00  0.00    +0.055 C 
ATOM     10  C   UNL     1      11.222  11.499  23.699  0.00  0.00    +0.074 C 
ATOM     11  C   UNL     1      12.721  11.838  23.854  0.00  0.00    +0.024 C 
ATOM     12  C   UNL     1      11.923  14.179  24.079  0.00  0.00    +0.019 C 
ATOM     13  C   UNL     1      11.311  12.715  21.591  0.00  0.00    +0.094 C 
ATOM     14  C   UNL     1      10.518  13.790  23.588  0.00  0.00    +0.085 C 
ENDROOT
BRANCH   9  16
ATOM      5  N   UNL     1      14.970  12.592  21.430  0.00  0.00    -0.237 NA
ATOM      6  N   UNL     1      15.728  11.981  19.227  0.00  0.00    -0.232 NA
ATOM     16  C   UNL     1      13.765  12.879  20.895  0.00  0.00    +0.050 A 
ATOM     17  C   UNL     1      13.468  12.745  19.554  0.00  0.00    +0.052 A 
ATOM     18  C   UNL     1      14.499  12.287  18.759  0.00  0.00    +0.076 A 
ATOM     19  C   UNL     1      15.891  12.155  20.551  0.00  0.00    +0.127 A 
ATOM     23  C   UNL     1      17.237  11.828  21.105  0.00  0.00    +0.088 C 
BRANCH  18  21
ATOM      1 BR   UNL     1      13.818   9.297  17.849  0.00  0.00    -0.050 Br
ATOM     21  C   UNL     1      14.320  12.104  17.338  0.00  0.00    +0.014 A 
ATOM     24  C   UNL     1      14.018  10.859  16.785  0.00  0.00    +0.027 A 
ATOM     25  C   UNL     1      14.458  13.219  16.512  0.00  0.00    +0.011 A 
ATOM     28  C   UNL     1      13.854  10.731  15.406  0.00  0.00    +0.016 A 
ATOM     29  C   UNL     1      14.293  13.091  15.134  0.00  0.00    +0.001 A 
ATOM     33  C   UNL     1      13.991  11.846  14.580  0.00  0.00    +0.001 A 
ENDBRANCH  18  21
ENDBRANCH   9  16
BRANCH  10  15
ATOM     15  C   UNL     1      11.010  10.070  23.192  0.00  0.00    +0.123 C 
BRANCH  15   4
ATOM      2  O   UNL     1      11.304   8.021  21.202  0.00  0.00    -0.270 OA
ATOM      4  N   UNL     1      12.238   9.511  22.716  0.00  0.00    -0.310 N 
ATOM     20  C   UNL     1      12.290   8.515  21.743  0.00  0.00    +0.244 C 
ATOM     36  H   UNL     1      13.089   9.832  23.165  0.00  0.00    +0.149 HD
BRANCH  20  22
ATOM     22  C   UNL     1      13.643   8.023  21.375  0.00  0.00    +0.037 A 
ATOM     26  C   UNL     1      13.779   6.921  20.531  0.00  0.00    +0.015 A 
ATOM     27  C   UNL     1      14.776   8.665  21.872  0.00  0.00    +0.015 A 
ATOM     30  C   UNL     1      15.049   6.460  20.185  0.00  0.00    +0.024 A 
ATOM     31  C   UNL     1      16.047   8.203  21.527  0.00  0.00    +0.024 A 
ATOM     32  C   UNL     1      16.183   7.101  20.683  0.00  0.00    +0.029 A 
BRANCH  32   7
ATOM      7  N   UNL     1      17.467   6.635  20.334  0.00  0.00    -0.336 N 
ATOM     34  C   UNL     1      17.658   5.831  19.142  0.00  0.00    +0.129 C 
ATOM     35  C   UNL     1      18.615   6.959  21.157  0.00  0.00    +0.129 C 
ENDBRANCH  32   7
ENDBRANCH  20  22
ENDBRANCH  15   4
ENDBRANCH  10  15
TORSDOF 6
ENDMDL
MODEL 10
REMARK VINA RESULT:      -7.3     12.327     16.224
REMARK  Name = 40777108
REMARK  9 active torsions:
REMARK  status: ('A' for Active; 'I' for Inactive)
REMARK    1  A    between atoms: N_4  and  C_15
REMARK    2  A    between atoms: N_7  and  C_32
REMARK    3  A    between atoms: N_7  and  C_34
REMARK    4  A    between atoms: N_7  and  C_35
REMARK    5  A    between atoms: C_9  and  C_16
REMARK    6  A    between atoms: C_10  and  C_15
REMARK    7  A    between atoms: C_18  and  C_21
REMARK    8  A    between atoms: C_19  and  C_23
REMARK    9  A    between atoms: C_20  and  C_22
REMARK                            x       y       z     vdW  Elec       q    Type
REMARK                         _______ _______ _______ _____ _____    ______ ____
ROOT
ATOM      3  N   UNL     1      18.288  -2.813  23.020  0.00  0.00    -0.297 NA
ATOM      8  C   UNL     1      16.901  -1.806  24.980  0.00  0.00    +0.002 C 
ATOM      9  C   UNL     1      18.379  -2.013  25.411  0.00  0.00    +0.055 C 
ATOM     10  C   UNL     1      17.044  -3.603  23.221  0.00  0.00    +0.074 C 
ATOM     11  C   UNL     1      16.315  -3.151  24.505  0.00  0.00    +0.024 C 
ATOM     12  C   UNL     1      16.921  -0.862  23.758  0.00  0.00    +0.019 C 
ATOM     13  C   UNL     1      19.089  -2.798  24.270  0.00  0.00    +0.094 C 
ATOM     14  C   UNL     1      17.895  -1.419  22.705  0.00  0.00    +0.085 C 
ENDROOT
BRANCH   9  16
ATOM      5  N   UNL     1      19.887  -3.116  26.990  0.00  0.00    -0.237 NA
ATOM      6  N   UNL     1      19.196  -3.717  29.219  0.00  0.00    -0.232 NA
ATOM     16  C   UNL     1      18.651  -2.618  26.781  0.00  0.00    +0.050 A 
ATOM     17  C   UNL     1      17.647  -2.632  27.729  0.00  0.00    +0.052 A 
ATOM     18  C   UNL     1      17.981  -3.200  28.941  0.00  0.00    +0.076 A 
ATOM     19  C   UNL     1      20.087  -3.643  28.213  0.00  0.00    +0.127 A 
ATOM     23  C   UNL     1      21.443  -4.205  28.481  0.00  0.00    +0.088 C 
BRANCH  18  21
ATOM      1 BR   UNL     1      18.104  -0.800  31.052  0.00  0.00    -0.050 Br
ATOM     21  C   UNL     1      17.020  -3.279  30.016  0.00  0.00    +0.014 A 
ATOM     24  C   UNL     1      16.948  -2.308  31.016  0.00  0.00    +0.027 A 
ATOM     25  C   UNL     1      16.149  -4.367  30.037  0.00  0.00    +0.011 A 
ATOM     28  C   UNL     1      16.003  -2.427  32.036  0.00  0.00    +0.016 A 
ATOM     29  C   UNL     1      15.204  -4.485  31.055  0.00  0.00    +0.001 A 
ATOM     33  C   UNL     1      15.131  -3.515  32.055  0.00  0.00    +0.001 A 
ENDBRANCH  18  21
ENDBRANCH   9  16
BRANCH  10  15
ATOM     15  C   UNL     1      17.305  -5.112  23.215  0.00  0.00    +0.123 C 
BRANCH  15   4
ATOM      2  O   UNL     1      19.083  -5.912  25.323  0.00  0.00    -0.270 OA
ATOM      4  N   UNL     1      16.937  -5.698  24.467  0.00  0.00    -0.310 N 
ATOM     20  C   UNL     1      17.869  -6.057  25.438  0.00  0.00    +0.244 C 
ATOM     36  H   UNL     1      15.953  -5.902  24.602  0.00  0.00    +0.149 HD
BRANCH  20  22
ATOM     22  C   UNL     1      17.326  -6.678  26.674  0.00  0.00    +0.037 A 
ATOM     26  C   UNL     1      18.196  -7.149  27.658  0.00  0.00    +0.015 A 
ATOM     27  C   UNL     1      15.948  -6.787  26.852  0.00  0.00    +0.015 A 
ATOM     30  C   UNL     1      17.687  -7.730  28.819  0.00  0.00    +0.024 A 
ATOM     31  C   UNL     1      15.438  -7.369  28.012  0.00  0.00    +0.024 A 
ATOM     32  C   UNL     1      16.308  -7.840  28.996  0.00  0.00    +0.029 A 
BRANCH  32   7
ATOM      7  N   UNL     1      15.792  -8.429  30.169  0.00  0.00    -0.336 N 
ATOM     34  C   UNL     1      16.653  -9.203  31.042  0.00  0.00    +0.129 C 
ATOM     35  C   UNL     1      14.397  -8.261  30.523  0.00  0.00    +0.129 C 
ENDBRANCH  32   7
ENDBRANCH  20  22
ENDBRANCH  15   4
ENDBRANCH  10  15
TORSDOF 6
ENDMDL
