REMARK  Name = 9420564
REMARK  5 active torsions:
REMARK  status: ('A' for Active; 'I' for Inactive)
REMARK    1  A    between atoms: N_4  and  C_14
REMARK    2  A    between atoms: N_6  and  C_24
REMARK    3  A    between atoms: C_14  and  C_19
REMARK    4  A    between atoms: C_17  and  C_20
REMARK    5  A    between atoms: C_22  and  C_24
REMARK                            x       y       z     vdW  Elec       q    Type
REMARK                         _______ _______ _______ _____ _____    ______ ____
ROOT
ATOM      1  O   UNL     1      -2.497  -1.839   1.078  0.00  0.00    -0.267 OA
ATOM      4  N   UNL     1       2.516  -1.906   0.967  0.00  0.00    -0.294 NA
ATOM      5  N   UNL     1      -0.492  -2.547   0.121  0.00  0.00    -0.311 N 
ATOM      7  C   UNL     1       1.203  -4.003   1.377  0.00  0.00    +0.024 C 
ATOM      8  C   UNL     1       1.669  -3.304  -0.923  0.00  0.00    +0.050 C 
ATOM      9  C   UNL     1       1.561  -4.522  -0.010  0.00  0.00    +0.017 C 
ATOM     10  C   UNL     1       2.296  -3.036   1.879  0.00  0.00    +0.090 C 
ATOM     11  C   UNL     1       2.783  -2.366  -0.404  0.00  0.00    +0.094 C 
ATOM     12  C   UNL     1      -0.183  -3.345   1.316  0.00  0.00    +0.130 C 
ATOM     13  C   UNL     1       0.346  -2.566  -0.996  0.00  0.00    +0.026 A 
ATOM     15  C   UNL     1      -0.012  -1.919  -2.117  0.00  0.00    +0.022 A 
ATOM     16  C   UNL     1      -1.717  -1.851   0.124  0.00  0.00    +0.259 A 
ATOM     17  C   UNL     1      -2.075  -1.107  -1.135  0.00  0.00    +0.047 A 
ATOM     18  C   UNL     1      -1.238  -1.176  -2.181  0.00  0.00    +0.015 A 
ENDROOT
BRANCH  17  20
ATOM     20  C   UNL     1      -3.310  -0.310  -1.226  0.00  0.00    -0.008 A 
ATOM     22  C   UNL     1      -3.335   1.039  -0.865  0.00  0.00    -0.025 A 
ATOM     25  C   UNL     1      -4.477  -0.926  -1.685  0.00  0.00    +0.009 A 
ATOM     27  C   UNL     1      -4.521   1.768  -0.962  0.00  0.00    +0.005 A 
ATOM     30  C   UNL     1      -5.662  -0.197  -1.782  0.00  0.00    +0.001 A 
ATOM     32  C   UNL     1      -5.684   1.149  -1.421  0.00  0.00    +0.000 A 
BRANCH  22  24
ATOM     24  C   UNL     1      -2.108   1.734  -0.369  0.00  0.00    +0.120 C 
BRANCH  24   6
ATOM      3  O   UNL     1      -1.740   2.809   3.671  0.00  0.00    -0.377 OA
ATOM      6  N   UNL     1      -1.970   1.647   1.083  0.00  0.00    -0.294 NA
ATOM     28  C   UNL     1      -3.124   2.262   1.754  0.00  0.00    +0.113 C 
ATOM     29  C   UNL     1      -0.726   2.289   1.529  0.00  0.00    +0.113 C 
ATOM     34  C   UNL     1      -2.951   2.170   3.268  0.00  0.00    +0.175 C 
ATOM     35  C   UNL     1      -0.611   2.196   3.047  0.00  0.00    +0.175 C 
ENDBRANCH  24   6
ENDBRANCH  22  24
ENDBRANCH  17  20
BRANCH   4  14
ATOM     14  C   UNL     1       3.593  -1.045   1.449  0.00  0.00    +0.158 C 
BRANCH  14  19
ATOM      2  O   UNL     1       2.616   0.796   0.255  0.00  0.00    -0.458 OA
ATOM     19  C   UNL     1       3.762   0.178   0.588  0.00  0.00    +0.120 A 
ATOM     21  C   UNL     1       4.860   0.779   0.079  0.00  0.00    +0.054 A 
ATOM     23  C   UNL     1       4.370   1.893  -0.652  0.00  0.00    +0.020 A 
ATOM     26  C   UNL     1       2.987   1.859  -0.513  0.00  0.00    +0.135 A 
ATOM     31  C   UNL     1       4.943   2.925  -1.416  0.00  0.00    +0.011 A 
ATOM     33  C   UNL     1       2.120   2.789  -1.085  0.00  0.00    +0.047 A 
ATOM     36  C   UNL     1       4.097   3.876  -2.004  0.00  0.00    +0.001 A 
ATOM     37  C   UNL     1       2.711   3.807  -1.840  0.00  0.00    +0.004 A 
ENDBRANCH  14  19
ENDBRANCH   4  14
TORSDOF 5
