REMARK  Name = 28962614
REMARK  16 active torsions:
REMARK  status: ('A' for Active; 'I' for Inactive)
REMARK    1  A    between atoms: O_1  and  C_9
REMARK    2  A    between atoms: N_4  and  C_13
REMARK    3  A    between atoms: N_5  and  C_24
REMARK    4  A    between atoms: N_5  and  C_25
REMARK    5  A    between atoms: C_6  and  C_16
REMARK    6  A    between atoms: C_8  and  C_18
REMARK    7  A    between atoms: C_11  and  C_17
REMARK    8  A    between atoms: C_17  and  C_19
REMARK    9  A    between atoms: C_17  and  C_20
REMARK   10  A    between atoms: C_21  and  C_22
REMARK   11  A    between atoms: C_22  and  C_23
REMARK   12  A    between atoms: C_23  and  C_26
REMARK   13  A    between atoms: C_23  and  C_27
REMARK   14  A    between atoms: C_23  and  C_28
REMARK   15  A    between atoms: C_24  and  C_29
REMARK   16  A    between atoms: C_25  and  C_30
REMARK                            x       y       z     vdW  Elec       q    Type
REMARK                         _______ _______ _______ _____ _____    ______ ____
ROOT
ATOM      6  C   UNL     1      -0.038  -1.523   0.024  0.00  0.00    -0.027 C 
ATOM      7  C   UNL     1       0.019   0.040   0.051  0.00  0.00    +0.028 C 
ATOM      8  C   UNL     1      -1.357   0.658  -0.387  0.00  0.00    +0.012 C 
ATOM      9  C   UNL     1       1.264   0.572  -0.716  0.00  0.00    +0.122 C 
ATOM     10  C   UNL     1       1.291  -2.098   0.567  0.00  0.00    +0.007 C 
ATOM     11  C   UNL     1       2.581  -0.084  -0.239  0.00  0.00    +0.029 C 
ATOM     12  C   UNL     1      -1.174  -2.002   0.958  0.00  0.00    +0.009 C 
ATOM     13  C   UNL     1      -2.503   0.112   0.511  0.00  0.00    +0.076 C 
ATOM     14  C   UNL     1       2.509  -1.611  -0.206  0.00  0.00    +0.007 C 
ATOM     15  C   UNL     1      -2.531  -1.414   0.598  0.00  0.00    +0.023 C 
ATOM     16  C   UNL     1      -0.278  -2.085  -1.400  0.00  0.00    +0.011 C 
ATOM     18  C   UNL     1      -1.380   2.196  -0.356  0.00  0.00    +0.010 C 
ENDROOT
BRANCH  13   4
ATOM      3  O   UNL     1      -4.831   0.662   2.142  0.00  0.00    -0.276 OA
ATOM      4  N   UNL     1      -3.801   0.570   0.062  0.00  0.00    -0.312 N 
ATOM     21  C   UNL     1      -4.858   0.806   0.922  0.00  0.00    +0.214 C 
ATOM     31  H   UNL     1      -3.939   0.685  -0.937  0.00  0.00    +0.149 HD
BRANCH  21  22
ATOM     22  C   UNL     1      -6.113   1.272   0.203  0.00  0.00    +0.102 C 
BRANCH  22  23
ATOM     23  C   UNL     1      -7.033   0.133  -0.295  0.00  0.00    -0.029 C 
ATOM     26  C   UNL     1      -8.268   0.695  -1.021  0.00  0.00    +0.011 C 
ATOM     27  C   UNL     1      -6.232  -0.726  -1.293  0.00  0.00    +0.011 C 
ATOM     28  C   UNL     1      -7.492  -0.769   0.863  0.00  0.00    +0.011 C 
ENDBRANCH  22  23
ENDBRANCH  21  22
ENDBRANCH  13   4
BRANCH   9   1
ATOM      1  O   UNL     1       1.402   1.975  -0.489  0.00  0.00    -0.391 OA
ATOM     32  H   UNL     1       1.514   2.117   0.467  0.00  0.00    +0.210 HD
ENDBRANCH   9   1
BRANCH  11  17
ATOM     17  C   UNL     1       3.777   0.354  -1.093  0.00  0.00    +0.078 C 
ATOM     19  C   UNL     1       3.543  -0.057  -2.547  0.00  0.00    +0.017 C 
BRANCH  17  20
ATOM      2  O   UNL     1       5.418  -1.384  -0.951  0.00  0.00    -0.275 OA
ATOM      5  N   UNL     1       5.777   0.445   0.420  0.00  0.00    -0.302 N 
ATOM     20  C   UNL     1       5.062  -0.272  -0.545  0.00  0.00    +0.219 C 
BRANCH   5  24
ATOM     24  C   UNL     1       6.994  -0.133   0.979  0.00  0.00    +0.104 C 
ATOM     29  C   UNL     1       6.698  -0.967   2.209  0.00  0.00    +0.024 C 
ENDBRANCH   5  24
BRANCH   5  25
ATOM     25  C   UNL     1       5.446   1.775   0.927  0.00  0.00    +0.104 C 
ATOM     30  C   UNL     1       6.107   2.862   0.104  0.00  0.00    +0.024 C 
ENDBRANCH   5  25
ENDBRANCH  17  20
ENDBRANCH  11  17
TORSDOF 8
