MODEL 1
REMARK VINA RESULT:      -7.7      0.000      0.000
REMARK  Name = 11912972
REMARK  4 active torsions:
REMARK  status: ('A' for Active; 'I' for Inactive)
REMARK    1  A    between atoms: N_7  and  C_13
REMARK    2  A    between atoms: N_8  and  C_14
REMARK    3  A    between atoms: C_17  and  C_19
REMARK    4  A    between atoms: C_22  and  C_28
REMARK                            x       y       z     vdW  Elec       q    Type
REMARK                         _______ _______ _______ _____ _____    ______ ____
ROOT
ATOM      1  O   UNL     1      13.411   8.552  21.789  0.00  0.00    -0.370 OA
ATOM      2  O   UNL     1      10.443   8.135  20.998  0.00  0.00    -0.370 OA
ATOM     11  C   UNL     1      11.462   9.030  20.519  0.00  0.00    +0.171 C 
ATOM     12  C   UNL     1      12.289   9.449  21.718  0.00  0.00    +0.171 C 
ATOM     13  C   UNL     1      12.440   8.287  19.634  0.00  0.00    +0.130 C 
ATOM     14  C   UNL     1      11.369   9.228  22.895  0.00  0.00    +0.130 C 
ATOM     15  C   UNL     1      13.379   7.667  20.658  0.00  0.00    +0.185 C 
ATOM     16  C   UNL     1      10.510   8.066  22.430  0.00  0.00    +0.185 C 
ENDROOT
BRANCH  14   8
ATOM      8  N   UNL     1      10.552  10.402  23.112  0.00  0.00    -0.306 N 
ATOM      9  N   UNL     1      12.135  11.374  24.545  0.00  0.00    -0.211 NA
ATOM     10  N   UNL     1      10.066  12.502  24.039  0.00  0.00    -0.223 NA
ATOM     18  C   UNL     1      10.929  11.457  23.924  0.00  0.00    +0.216 A 
ATOM     22  C   UNL     1      12.471  12.421  25.327  0.00  0.00    +0.111 A 
ATOM     23  C   UNL     1      10.465  13.513  24.837  0.00  0.00    +0.116 A 
ATOM     26  C   UNL     1      11.668  13.528  25.513  0.00  0.00    +0.051 A 
ATOM     34  H   UNL     1       9.675  10.497  22.612  0.00  0.00    +0.149 HD
BRANCH  22  28
ATOM      6  O   UNL     1      13.813  12.803  27.233  0.00  0.00    -0.461 OA
ATOM     28  C   UNL     1      13.752  12.305  25.972  0.00  0.00    +0.153 A 
ATOM     30  C   UNL     1      14.966  11.789  25.592  0.00  0.00    +0.051 A 
ATOM     31  C   UNL     1      15.835  11.984  26.693  0.00  0.00    +0.042 A 
ATOM     32  C   UNL     1      15.085  12.604  27.665  0.00  0.00    +0.196 A 
ENDBRANCH  22  28
ENDBRANCH  14   8
BRANCH  13   7
ATOM      3  O   UNL     1      13.253   7.880  16.899  0.00  0.00    -0.270 OA
ATOM      7  N   UNL     1      13.180   9.222  18.789  0.00  0.00    -0.304 N 
ATOM     17  C   UNL     1      13.524   8.928  17.477  0.00  0.00    +0.245 C 
ATOM     33  H   UNL     1      13.535  10.060  19.237  0.00  0.00    +0.149 HD
BRANCH  17  19
ATOM      4  O   UNL     1      15.417  10.955  13.433  0.00  0.00    -0.453 OA
ATOM      5  O   UNL     1      16.406  12.768  14.674  0.00  0.00    -0.453 OA
ATOM     19  C   UNL     1      14.300   9.973  16.760  0.00  0.00    +0.040 A 
ATOM     20  C   UNL     1      14.435   9.874  15.388  0.00  0.00    +0.062 A 
ATOM     21  C   UNL     1      14.862  11.009  17.500  0.00  0.00    +0.017 A 
ATOM     24  C   UNL     1      15.165  10.866  14.767  0.00  0.00    +0.167 A 
ATOM     25  C   UNL     1      15.595  12.001  16.846  0.00  0.00    +0.050 A 
ATOM     27  C   UNL     1      15.729  11.902  15.476  0.00  0.00    +0.166 A 
ATOM     29  C   UNL     1      16.203  12.163  13.381  0.00  0.00    +0.466 C 
ENDBRANCH  17  19
ENDBRANCH  13   7
TORSDOF 4
ENDMDL
MODEL 2
REMARK VINA RESULT:      -7.5     26.602     29.596
REMARK  Name = 11912972
REMARK  4 active torsions:
REMARK  status: ('A' for Active; 'I' for Inactive)
REMARK    1  A    between atoms: N_7  and  C_13
REMARK    2  A    between atoms: N_8  and  C_14
REMARK    3  A    between atoms: C_17  and  C_19
REMARK    4  A    between atoms: C_22  and  C_28
REMARK                            x       y       z     vdW  Elec       q    Type
REMARK                         _______ _______ _______ _____ _____    ______ ____
ROOT
ATOM      1  O   UNL     1     -16.183   2.618  24.248  0.00  0.00    -0.370 OA
ATOM      2  O   UNL     1     -18.616   4.528  24.454  0.00  0.00    -0.370 OA
ATOM     11  C   UNL     1     -17.233   4.745  24.122  0.00  0.00    +0.171 C 
ATOM     12  C   UNL     1     -16.412   3.822  25.002  0.00  0.00    +0.171 C 
ATOM     13  C   UNL     1     -16.949   4.266  22.715  0.00  0.00    +0.130 C 
ATOM     14  C   UNL     1     -17.315   3.537  26.178  0.00  0.00    +0.130 C 
ATOM     15  C   UNL     1     -16.729   2.777  22.930  0.00  0.00    +0.185 C 
ATOM     16  C   UNL     1     -18.700   3.621  25.563  0.00  0.00    +0.185 C 
ENDROOT
BRANCH  14   8
ATOM      8  N   UNL     1     -17.151   4.561  27.187  0.00  0.00    -0.306 N 
ATOM      9  N   UNL     1     -16.091   3.085  28.671  0.00  0.00    -0.211 NA
ATOM     10  N   UNL     1     -16.458   5.391  29.270  0.00  0.00    -0.223 NA
ATOM     18  C   UNL     1     -16.549   4.338  28.413  0.00  0.00    +0.216 A 
ATOM     22  C   UNL     1     -15.508   2.904  29.875  0.00  0.00    +0.111 A 
ATOM     23  C   UNL     1     -15.865   5.138  30.454  0.00  0.00    +0.116 A 
ATOM     26  C   UNL     1     -15.366   3.904  30.816  0.00  0.00    +0.051 A 
ATOM     34  H   UNL     1     -17.442   5.511  26.985  0.00  0.00    +0.149 HD
BRANCH  22  28
ATOM      6  O   UNL     1     -13.709   1.375  29.904  0.00  0.00    -0.461 OA
ATOM     28  C   UNL     1     -15.034   1.568  30.120  0.00  0.00    +0.153 A 
ATOM     30  C   UNL     1     -15.635   0.405  30.534  0.00  0.00    +0.051 A 
ATOM     31  C   UNL     1     -14.610  -0.571  30.576  0.00  0.00    +0.042 A 
ATOM     32  C   UNL     1     -13.458   0.070  30.184  0.00  0.00    +0.196 A 
ENDBRANCH  22  28
ENDBRANCH  14   8
BRANCH  13   7
ATOM      3  O   UNL     1     -16.748   6.618  21.060  0.00  0.00    -0.270 OA
ATOM      7  N   UNL     1     -15.725   4.878  22.202  0.00  0.00    -0.304 N 
ATOM     17  C   UNL     1     -15.736   6.016  21.408  0.00  0.00    +0.245 C 
ATOM     33  H   UNL     1     -14.861   4.369  22.356  0.00  0.00    +0.149 HD
BRANCH  17  19
ATOM      4  O   UNL     1     -12.828   8.602  18.424  0.00  0.00    -0.453 OA
ATOM      5  O   UNL     1     -10.834   7.886  19.570  0.00  0.00    -0.453 OA
ATOM     19  C   UNL     1     -14.409   6.498  20.945  0.00  0.00    +0.040 A 
ATOM     20  C   UNL     1     -14.355   7.349  19.858  0.00  0.00    +0.062 A 
ATOM     21  C   UNL     1     -13.272   6.069  21.623  0.00  0.00    +0.017 A 
ATOM     24  C   UNL     1     -13.101   7.768  19.464  0.00  0.00    +0.167 A 
ATOM     25  C   UNL     1     -12.014   6.508  21.204  0.00  0.00    +0.050 A 
ATOM     27  C   UNL     1     -11.962   7.360  20.119  0.00  0.00    +0.166 A 
ATOM     29  C   UNL     1     -11.390   8.673  18.498  0.00  0.00    +0.466 C 
ENDBRANCH  17  19
ENDBRANCH  13   7
TORSDOF 4
ENDMDL
MODEL 3
REMARK VINA RESULT:      -7.4     26.856     30.745
REMARK  Name = 11912972
REMARK  4 active torsions:
REMARK  status: ('A' for Active; 'I' for Inactive)
REMARK    1  A    between atoms: N_7  and  C_13
REMARK    2  A    between atoms: N_8  and  C_14
REMARK    3  A    between atoms: C_17  and  C_19
REMARK    4  A    between atoms: C_22  and  C_28
REMARK                            x       y       z     vdW  Elec       q    Type
REMARK                         _______ _______ _______ _____ _____    ______ ____
ROOT
ATOM      1  O   UNL     1     -17.099   4.879  25.146  0.00  0.00    -0.370 OA
ATOM      2  O   UNL     1     -16.593   2.434  23.307  0.00  0.00    -0.370 OA
ATOM     11  C   UNL     1     -16.023   2.843  24.563  0.00  0.00    +0.171 C 
ATOM     12  C   UNL     1     -15.908   4.354  24.532  0.00  0.00    +0.171 C 
ATOM     13  C   UNL     1     -16.990   2.567  25.694  0.00  0.00    +0.130 C 
ATOM     14  C   UNL     1     -15.889   4.691  23.060  0.00  0.00    +0.130 C 
ATOM     15  C   UNL     1     -17.894   3.789  25.637  0.00  0.00    +0.185 C 
ATOM     16  C   UNL     1     -16.729   3.581  22.454  0.00  0.00    +0.185 C 
ENDROOT
BRANCH  14   8
ATOM      8  N   UNL     1     -14.535   4.629  22.555  0.00  0.00    -0.306 N 
ATOM      9  N   UNL     1     -14.521   6.908  21.997  0.00  0.00    -0.211 NA
ATOM     10  N   UNL     1     -12.590   5.522  21.594  0.00  0.00    -0.223 NA
ATOM     18  C   UNL     1     -13.862   5.719  22.033  0.00  0.00    +0.216 A 
ATOM     22  C   UNL     1     -13.834   7.949  21.483  0.00  0.00    +0.111 A 
ATOM     23  C   UNL     1     -11.963   6.606  21.093  0.00  0.00    +0.116 A 
ATOM     26  C   UNL     1     -12.540   7.857  21.011  0.00  0.00    +0.051 A 
ATOM     34  H   UNL     1     -14.017   3.760  22.625  0.00  0.00    +0.149 HD
BRANCH  22  28
ATOM      6  O   UNL     1     -15.710   9.208  22.172  0.00  0.00    -0.461 OA
ATOM     28  C   UNL     1     -14.556   9.193  21.458  0.00  0.00    +0.153 A 
ATOM     30  C   UNL     1     -14.340  10.409  20.856  0.00  0.00    +0.051 A 
ATOM     31  C   UNL     1     -15.434  11.227  21.224  0.00  0.00    +0.042 A 
ATOM     32  C   UNL     1     -16.239  10.450  22.025  0.00  0.00    +0.196 A 
ENDBRANCH  22  28
ENDBRANCH  14   8
BRANCH  13   7
ATOM      3  O   UNL     1     -17.226   0.560  27.750  0.00  0.00    -0.270 OA
ATOM      7  N   UNL     1     -16.286   2.533  26.974  0.00  0.00    -0.304 N 
ATOM     17  C   UNL     1     -16.472   1.517  27.901  0.00  0.00    +0.245 C 
ATOM     33  H   UNL     1     -15.734   3.350  27.213  0.00  0.00    +0.149 HD
BRANCH  17  19
ATOM      4  O   UNL     1     -14.227   4.110  31.406  0.00  0.00    -0.453 OA
ATOM      5  O   UNL     1     -13.592   2.126  32.617  0.00  0.00    -0.453 OA
ATOM     19  C   UNL     1     -15.703   1.643  29.166  0.00  0.00    +0.040 A 
ATOM     20  C   UNL     1     -15.369   2.906  29.616  0.00  0.00    +0.062 A 
ATOM     21  C   UNL     1     -15.347   0.482  29.845  0.00  0.00    +0.017 A 
ATOM     24  C   UNL     1     -14.654   2.972  30.794  0.00  0.00    +0.167 A 
ATOM     25  C   UNL     1     -14.623   0.577  31.036  0.00  0.00    +0.050 A 
ATOM     27  C   UNL     1     -14.291   1.839  31.485  0.00  0.00    +0.166 A 
ATOM     29  C   UNL     1     -13.556   3.566  32.560  0.00  0.00    +0.466 C 
ENDBRANCH  17  19
ENDBRANCH  13   7
TORSDOF 4
ENDMDL
MODEL 4
REMARK VINA RESULT:      -7.4      5.074      9.698
REMARK  Name = 11912972
REMARK  4 active torsions:
REMARK  status: ('A' for Active; 'I' for Inactive)
REMARK    1  A    between atoms: N_7  and  C_13
REMARK    2  A    between atoms: N_8  and  C_14
REMARK    3  A    between atoms: C_17  and  C_19
REMARK    4  A    between atoms: C_22  and  C_28
REMARK                            x       y       z     vdW  Elec       q    Type
REMARK                         _______ _______ _______ _____ _____    ______ ____
ROOT
ATOM      1  O   UNL     1      13.426  10.122  18.660  0.00  0.00    -0.370 OA
ATOM      2  O   UNL     1      13.320   8.066  16.342  0.00  0.00    -0.370 OA
ATOM     11  C   UNL     1      14.361   8.447  17.260  0.00  0.00    +0.171 C 
ATOM     12  C   UNL     1      14.234   9.941  17.483  0.00  0.00    +0.171 C 
ATOM     13  C   UNL     1      14.106   7.844  18.624  0.00  0.00    +0.130 C 
ATOM     14  C   UNL     1      13.496  10.434  16.262  0.00  0.00    +0.130 C 
ATOM     15  C   UNL     1      13.125   8.838  19.227  0.00  0.00    +0.185 C 
ATOM     16  C   UNL     1      12.633   9.242  15.892  0.00  0.00    +0.185 C 
ENDROOT
BRANCH  14   8
ATOM      8  N   UNL     1      14.434  10.725  15.200  0.00  0.00    -0.306 N 
ATOM      9  N   UNL     1      12.809  11.831  13.918  0.00  0.00    -0.211 NA
ATOM     10  N   UNL     1      15.077  11.620  13.128  0.00  0.00    -0.223 NA
ATOM     18  C   UNL     1      14.096  11.412  14.048  0.00  0.00    +0.216 A 
ATOM     22  C   UNL     1      12.516  12.499  12.783  0.00  0.00    +0.111 A 
ATOM     23  C   UNL     1      14.713  12.293  12.018  0.00  0.00    +0.116 A 
ATOM     26  C   UNL     1      13.436  12.761  11.788  0.00  0.00    +0.051 A 
ATOM     34  H   UNL     1      15.407  10.464  15.310  0.00  0.00    +0.149 HD
BRANCH  22  28
ATOM      6  O   UNL     1      10.218  11.990  12.984  0.00  0.00    -0.461 OA
ATOM     28  C   UNL     1      11.147  12.929  12.673  0.00  0.00    +0.153 A 
ATOM     30  C   UNL     1      10.545  14.109  12.314  0.00  0.00    +0.051 A 
ATOM     31  C   UNL     1       9.152  13.882  12.409  0.00  0.00    +0.042 A 
ATOM     32  C   UNL     1       9.005  12.578  12.821  0.00  0.00    +0.196 A 
ENDBRANCH  22  28
ENDBRANCH  14   8
BRANCH  13   7
ATOM      3  O   UNL     1      16.167   5.829  18.569  0.00  0.00    -0.270 OA
ATOM      7  N   UNL     1      15.336   7.822  19.413  0.00  0.00    -0.304 N 
ATOM     17  C   UNL     1      16.269   6.800  19.313  0.00  0.00    +0.245 C 
ATOM     33  H   UNL     1      15.431   8.535  20.130  0.00  0.00    +0.149 HD
BRANCH  17  19
ATOM      4  O   UNL     1      20.626   5.301  20.992  0.00  0.00    -0.453 OA
ATOM      5  O   UNL     1      20.751   7.101  22.588  0.00  0.00    -0.453 OA
ATOM     19  C   UNL     1      17.453   6.912  20.203  0.00  0.00    +0.040 A 
ATOM     20  C   UNL     1      18.458   5.970  20.091  0.00  0.00    +0.062 A 
ATOM     21  C   UNL     1      17.501   7.960  21.117  0.00  0.00    +0.017 A 
ATOM     24  C   UNL     1      19.536   6.115  20.939  0.00  0.00    +0.167 A 
ATOM     25  C   UNL     1      18.604   8.084  21.964  0.00  0.00    +0.050 A 
ATOM     27  C   UNL     1      19.608   7.143  21.851  0.00  0.00    +0.166 A 
ATOM     29  C   UNL     1      21.391   5.932  22.038  0.00  0.00    +0.466 C 
ENDBRANCH  17  19
ENDBRANCH  13   7
TORSDOF 4
ENDMDL
MODEL 5
REMARK VINA RESULT:      -7.3     27.606     30.305
REMARK  Name = 11912972
REMARK  4 active torsions:
REMARK  status: ('A' for Active; 'I' for Inactive)
REMARK    1  A    between atoms: N_7  and  C_13
REMARK    2  A    between atoms: N_8  and  C_14
REMARK    3  A    between atoms: C_17  and  C_19
REMARK    4  A    between atoms: C_22  and  C_28
REMARK                            x       y       z     vdW  Elec       q    Type
REMARK                         _______ _______ _______ _____ _____    ______ ____
ROOT
ATOM      1  O   UNL     1      -5.491 -12.196  10.421  0.00  0.00    -0.370 OA
ATOM      2  O   UNL     1      -4.979  -9.141  10.276  0.00  0.00    -0.370 OA
ATOM     11  C   UNL     1      -4.332 -10.268   9.658  0.00  0.00    +0.171 C 
ATOM     12  C   UNL     1      -4.324 -11.393  10.675  0.00  0.00    +0.171 C 
ATOM     13  C   UNL     1      -5.176 -10.801   8.521  0.00  0.00    +0.130 C 
ATOM     14  C   UNL     1      -4.456 -10.687  12.004  0.00  0.00    +0.130 C 
ATOM     15  C   UNL     1      -6.164 -11.693   9.257  0.00  0.00    +0.185 C 
ATOM     16  C   UNL     1      -5.266  -9.454  11.647  0.00  0.00    +0.185 C 
ENDROOT
BRANCH  14   8
ATOM      8  N   UNL     1      -3.149 -10.305  12.493  0.00  0.00    -0.306 N 
ATOM      9  N   UNL     1      -3.657 -10.963  14.687  0.00  0.00    -0.211 NA
ATOM     10  N   UNL     1      -1.497 -10.044  14.139  0.00  0.00    -0.223 NA
ATOM     18  C   UNL     1      -2.757 -10.441  13.813  0.00  0.00    +0.216 A 
ATOM     22  C   UNL     1      -3.239 -11.082  15.965  0.00  0.00    +0.111 A 
ATOM     23  C   UNL     1      -1.147 -10.192  15.432  0.00  0.00    +0.116 A 
ATOM     26  C   UNL     1      -1.984 -10.709  16.400  0.00  0.00    +0.051 A 
ATOM     34  H   UNL     1      -2.453  -9.964  11.840  0.00  0.00    +0.149 HD
BRANCH  22  28
ATOM      6  O   UNL     1      -5.147 -12.436  16.292  0.00  0.00    -0.461 OA
ATOM     28  C   UNL     1      -4.213 -11.637  16.867  0.00  0.00    +0.153 A 
ATOM     30  C   UNL     1      -4.423 -11.539  18.221  0.00  0.00    +0.051 A 
ATOM     31  C   UNL     1      -5.562 -12.331  18.498  0.00  0.00    +0.042 A 
ATOM     32  C   UNL     1      -5.965 -12.855  17.292  0.00  0.00    +0.196 A 
ENDBRANCH  22  28
ENDBRANCH  14   8
BRANCH  13   7
ATOM      3  O   UNL     1      -5.358 -10.889   5.645  0.00  0.00    -0.270 OA
ATOM      7  N   UNL     1      -4.364 -11.608   7.613  0.00  0.00    -0.304 N 
ATOM     17  C   UNL     1      -4.532 -11.578   6.236  0.00  0.00    +0.245 C 
ATOM     33  H   UNL     1      -3.739 -12.285   8.038  0.00  0.00    +0.149 HD
BRANCH  17  19
ATOM      4  O   UNL     1      -2.118 -12.873   2.168  0.00  0.00    -0.453 OA
ATOM      5  O   UNL     1      -1.231 -14.862   3.197  0.00  0.00    -0.453 OA
ATOM     19  C   UNL     1      -3.645 -12.478   5.453  0.00  0.00    +0.040 A 
ATOM     20  C   UNL     1      -3.352 -12.146   4.144  0.00  0.00    +0.062 A 
ATOM     21  C   UNL     1      -3.147 -13.621   6.071  0.00  0.00    +0.017 A 
ATOM     24  C   UNL     1      -2.526 -13.013   3.458  0.00  0.00    +0.167 A 
ATOM     25  C   UNL     1      -2.312 -14.481   5.354  0.00  0.00    +0.050 A 
ATOM     27  C   UNL     1      -2.020 -14.149   4.046  0.00  0.00    +0.166 A 
ATOM     29  C   UNL     1      -1.298 -14.047   2.010  0.00  0.00    +0.466 C 
ENDBRANCH  17  19
ENDBRANCH  13   7
TORSDOF 4
ENDMDL
MODEL 6
REMARK VINA RESULT:      -7.2     28.092     31.329
REMARK  Name = 11912972
REMARK  4 active torsions:
REMARK  status: ('A' for Active; 'I' for Inactive)
REMARK    1  A    between atoms: N_7  and  C_13
REMARK    2  A    between atoms: N_8  and  C_14
REMARK    3  A    between atoms: C_17  and  C_19
REMARK    4  A    between atoms: C_22  and  C_28
REMARK                            x       y       z     vdW  Elec       q    Type
REMARK                         _______ _______ _______ _____ _____    ______ ____
ROOT
ATOM      1  O   UNL     1      -4.246 -12.413  11.940  0.00  0.00    -0.370 OA
ATOM      2  O   UNL     1      -3.059  -9.590  11.457  0.00  0.00    -0.370 OA
ATOM     11  C   UNL     1      -3.998 -10.101  12.420  0.00  0.00    +0.171 C 
ATOM     12  C   UNL     1      -4.854 -11.130  11.708  0.00  0.00    +0.171 C 
ATOM     13  C   UNL     1      -3.277 -10.891  13.489  0.00  0.00    +0.130 C 
ATOM     14  C   UNL     1      -4.742 -10.756  10.249  0.00  0.00    +0.130 C 
ATOM     15  C   UNL     1      -3.126 -12.251  12.824  0.00  0.00    +0.185 C 
ATOM     16  C   UNL     1      -3.354 -10.148  10.168  0.00  0.00    +0.185 C 
ENDROOT
BRANCH  14   8
ATOM      8  N   UNL     1      -5.743  -9.768   9.913  0.00  0.00    -0.306 N 
ATOM      9  N   UNL     1      -5.736 -10.370   7.646  0.00  0.00    -0.211 NA
ATOM     10  N   UNL     1      -7.176  -8.614   8.456  0.00  0.00    -0.223 NA
ATOM     18  C   UNL     1      -6.232  -9.578   8.633  0.00  0.00    +0.216 A 
ATOM     22  C   UNL     1      -6.237 -10.159   6.411  0.00  0.00    +0.111 A 
ATOM     23  C   UNL     1      -7.631  -8.457   7.197  0.00  0.00    +0.116 A 
ATOM     26  C   UNL     1      -7.195  -9.207   6.123  0.00  0.00    +0.051 A 
ATOM     34  H   UNL     1      -6.158  -9.208  10.651  0.00  0.00    +0.149 HD
BRANCH  22  28
ATOM      6  O   UNL     1      -4.433 -11.459   5.615  0.00  0.00    -0.461 OA
ATOM     28  C   UNL     1      -5.693 -11.011   5.387  0.00  0.00    +0.153 A 
ATOM     30  C   UNL     1      -6.172 -11.489   4.192  0.00  0.00    +0.051 A 
ATOM     31  C   UNL     1      -5.136 -12.285   3.647  0.00  0.00    +0.042 A 
ATOM     32  C   UNL     1      -4.101 -12.235   4.551  0.00  0.00    +0.196 A 
ENDBRANCH  22  28
ENDBRANCH  14   8
BRANCH  13   7
ATOM      3  O   UNL     1      -2.460 -10.474  16.222  0.00  0.00    -0.270 OA
ATOM      7  N   UNL     1      -4.109 -11.016  14.684  0.00  0.00    -0.304 N 
ATOM     17  C   UNL     1      -3.617 -10.793  15.962  0.00  0.00    +0.245 C 
ATOM     33  H   UNL     1      -5.045 -11.386  14.553  0.00  0.00    +0.149 HD
BRANCH  17  19
ATOM      4  O   UNL     1      -8.084 -10.498  17.966  0.00  0.00    -0.453 OA
ATOM      5  O   UNL     1      -7.334 -11.462  20.043  0.00  0.00    -0.453 OA
ATOM     19  C   UNL     1      -4.584 -10.987  17.074  0.00  0.00    +0.040 A 
ATOM     20  C   UNL     1      -5.898 -10.605  16.884  0.00  0.00    +0.062 A 
ATOM     21  C   UNL     1      -4.126 -11.545  18.263  0.00  0.00    +0.017 A 
ATOM     24  C   UNL     1      -6.758 -10.804  17.945  0.00  0.00    +0.167 A 
ATOM     25  C   UNL     1      -5.017 -11.736  19.322  0.00  0.00    +0.050 A 
ATOM     27  C   UNL     1      -6.330 -11.355  19.130  0.00  0.00    +0.166 A 
ATOM     29  C   UNL     1      -8.442 -10.918  19.297  0.00  0.00    +0.466 C 
ENDBRANCH  17  19
ENDBRANCH  13   7
TORSDOF 4
ENDMDL
MODEL 7
REMARK VINA RESULT:      -7.2     27.591     30.882
REMARK  Name = 11912972
REMARK  4 active torsions:
REMARK  status: ('A' for Active; 'I' for Inactive)
REMARK    1  A    between atoms: N_7  and  C_13
REMARK    2  A    between atoms: N_8  and  C_14
REMARK    3  A    between atoms: C_17  and  C_19
REMARK    4  A    between atoms: C_22  and  C_28
REMARK                            x       y       z     vdW  Elec       q    Type
REMARK                         _______ _______ _______ _____ _____    ______ ____
ROOT
ATOM      1  O   UNL     1      -6.822 -12.692  17.595  0.00  0.00    -0.370 OA
ATOM      2  O   UNL     1      -5.194 -11.221  19.785  0.00  0.00    -0.370 OA
ATOM     11  C   UNL     1      -6.100 -10.758  18.769  0.00  0.00    +0.171 C 
ATOM     12  C   UNL     1      -5.870 -11.614  17.540  0.00  0.00    +0.171 C 
ATOM     13  C   UNL     1      -7.530 -11.053  19.166  0.00  0.00    +0.130 C 
ATOM     14  C   UNL     1      -4.469 -12.147  17.720  0.00  0.00    +0.130 C 
ATOM     15  C   UNL     1      -7.683 -12.501  18.728  0.00  0.00    +0.185 C 
ATOM     16  C   UNL     1      -4.336 -12.229  19.229  0.00  0.00    +0.185 C 
ENDROOT
BRANCH  14   8
ATOM      8  N   UNL     1      -3.509 -11.207  17.182  0.00  0.00    -0.306 N 
ATOM      9  N   UNL     1      -3.498 -12.253  15.081  0.00  0.00    -0.211 NA
ATOM     10  N   UNL     1      -2.133 -10.312  15.505  0.00  0.00    -0.223 NA
ATOM     18  C   UNL     1      -3.032 -11.260  15.884  0.00  0.00    +0.216 A 
ATOM     22  C   UNL     1      -3.013 -12.272  13.822  0.00  0.00    +0.111 A 
ATOM     23  C   UNL     1      -1.690 -10.392  14.234  0.00  0.00    +0.116 A 
ATOM     26  C   UNL     1      -2.098 -11.359  13.338  0.00  0.00    +0.051 A 
ATOM     34  H   UNL     1      -3.195 -10.432  17.755  0.00  0.00    +0.149 HD
BRANCH  22  28
ATOM      6  O   UNL     1      -2.592 -14.005  12.274  0.00  0.00    -0.461 OA
ATOM     28  C   UNL     1      -3.524 -13.334  12.996  0.00  0.00    +0.153 A 
ATOM     30  C   UNL     1      -4.779 -13.839  12.762  0.00  0.00    +0.051 A 
ATOM     31  C   UNL     1      -4.609 -14.893  11.833  0.00  0.00    +0.042 A 
ATOM     32  C   UNL     1      -3.260 -14.954  11.568  0.00  0.00    +0.196 A 
ENDBRANCH  22  28
ENDBRANCH  14   8
BRANCH  13   7
ATOM      3  O   UNL     1     -10.280 -10.487  19.818  0.00  0.00    -0.270 OA
ATOM      7  N   UNL     1      -8.456 -10.209  18.413  0.00  0.00    -0.304 N 
ATOM     17  C   UNL     1      -9.768 -10.000  18.814  0.00  0.00    +0.245 C 
ATOM     33  H   UNL     1      -8.134  -9.867  17.514  0.00  0.00    +0.149 HD
BRANCH  17  19
ATOM      4  O   UNL     1     -10.386  -6.215  15.758  0.00  0.00    -0.453 OA
ATOM      5  O   UNL     1     -12.729  -6.695  15.464  0.00  0.00    -0.453 OA
ATOM     19  C   UNL     1     -10.589  -9.138  17.925  0.00  0.00    +0.040 A 
ATOM     20  C   UNL     1      -9.981  -8.074  17.286  0.00  0.00    +0.062 A 
ATOM     21  C   UNL     1     -11.940  -9.436  17.773  0.00  0.00    +0.017 A 
ATOM     24  C   UNL     1     -10.784  -7.303  16.472  0.00  0.00    +0.167 A 
ATOM     25  C   UNL     1     -12.731  -8.639  16.942  0.00  0.00    +0.050 A 
ATOM     27  C   UNL     1     -12.122  -7.577  16.304  0.00  0.00    +0.166 A 
ATOM     29  C   UNL     1     -11.623  -5.836  15.121  0.00  0.00    +0.466 C 
ENDBRANCH  17  19
ENDBRANCH  13   7
TORSDOF 4
ENDMDL
MODEL 8
REMARK VINA RESULT:      -7.2     28.043     31.220
REMARK  Name = 11912972
REMARK  4 active torsions:
REMARK  status: ('A' for Active; 'I' for Inactive)
REMARK    1  A    between atoms: N_7  and  C_13
REMARK    2  A    between atoms: N_8  and  C_14
REMARK    3  A    between atoms: C_17  and  C_19
REMARK    4  A    between atoms: C_22  and  C_28
REMARK                            x       y       z     vdW  Elec       q    Type
REMARK                         _______ _______ _______ _____ _____    ______ ____
ROOT
ATOM      1  O   UNL     1      -5.139 -11.682  10.828  0.00  0.00    -0.370 OA
ATOM      2  O   UNL     1      -3.527  -9.096  10.257  0.00  0.00    -0.370 OA
ATOM     11  C   UNL     1      -4.314  -9.524  11.382  0.00  0.00    +0.171 C 
ATOM     12  C   UNL     1      -5.502 -10.289  10.831  0.00  0.00    +0.171 C 
ATOM     13  C   UNL     1      -3.555 -10.550  12.195  0.00  0.00    +0.130 C 
ATOM     14  C   UNL     1      -5.640  -9.784   9.415  0.00  0.00    +0.130 C 
ATOM     15  C   UNL     1      -3.843 -11.831  11.428  0.00  0.00    +0.185 C 
ATOM     16  C   UNL     1      -4.209  -9.442   9.043  0.00  0.00    +0.185 C 
ENDROOT
BRANCH  14   8
ATOM      8  N   UNL     1      -6.463  -8.593   9.393  0.00  0.00    -0.306 N 
ATOM      9  N   UNL     1      -7.102  -8.944   7.163  0.00  0.00    -0.211 NA
ATOM     10  N   UNL     1      -7.917  -7.043   8.401  0.00  0.00    -0.223 NA
ATOM     18  C   UNL     1      -7.182  -8.181   8.285  0.00  0.00    +0.216 A 
ATOM     22  C   UNL     1      -7.817  -8.512   6.103  0.00  0.00    +0.111 A 
ATOM     23  C   UNL     1      -8.606  -6.670   7.303  0.00  0.00    +0.116 A 
ATOM     26  C   UNL     1      -8.594  -7.372   6.115  0.00  0.00    +0.051 A 
ATOM     34  H   UNL     1      -6.570  -8.047  10.240  0.00  0.00    +0.149 HD
BRANCH  22  28
ATOM      6  O   UNL     1      -8.382  -8.884   3.840  0.00  0.00    -0.461 OA
ATOM     28  C   UNL     1      -7.714  -9.339   4.930  0.00  0.00    +0.153 A 
ATOM     30  C   UNL     1      -7.074 -10.522   4.651  0.00  0.00    +0.051 A 
ATOM     31  C   UNL     1      -7.368 -10.816   3.299  0.00  0.00    +0.042 A 
ATOM     32  C   UNL     1      -8.166  -9.789   2.850  0.00  0.00    +0.196 A 
ENDBRANCH  22  28
ENDBRANCH  14   8
BRANCH  13   7
ATOM      3  O   UNL     1      -2.104 -10.394  14.681  0.00  0.00    -0.270 OA
ATOM      7  N   UNL     1      -4.109 -10.648  13.544  0.00  0.00    -0.304 N 
ATOM     17  C   UNL     1      -3.321 -10.560  14.682  0.00  0.00    +0.245 C 
ATOM     33  H   UNL     1      -5.090 -10.898  13.618  0.00  0.00    +0.149 HD
BRANCH  17  19
ATOM      4  O   UNL     1      -7.179  -9.921  17.641  0.00  0.00    -0.453 OA
ATOM      5  O   UNL     1      -6.091 -11.037  19.479  0.00  0.00    -0.453 OA
ATOM     19  C   UNL     1      -4.032 -10.706  15.978  0.00  0.00    +0.040 A 
ATOM     20  C   UNL     1      -5.310 -10.193  16.095  0.00  0.00    +0.062 A 
ATOM     21  C   UNL     1      -3.382 -11.354  17.024  0.00  0.00    +0.017 A 
ATOM     24  C   UNL     1      -5.929 -10.352  17.318  0.00  0.00    +0.167 A 
ATOM     25  C   UNL     1      -4.031 -11.502  18.252  0.00  0.00    +0.050 A 
ATOM     27  C   UNL     1      -5.308 -10.989  18.367  0.00  0.00    +0.166 A 
ATOM     29  C   UNL     1      -7.274 -10.359  19.012  0.00  0.00    +0.466 C 
ENDBRANCH  17  19
ENDBRANCH  13   7
TORSDOF 4
ENDMDL
MODEL 9
REMARK VINA RESULT:      -7.2      8.957     11.702
REMARK  Name = 11912972
REMARK  4 active torsions:
REMARK  status: ('A' for Active; 'I' for Inactive)
REMARK    1  A    between atoms: N_7  and  C_13
REMARK    2  A    between atoms: N_8  and  C_14
REMARK    3  A    between atoms: C_17  and  C_19
REMARK    4  A    between atoms: C_22  and  C_28
REMARK                            x       y       z     vdW  Elec       q    Type
REMARK                         _______ _______ _______ _____ _____    ______ ____
ROOT
ATOM      1  O   UNL     1      20.861   6.351  24.115  0.00  0.00    -0.370 OA
ATOM      2  O   UNL     1      22.471   8.258  22.276  0.00  0.00    -0.370 OA
ATOM     11  C   UNL     1      21.253   7.519  22.084  0.00  0.00    +0.171 C 
ATOM     12  C   UNL     1      21.417   6.191  22.798  0.00  0.00    +0.171 C 
ATOM     13  C   UNL     1      20.109   8.192  22.810  0.00  0.00    +0.130 C 
ATOM     14  C   UNL     1      22.913   6.003  22.884  0.00  0.00    +0.130 C 
ATOM     15  C   UNL     1      20.281   7.660  24.225  0.00  0.00    +0.185 C 
ATOM     16  C   UNL     1      23.424   7.430  22.960  0.00  0.00    +0.185 C 
ENDROOT
BRANCH  14   8
ATOM      8  N   UNL     1      23.401   5.359  21.683  0.00  0.00    -0.306 N 
ATOM      9  N   UNL     1      23.541   3.265  22.731  0.00  0.00    -0.211 NA
ATOM     10  N   UNL     1      24.156   3.535  20.416  0.00  0.00    -0.223 NA
ATOM     18  C   UNL     1      23.709   4.013  21.609  0.00  0.00    +0.216 A 
ATOM     22  C   UNL     1      23.850   1.956  22.621  0.00  0.00    +0.111 A 
ATOM     23  C   UNL     1      24.446   2.218  20.379  0.00  0.00    +0.116 A 
ATOM     26  C   UNL     1      24.312   1.371  21.460  0.00  0.00    +0.051 A 
ATOM     34  H   UNL     1      23.480   5.897  20.827  0.00  0.00    +0.149 HD
BRANCH  22  28
ATOM      6  O   UNL     1      22.520   1.454  24.507  0.00  0.00    -0.461 OA
ATOM     28  C   UNL     1      23.662   1.190  23.825  0.00  0.00    +0.153 A 
ATOM     30  C   UNL     1      24.399   0.223  24.463  0.00  0.00    +0.051 A 
ATOM     31  C   UNL     1      23.660  -0.133  25.617  0.00  0.00    +0.042 A 
ATOM     32  C   UNL     1      22.526   0.644  25.598  0.00  0.00    +0.196 A 
ENDBRANCH  22  28
ENDBRANCH  14   8
BRANCH  13   7
ATOM      3  O   UNL     1      18.127   9.821  21.495  0.00  0.00    -0.270 OA
ATOM      7  N   UNL     1      18.825   7.749  22.269  0.00  0.00    -0.304 N 
ATOM     17  C   UNL     1      17.937   8.618  21.651  0.00  0.00    +0.245 C 
ATOM     33  H   UNL     1      18.554   6.791  22.464  0.00  0.00    +0.149 HD
BRANCH  17  19
ATOM      4  O   UNL     1      13.099   7.864  21.928  0.00  0.00    -0.453 OA
ATOM      5  O   UNL     1      13.104   6.429  19.992  0.00  0.00    -0.453 OA
ATOM     19  C   UNL     1      16.663   8.017  21.179  0.00  0.00    +0.040 A 
ATOM     20  C   UNL     1      15.500   8.299  21.871  0.00  0.00    +0.062 A 
ATOM     21  C   UNL     1      16.692   7.191  20.060  0.00  0.00    +0.017 A 
ATOM     24  C   UNL     1      14.343   7.717  21.395  0.00  0.00    +0.167 A 
ATOM     25  C   UNL     1      15.506   6.615  19.599  0.00  0.00    +0.050 A 
ATOM     27  C   UNL     1      14.345   6.898  20.291  0.00  0.00    +0.166 A 
ATOM     29  C   UNL     1      12.319   7.046  21.033  0.00  0.00    +0.466 C 
ENDBRANCH  17  19
ENDBRANCH  13   7
TORSDOF 4
ENDMDL
MODEL 10
REMARK VINA RESULT:      -7.1      5.148      8.725
REMARK  Name = 11912972
REMARK  4 active torsions:
REMARK  status: ('A' for Active; 'I' for Inactive)
REMARK    1  A    between atoms: N_7  and  C_13
REMARK    2  A    between atoms: N_8  and  C_14
REMARK    3  A    between atoms: C_17  and  C_19
REMARK    4  A    between atoms: C_22  and  C_28
REMARK                            x       y       z     vdW  Elec       q    Type
REMARK                         _______ _______ _______ _____ _____    ______ ____
ROOT
ATOM      1  O   UNL     1      16.021   9.114  19.436  0.00  0.00    -0.370 OA
ATOM      2  O   UNL     1      15.196   6.218  20.174  0.00  0.00    -0.370 OA
ATOM     11  C   UNL     1      14.994   7.484  20.826  0.00  0.00    +0.171 C 
ATOM     12  C   UNL     1      16.249   8.306  20.604  0.00  0.00    +0.171 C 
ATOM     13  C   UNL     1      13.907   8.270  20.125  0.00  0.00    +0.130 C 
ATOM     14  C   UNL     1      17.318   7.276  20.326  0.00  0.00    +0.130 C 
ATOM     15  C   UNL     1      14.675   8.912  18.980  0.00  0.00    +0.185 C 
ATOM     16  C   UNL     1      16.536   6.156  19.665  0.00  0.00    +0.185 C 
ENDROOT
BRANCH  14   8
ATOM      8  N   UNL     1      17.900   6.817  21.568  0.00  0.00    -0.306 N 
ATOM      9  N   UNL     1      19.926   7.927  21.157  0.00  0.00    -0.211 NA
ATOM     10  N   UNL     1      19.605   6.641  23.171  0.00  0.00    -0.223 NA
ATOM     18  C   UNL     1      19.182   7.138  21.977  0.00  0.00    +0.216 A 
ATOM     22  C   UNL     1      21.170   8.220  21.589  0.00  0.00    +0.111 A 
ATOM     23  C   UNL     1      20.859   6.974  23.539  0.00  0.00    +0.116 A 
ATOM     26  C   UNL     1      21.696   7.768  22.782  0.00  0.00    +0.051 A 
ATOM     34  H   UNL     1      17.336   6.272  22.211  0.00  0.00    +0.149 HD
BRANCH  22  28
ATOM      6  O   UNL     1      22.520   8.413  19.660  0.00  0.00    -0.461 OA
ATOM     28  C   UNL     1      21.934   9.057  20.700  0.00  0.00    +0.153 A 
ATOM     30  C   UNL     1      22.216  10.400  20.664  0.00  0.00    +0.051 A 
ATOM     31  C   UNL     1      23.031  10.597  19.524  0.00  0.00    +0.042 A 
ATOM     32  C   UNL     1      23.186   9.358  18.947  0.00  0.00    +0.196 A 
ENDBRANCH  22  28
ENDBRANCH  14   8
BRANCH  13   7
ATOM      3  O   UNL     1      11.184   9.207  20.253  0.00  0.00    -0.270 OA
ATOM      7  N   UNL     1      13.375   9.307  21.006  0.00  0.00    -0.304 N 
ATOM     17  C   UNL     1      12.041   9.688  20.989  0.00  0.00    +0.245 C 
ATOM     33  H   UNL     1      14.049   9.826  21.560  0.00  0.00    +0.149 HD
BRANCH  17  19
ATOM      4  O   UNL     1      10.918  11.426  25.435  0.00  0.00    -0.453 OA
ATOM      5  O   UNL     1      10.624  13.668  24.603  0.00  0.00    -0.453 OA
ATOM     19  C   UNL     1      11.664  10.776  21.927  0.00  0.00    +0.040 A 
ATOM     20  C   UNL     1      11.489  10.469  23.263  0.00  0.00    +0.062 A 
ATOM     21  C   UNL     1      11.499  12.062  21.422  0.00  0.00    +0.017 A 
ATOM     24  C   UNL     1      11.138  11.513  24.095  0.00  0.00    +0.167 A 
ATOM     25  C   UNL     1      11.144  13.101  22.285  0.00  0.00    +0.050 A 
ATOM     27  C   UNL     1      10.970  12.793  23.620  0.00  0.00    +0.166 A 
ATOM     29  C   UNL     1      10.594  12.795  25.750  0.00  0.00    +0.466 C 
ENDBRANCH  17  19
ENDBRANCH  13   7
TORSDOF 4
ENDMDL
