MODEL 1
REMARK VINA RESULT:      -7.3      0.000      0.000
REMARK  Name = 38029504
REMARK  9 active torsions:
REMARK  status: ('A' for Active; 'I' for Inactive)
REMARK    1  A    between atoms: N_4  and  C_14
REMARK    2  A    between atoms: C_7  and  C_11
REMARK    3  A    between atoms: C_8  and  C_14
REMARK    4  A    between atoms: C_10  and  C_15
REMARK    5  A    between atoms: C_11  and  C_16
REMARK    6  A    between atoms: C_11  and  C_17
REMARK    7  A    between atoms: C_12  and  C_18
REMARK    8  A    between atoms: C_15  and  C_19
REMARK    9  A    between atoms: C_20  and  C_21
REMARK                            x       y       z     vdW  Elec       q    Type
REMARK                         _______ _______ _______ _____ _____    ______ ____
ROOT
ATOM      7  C   UNL     1      14.067   9.031  19.984  0.00  0.00    +0.000 C 
ATOM      8  C   UNL     1      14.030   7.586  19.425  0.00  0.00    +0.032 C 
ATOM      9  C   UNL     1      13.776   9.029  21.493  0.00  0.00    +0.012 C 
ATOM     10  C   UNL     1      12.403   8.413  21.821  0.00  0.00    +0.023 C 
ATOM     12  C   UNL     1      12.182   7.105  21.088  0.00  0.00    -0.073 C 
ATOM     13  C   UNL     1      12.928   6.746  20.029  0.00  0.00    -0.022 C 
ATOM     18  C   UNL     1      11.115   6.197  21.631  0.00  0.00    +0.039 C 
ENDROOT
BRANCH   7  11
ATOM     11  C   UNL     1      15.412   9.711  19.716  0.00  0.00    -0.013 C 
ATOM     16  C   UNL     1      15.316  11.208  19.988  0.00  0.00    +0.007 C 
ATOM     17  C   UNL     1      16.508   9.076  20.567  0.00  0.00    +0.007 C 
ENDBRANCH   7  11
BRANCH   8  14
ATOM     14  C   UNL     1      13.894   7.588  17.898  0.00  0.00    +0.112 C 
BRANCH  14   4
ATOM      2  O   UNL     1      13.387   8.425  15.199  0.00  0.00    -0.267 OA
ATOM      4  N   UNL     1      14.015   8.914  17.379  0.00  0.00    -0.308 N 
ATOM     20  C   UNL     1      13.747   9.236  16.050  0.00  0.00    +0.279 C 
ATOM     30  H   UNL     1      14.270   9.663  18.017  0.00  0.00    +0.149 HD
BRANCH  20  21
ATOM      3  O   UNL     1      13.522  11.043  14.430  0.00  0.00    -0.458 OA
ATOM     21  C   UNL     1      13.947  10.656  15.661  0.00  0.00    +0.189 A 
ATOM     23  C   UNL     1      14.507  11.716  16.335  0.00  0.00    +0.054 A 
ATOM     25  C   UNL     1      14.418  12.827  15.463  0.00  0.00    +0.042 A 
ATOM     26  C   UNL     1      13.813  12.366  14.318  0.00  0.00    +0.196 A 
ENDBRANCH  20  21
ENDBRANCH  14   4
ENDBRANCH   8  14
BRANCH  10  15
ATOM     15  C   UNL     1      11.269   9.403  21.529  0.00  0.00    +0.104 C 
BRANCH  15  19
ATOM      1  O   UNL     1      11.025  10.017  23.846  0.00  0.00    -0.275 OA
ATOM      5  N   UNL     1      10.884  11.664  22.177  0.00  0.00    -0.270 N 
ATOM      6  N   UNL     1      10.524  14.014  22.242  0.00  0.00    -0.240 NA
ATOM     19  C   UNL     1      11.047  10.373  22.672  0.00  0.00    +0.219 C 
ATOM     22  C   UNL     1      10.657  12.849  22.916  0.00  0.00    +0.125 A 
ATOM     24  C   UNL     1      10.583  12.739  24.295  0.00  0.00    +0.044 A 
ATOM     27  C   UNL     1      10.360  13.898  25.029  0.00  0.00    +0.005 A 
ATOM     28  C   UNL     1      10.308  15.119  22.989  0.00  0.00    +0.113 A 
ATOM     29  C   UNL     1      10.218  15.114  24.372  0.00  0.00    +0.020 A 
ATOM     31  H   UNL     1      10.929  11.803  21.170  0.00  0.00    +0.156 HD
ENDBRANCH  15  19
ENDBRANCH  10  15
TORSDOF 6
ENDMDL
MODEL 2
REMARK VINA RESULT:      -7.3      3.365      7.566
REMARK  Name = 38029504
REMARK  9 active torsions:
REMARK  status: ('A' for Active; 'I' for Inactive)
REMARK    1  A    between atoms: N_4  and  C_14
REMARK    2  A    between atoms: C_7  and  C_11
REMARK    3  A    between atoms: C_8  and  C_14
REMARK    4  A    between atoms: C_10  and  C_15
REMARK    5  A    between atoms: C_11  and  C_16
REMARK    6  A    between atoms: C_11  and  C_17
REMARK    7  A    between atoms: C_12  and  C_18
REMARK    8  A    between atoms: C_15  and  C_19
REMARK    9  A    between atoms: C_20  and  C_21
REMARK                            x       y       z     vdW  Elec       q    Type
REMARK                         _______ _______ _______ _____ _____    ______ ____
ROOT
ATOM      7  C   UNL     1      13.022   9.644  20.245  0.00  0.00    +0.000 C 
ATOM      8  C   UNL     1      12.022   8.563  19.764  0.00  0.00    +0.032 C 
ATOM      9  C   UNL     1      12.924  10.897  19.361  0.00  0.00    +0.012 C 
ATOM     10  C   UNL     1      13.212  10.589  17.879  0.00  0.00    +0.023 C 
ATOM     12  C   UNL     1      12.459   9.363  17.402  0.00  0.00    -0.073 C 
ATOM     13  C   UNL     1      11.923   8.477  18.259  0.00  0.00    -0.022 C 
ATOM     18  C   UNL     1      12.298   9.204  15.916  0.00  0.00    +0.039 C 
ENDROOT
BRANCH   7  11
ATOM     11  C   UNL     1      12.790  10.023  21.710  0.00  0.00    -0.013 C 
ATOM     16  C   UNL     1      13.732  11.149  22.125  0.00  0.00    +0.007 C 
ATOM     17  C   UNL     1      11.335  10.427  21.931  0.00  0.00    +0.007 C 
ENDBRANCH   7  11
BRANCH   8  14
ATOM     14  C   UNL     1      12.381   7.186  20.333  0.00  0.00    +0.112 C 
BRANCH  14   4
ATOM      2  O   UNL     1      14.693   7.197  22.034  0.00  0.00    -0.267 OA
ATOM      4  N   UNL     1      13.711   6.816  19.966  0.00  0.00    -0.308 N 
ATOM     20  C   UNL     1      14.782   6.850  20.859  0.00  0.00    +0.279 C 
ATOM     30  H   UNL     1      13.878   6.476  19.023  0.00  0.00    +0.149 HD
BRANCH  20  21
ATOM      3  O   UNL     1      16.151   5.926  19.067  0.00  0.00    -0.458 OA
ATOM     21  C   UNL     1      16.108   6.461  20.315  0.00  0.00    +0.189 A 
ATOM     23  C   UNL     1      17.372   6.538  20.852  0.00  0.00    +0.054 A 
ATOM     25  C   UNL     1      18.249   6.018  19.870  0.00  0.00    +0.042 A 
ATOM     26  C   UNL     1      17.458   5.660  18.804  0.00  0.00    +0.196 A 
ENDBRANCH  20  21
ENDBRANCH  14   4
ENDBRANCH   8  14
BRANCH  10  15
ATOM     15  C   UNL     1      14.717  10.441  17.628  0.00  0.00    +0.104 C 
BRANCH  15  19
ATOM      1  O   UNL     1      15.675  12.602  17.167  0.00  0.00    -0.275 OA
ATOM      5  N   UNL     1      15.200  11.130  15.399  0.00  0.00    -0.270 N 
ATOM      6  N   UNL     1      15.468  11.286  13.040  0.00  0.00    -0.240 NA
ATOM     19  C   UNL     1      15.258  11.534  16.729  0.00  0.00    +0.219 C 
ATOM     22  C   UNL     1      15.608  11.860  14.257  0.00  0.00    +0.125 A 
ATOM     24  C   UNL     1      16.129  13.127  14.460  0.00  0.00    +0.044 A 
ATOM     27  C   UNL     1      16.532  13.852  13.344  0.00  0.00    +0.005 A 
ATOM     28  C   UNL     1      15.870  12.020  11.980  0.00  0.00    +0.113 A 
ATOM     29  C   UNL     1      16.403  13.295  12.077  0.00  0.00    +0.020 A 
ATOM     31  H   UNL     1      14.826  10.207  15.191  0.00  0.00    +0.156 HD
ENDBRANCH  15  19
ENDBRANCH  10  15
TORSDOF 6
ENDMDL
MODEL 3
REMARK VINA RESULT:      -6.9      3.370      7.259
REMARK  Name = 38029504
REMARK  9 active torsions:
REMARK  status: ('A' for Active; 'I' for Inactive)
REMARK    1  A    between atoms: N_4  and  C_14
REMARK    2  A    between atoms: C_7  and  C_11
REMARK    3  A    between atoms: C_8  and  C_14
REMARK    4  A    between atoms: C_10  and  C_15
REMARK    5  A    between atoms: C_11  and  C_16
REMARK    6  A    between atoms: C_11  and  C_17
REMARK    7  A    between atoms: C_12  and  C_18
REMARK    8  A    between atoms: C_15  and  C_19
REMARK    9  A    between atoms: C_20  and  C_21
REMARK                            x       y       z     vdW  Elec       q    Type
REMARK                         _______ _______ _______ _____ _____    ______ ____
ROOT
ATOM      7  C   UNL     1      12.918   8.126  20.549  0.00  0.00    +0.000 C 
ATOM      8  C   UNL     1      13.074   9.657  20.730  0.00  0.00    +0.032 C 
ATOM      9  C   UNL     1      14.038   7.382  21.293  0.00  0.00    +0.012 C 
ATOM     10  C   UNL     1      15.438   7.791  20.798  0.00  0.00    +0.023 C 
ATOM     12  C   UNL     1      15.580   9.296  20.694  0.00  0.00    -0.073 C 
ATOM     13  C   UNL     1      14.513  10.115  20.679  0.00  0.00    -0.022 C 
ATOM     18  C   UNL     1      16.980   9.843  20.653  0.00  0.00    +0.039 C 
ENDROOT
BRANCH   7  11
ATOM     11  C   UNL     1      11.553   7.632  21.037  0.00  0.00    -0.013 C 
ATOM     16  C   UNL     1      11.576   6.121  21.241  0.00  0.00    +0.007 C 
ATOM     17  C   UNL     1      11.160   8.345  22.328  0.00  0.00    +0.007 C 
ENDBRANCH   7  11
BRANCH   8  14
ATOM     14  C   UNL     1      12.256  10.424  19.685  0.00  0.00    +0.112 C 
BRANCH  14   4
ATOM      2  O   UNL     1      12.475   9.281  17.060  0.00  0.00    -0.267 OA
ATOM      4  N   UNL     1      13.094  10.883  18.622  0.00  0.00    -0.308 N 
ATOM     20  C   UNL     1      13.139  10.267  17.372  0.00  0.00    +0.279 C 
ATOM     30  H   UNL     1      13.652  11.719  18.770  0.00  0.00    +0.149 HD
BRANCH  20  21
ATOM      3  O   UNL     1      13.771  10.737  15.065  0.00  0.00    -0.458 OA
ATOM     21  C   UNL     1      14.082  10.850  16.382  0.00  0.00    +0.189 A 
ATOM     23  C   UNL     1      15.273  11.519  16.542  0.00  0.00    +0.054 A 
ATOM     25  C   UNL     1      15.722  11.838  15.239  0.00  0.00    +0.042 A 
ATOM     26  C   UNL     1      14.774  11.341  14.376  0.00  0.00    +0.196 A 
ENDBRANCH  20  21
ENDBRANCH  14   4
ENDBRANCH   8  14
BRANCH  10  15
ATOM     15  C   UNL     1      15.773   7.114  19.464  0.00  0.00    +0.104 C 
BRANCH  15  19
ATOM      1  O   UNL     1      17.405   5.534  18.662  0.00  0.00    -0.275 OA
ATOM      5  N   UNL     1      17.784   6.692  20.671  0.00  0.00    -0.270 N 
ATOM      6  N   UNL     1      19.566   6.668  22.246  0.00  0.00    -0.240 NA
ATOM     19  C   UNL     1      17.075   6.341  19.526  0.00  0.00    +0.219 C 
ATOM     22  C   UNL     1      19.041   6.196  21.093  0.00  0.00    +0.125 A 
ATOM     24  C   UNL     1      19.658   5.251  20.289  0.00  0.00    +0.044 A 
ATOM     27  C   UNL     1      20.894   4.759  20.696  0.00  0.00    +0.005 A 
ATOM     28  C   UNL     1      20.767   6.166  22.609  0.00  0.00    +0.113 A 
ATOM     29  C   UNL     1      21.465   5.220  21.876  0.00  0.00    +0.020 A 
ATOM     31  H   UNL     1      17.377   7.382  21.298  0.00  0.00    +0.156 HD
ENDBRANCH  15  19
ENDBRANCH  10  15
TORSDOF 6
ENDMDL
MODEL 4
REMARK VINA RESULT:      -6.8     27.880     30.789
REMARK  Name = 38029504
REMARK  9 active torsions:
REMARK  status: ('A' for Active; 'I' for Inactive)
REMARK    1  A    between atoms: N_4  and  C_14
REMARK    2  A    between atoms: C_7  and  C_11
REMARK    3  A    between atoms: C_8  and  C_14
REMARK    4  A    between atoms: C_10  and  C_15
REMARK    5  A    between atoms: C_11  and  C_16
REMARK    6  A    between atoms: C_11  and  C_17
REMARK    7  A    between atoms: C_12  and  C_18
REMARK    8  A    between atoms: C_15  and  C_19
REMARK    9  A    between atoms: C_20  and  C_21
REMARK                            x       y       z     vdW  Elec       q    Type
REMARK                         _______ _______ _______ _____ _____    ______ ____
ROOT
ATOM      7  C   UNL     1     -11.241  -9.968  19.174  0.00  0.00    +0.000 C 
ATOM      8  C   UNL     1     -10.387 -11.137  18.622  0.00  0.00    +0.032 C 
ATOM      9  C   UNL     1     -12.200  -9.448  18.091  0.00  0.00    +0.012 C 
ATOM     10  C   UNL     1     -11.453  -8.959  16.837  0.00  0.00    +0.023 C 
ATOM     12  C   UNL     1     -10.398  -9.949  16.387  0.00  0.00    -0.073 C 
ATOM     13  C   UNL     1      -9.944 -10.924  17.194  0.00  0.00    -0.022 C 
ATOM     18  C   UNL     1      -9.910  -9.821  14.971  0.00  0.00    +0.039 C 
ENDROOT
BRANCH   7  11
ATOM     11  C   UNL     1     -12.035 -10.380  20.417  0.00  0.00    -0.013 C 
ATOM     16  C   UNL     1     -13.196  -9.419  20.649  0.00  0.00    +0.007 C 
ATOM     17  C   UNL     1     -12.540 -11.813  20.274  0.00  0.00    +0.007 C 
ENDBRANCH   7  11
BRANCH   8  14
ATOM     14  C   UNL     1      -9.160 -11.390  19.506  0.00  0.00    +0.112 C 
BRANCH  14   4
ATOM      2  O   UNL     1      -6.480 -11.355  20.537  0.00  0.00    -0.267 OA
ATOM      4  N   UNL     1      -7.955 -11.272  18.747  0.00  0.00    -0.308 N 
ATOM     20  C   UNL     1      -6.689 -11.264  19.329  0.00  0.00    +0.279 C 
ATOM     30  H   UNL     1      -8.022 -11.231  17.733  0.00  0.00    +0.149 HD
BRANCH  20  21
ATOM      3  O   UNL     1      -5.724 -10.379  17.273  0.00  0.00    -0.458 OA
ATOM     21  C   UNL     1      -5.537 -11.108  18.404  0.00  0.00    +0.189 A 
ATOM     23  C   UNL     1      -4.246 -11.580  18.467  0.00  0.00    +0.054 A 
ATOM     25  C   UNL     1      -3.599 -11.108  17.300  0.00  0.00    +0.042 A 
ATOM     26  C   UNL     1      -4.540 -10.384  16.607  0.00  0.00    +0.196 A 
ENDBRANCH  20  21
ENDBRANCH  14   4
ENDBRANCH   8  14
BRANCH  10  15
ATOM     15  C   UNL     1     -10.841  -7.571  17.064  0.00  0.00    +0.104 C 
BRANCH  15  19
ATOM      1  O   UNL     1     -10.374  -5.857  15.438  0.00  0.00    -0.275 OA
ATOM      5  N   UNL     1     -12.557  -6.695  15.662  0.00  0.00    -0.270 N 
ATOM      6  N   UNL     1     -14.605  -6.204  14.557  0.00  0.00    -0.240 NA
ATOM     19  C   UNL     1     -11.201  -6.598  15.959  0.00  0.00    +0.219 C 
ATOM     22  C   UNL     1     -13.282  -5.960  14.694  0.00  0.00    +0.125 A 
ATOM     24  C   UNL     1     -12.583  -5.030  13.941  0.00  0.00    +0.044 A 
ATOM     27  C   UNL     1     -13.288  -4.303  12.988  0.00  0.00    +0.005 A 
ATOM     28  C   UNL     1     -15.256  -5.478  13.621  0.00  0.00    +0.113 A 
ATOM     29  C   UNL     1     -14.649  -4.525  12.819  0.00  0.00    +0.020 A 
ATOM     31  H   UNL     1     -13.119  -7.363  16.184  0.00  0.00    +0.156 HD
ENDBRANCH  15  19
ENDBRANCH  10  15
TORSDOF 6
ENDMDL
MODEL 5
REMARK VINA RESULT:      -6.8     26.569     29.554
REMARK  Name = 38029504
REMARK  9 active torsions:
REMARK  status: ('A' for Active; 'I' for Inactive)
REMARK    1  A    between atoms: N_4  and  C_14
REMARK    2  A    between atoms: C_7  and  C_11
REMARK    3  A    between atoms: C_8  and  C_14
REMARK    4  A    between atoms: C_10  and  C_15
REMARK    5  A    between atoms: C_11  and  C_16
REMARK    6  A    between atoms: C_11  and  C_17
REMARK    7  A    between atoms: C_12  and  C_18
REMARK    8  A    between atoms: C_15  and  C_19
REMARK    9  A    between atoms: C_20  and  C_21
REMARK                            x       y       z     vdW  Elec       q    Type
REMARK                         _______ _______ _______ _____ _____    ______ ____
ROOT
ATOM      7  C   UNL     1      -3.190 -12.233  13.729  0.00  0.00    +0.000 C 
ATOM      8  C   UNL     1      -1.926 -11.398  14.051  0.00  0.00    +0.032 C 
ATOM      9  C   UNL     1      -3.271 -12.524  12.222  0.00  0.00    +0.012 C 
ATOM     10  C   UNL     1      -3.310 -11.234  11.382  0.00  0.00    +0.023 C 
ATOM     12  C   UNL     1      -2.253 -10.241  11.824  0.00  0.00    -0.073 C 
ATOM     13  C   UNL     1      -1.636 -10.339  13.014  0.00  0.00    -0.022 C 
ATOM     18  C   UNL     1      -1.889  -9.160  10.846  0.00  0.00    +0.039 C 
ENDROOT
BRANCH   7  11
ATOM     11  C   UNL     1      -3.219 -13.548  14.514  0.00  0.00    -0.013 C 
ATOM     16  C   UNL     1      -4.651 -13.907  14.898  0.00  0.00    +0.007 C 
ATOM     17  C   UNL     1      -2.582 -14.668  13.697  0.00  0.00    +0.007 C 
ENDBRANCH   7  11
BRANCH   8  14
ATOM     14  C   UNL     1      -2.032 -10.745  15.434  0.00  0.00    +0.112 C 
BRANCH  14   4
ATOM      2  O   UNL     1      -3.591 -11.423  17.747  0.00  0.00    -0.267 OA
ATOM      4  N   UNL     1      -3.378 -10.345  15.704  0.00  0.00    -0.308 N 
ATOM     20  C   UNL     1      -4.064 -10.720  16.858  0.00  0.00    +0.279 C 
ATOM     30  H   UNL     1      -3.842  -9.727  15.044  0.00  0.00    +0.149 HD
BRANCH  20  21
ATOM      3  O   UNL     1      -6.133 -10.512  18.130  0.00  0.00    -0.458 OA
ATOM     21  C   UNL     1      -5.466 -10.244  16.977  0.00  0.00    +0.189 A 
ATOM     23  C   UNL     1      -6.270  -9.547  16.104  0.00  0.00    +0.054 A 
ATOM     25  C   UNL     1      -7.509  -9.374  16.765  0.00  0.00    +0.042 A 
ATOM     26  C   UNL     1      -7.375  -9.979  17.993  0.00  0.00    +0.196 A 
ENDBRANCH  20  21
ENDBRANCH  14   4
ENDBRANCH   8  14
BRANCH  10  15
ATOM     15  C   UNL     1      -4.705 -10.598  11.408  0.00  0.00    +0.104 C 
BRANCH  15  19
ATOM      1  O   UNL     1      -6.097  -9.491   9.783  0.00  0.00    -0.275 OA
ATOM      5  N   UNL     1      -4.633 -11.198   9.103  0.00  0.00    -0.270 N 
ATOM      6  N   UNL     1      -4.158 -12.183   6.991  0.00  0.00    -0.240 NA
ATOM     19  C   UNL     1      -5.245 -10.343  10.015  0.00  0.00    +0.219 C 
ATOM     22  C   UNL     1      -4.859 -11.276   7.708  0.00  0.00    +0.125 A 
ATOM     24  C   UNL     1      -5.793 -10.410   7.163  0.00  0.00    +0.044 A 
ATOM     27  C   UNL     1      -6.022 -10.479   5.793  0.00  0.00    +0.005 A 
ATOM     28  C   UNL     1      -4.407 -12.221   5.663  0.00  0.00    +0.113 A 
ATOM     29  C   UNL     1      -5.321 -11.399   5.022  0.00  0.00    +0.020 A 
ATOM     31  H   UNL     1      -3.938 -11.856   9.449  0.00  0.00    +0.156 HD
ENDBRANCH  15  19
ENDBRANCH  10  15
TORSDOF 6
ENDMDL
MODEL 6
REMARK VINA RESULT:      -6.8     26.664     29.324
REMARK  Name = 38029504
REMARK  9 active torsions:
REMARK  status: ('A' for Active; 'I' for Inactive)
REMARK    1  A    between atoms: N_4  and  C_14
REMARK    2  A    between atoms: C_7  and  C_11
REMARK    3  A    between atoms: C_8  and  C_14
REMARK    4  A    between atoms: C_10  and  C_15
REMARK    5  A    between atoms: C_11  and  C_16
REMARK    6  A    between atoms: C_11  and  C_17
REMARK    7  A    between atoms: C_12  and  C_18
REMARK    8  A    between atoms: C_15  and  C_19
REMARK    9  A    between atoms: C_20  and  C_21
REMARK                            x       y       z     vdW  Elec       q    Type
REMARK                         _______ _______ _______ _____ _____    ______ ____
ROOT
ATOM      7  C   UNL     1      -3.065 -12.258  12.719  0.00  0.00    +0.000 C 
ATOM      8  C   UNL     1      -1.920 -11.217  12.782  0.00  0.00    +0.032 C 
ATOM      9  C   UNL     1      -3.476 -12.515  11.261  0.00  0.00    +0.012 C 
ATOM     10  C   UNL     1      -3.946 -11.230  10.554  0.00  0.00    +0.023 C 
ATOM     12  C   UNL     1      -2.995 -10.075  10.795  0.00  0.00    -0.073 C 
ATOM     13  C   UNL     1      -2.087 -10.092  11.786  0.00  0.00    -0.022 C 
ATOM     18  C   UNL     1      -3.081  -8.917   9.840  0.00  0.00    +0.039 C 
ENDROOT
BRANCH   7  11
ATOM     11  C   UNL     1      -2.670 -13.578  13.387  0.00  0.00    -0.013 C 
ATOM     16  C   UNL     1      -3.675 -13.947  14.474  0.00  0.00    +0.007 C 
ATOM     17  C   UNL     1      -2.567 -14.691  12.348  0.00  0.00    +0.007 C 
ENDBRANCH   7  11
BRANCH   8  14
ATOM     14  C   UNL     1      -1.780 -10.633  14.193  0.00  0.00    +0.112 C 
BRANCH  14   4
ATOM      2  O   UNL     1      -2.480 -10.953  16.959  0.00  0.00    -0.267 OA
ATOM      4  N   UNL     1      -3.064 -10.410  14.779  0.00  0.00    -0.308 N 
ATOM     20  C   UNL     1      -3.319 -10.589  16.138  0.00  0.00    +0.279 C 
ATOM     30  H   UNL     1      -3.815 -10.067  14.187  0.00  0.00    +0.149 HD
BRANCH  20  21
ATOM      3  O   UNL     1      -5.536  -9.653  15.753  0.00  0.00    -0.458 OA
ATOM     21  C   UNL     1      -4.713 -10.341  16.587  0.00  0.00    +0.189 A 
ATOM     23  C   UNL     1      -5.375 -10.688  17.742  0.00  0.00    +0.054 A 
ATOM     25  C   UNL     1      -6.690 -10.182  17.608  0.00  0.00    +0.042 A 
ATOM     26  C   UNL     1      -6.737  -9.561  16.382  0.00  0.00    +0.196 A 
ENDBRANCH  20  21
ENDBRANCH  14   4
ENDBRANCH   8  14
BRANCH  10  15
ATOM     15  C   UNL     1      -5.375 -10.861  10.969  0.00  0.00    +0.104 C 
BRANCH  15  19
ATOM      1  O   UNL     1      -6.681 -11.606   9.087  0.00  0.00    -0.275 OA
ATOM      5  N   UNL     1      -6.579  -9.318   9.609  0.00  0.00    -0.270 N 
ATOM      6  N   UNL     1      -7.553  -7.383   8.626  0.00  0.00    -0.240 NA
ATOM     19  C   UNL     1      -6.287 -10.669   9.774  0.00  0.00    +0.219 C 
ATOM     22  C   UNL     1      -7.393  -8.726   8.614  0.00  0.00    +0.125 A 
ATOM     24  C   UNL     1      -7.979  -9.568   7.684  0.00  0.00    +0.044 A 
ATOM     27  C   UNL     1      -8.781  -8.996   6.702  0.00  0.00    +0.005 A 
ATOM     28  C   UNL     1      -8.338  -6.864   7.657  0.00  0.00    +0.113 A 
ATOM     29  C   UNL     1      -8.969  -7.619   6.682  0.00  0.00    +0.020 A 
ATOM     31  H   UNL     1      -6.175  -8.653  10.266  0.00  0.00    +0.156 HD
ENDBRANCH  15  19
ENDBRANCH  10  15
TORSDOF 6
ENDMDL
MODEL 7
REMARK VINA RESULT:      -6.7     27.294     28.755
REMARK  Name = 38029504
REMARK  9 active torsions:
REMARK  status: ('A' for Active; 'I' for Inactive)
REMARK    1  A    between atoms: N_4  and  C_14
REMARK    2  A    between atoms: C_7  and  C_11
REMARK    3  A    between atoms: C_8  and  C_14
REMARK    4  A    between atoms: C_10  and  C_15
REMARK    5  A    between atoms: C_11  and  C_16
REMARK    6  A    between atoms: C_11  and  C_17
REMARK    7  A    between atoms: C_12  and  C_18
REMARK    8  A    between atoms: C_15  and  C_19
REMARK    9  A    between atoms: C_20  and  C_21
REMARK                            x       y       z     vdW  Elec       q    Type
REMARK                         _______ _______ _______ _____ _____    ______ ____
ROOT
ATOM      7  C   UNL     1      -5.707 -10.790  17.684  0.00  0.00    +0.000 C 
ATOM      8  C   UNL     1      -5.267 -11.398  16.329  0.00  0.00    +0.032 C 
ATOM      9  C   UNL     1      -7.199 -11.058  17.933  0.00  0.00    +0.012 C 
ATOM     10  C   UNL     1      -8.090 -10.472  16.822  0.00  0.00    +0.023 C 
ATOM     12  C   UNL     1      -7.563 -10.807  15.441  0.00  0.00    -0.073 C 
ATOM     13  C   UNL     1      -6.304 -11.233  15.242  0.00  0.00    -0.022 C 
ATOM     18  C   UNL     1      -8.533 -10.687  14.299  0.00  0.00    +0.039 C 
ENDROOT
BRANCH   7  11
ATOM     11  C   UNL     1      -4.879 -11.339  18.850  0.00  0.00    -0.013 C 
ATOM     16  C   UNL     1      -5.616 -11.134  20.169  0.00  0.00    +0.007 C 
ATOM     17  C   UNL     1      -4.566 -12.816  18.630  0.00  0.00    +0.007 C 
ENDBRANCH   7  11
BRANCH   8  14
ATOM     14  C   UNL     1      -3.935 -10.800  15.861  0.00  0.00    +0.112 C 
BRANCH  14   4
ATOM      2  O   UNL     1      -2.113 -11.408  13.727  0.00  0.00    -0.267 OA
ATOM      4  N   UNL     1      -4.028 -10.354  14.506  0.00  0.00    -0.308 N 
ATOM     20  C   UNL     1      -3.096 -10.698  13.528  0.00  0.00    +0.279 C 
ATOM     30  H   UNL     1      -4.831  -9.793  14.234  0.00  0.00    +0.149 HD
BRANCH  20  21
ATOM      3  O   UNL     1      -4.564  -9.676  11.872  0.00  0.00    -0.458 OA
ATOM     21  C   UNL     1      -3.320 -10.131  12.174  0.00  0.00    +0.189 A 
ATOM     23  C   UNL     1      -2.472  -9.965  11.103  0.00  0.00    +0.054 A 
ATOM     25  C   UNL     1      -3.245  -9.368  10.079  0.00  0.00    +0.042 A 
ATOM     26  C   UNL     1      -4.510  -9.213  10.596  0.00  0.00    +0.196 A 
ENDBRANCH  20  21
ENDBRANCH  14   4
ENDBRANCH   8  14
BRANCH  10  15
ATOM     15  C   UNL     1      -8.259  -8.957  16.991  0.00  0.00    +0.104 C 
BRANCH  15  19
ATOM      1  O   UNL     1     -10.577  -8.990  17.646  0.00  0.00    -0.275 OA
ATOM      5  N   UNL     1      -9.872  -7.578  15.906  0.00  0.00    -0.270 N 
ATOM      6  N   UNL     1     -11.014  -6.029  14.509  0.00  0.00    -0.240 NA
ATOM     19  C   UNL     1      -9.711  -8.530  16.909  0.00  0.00    +0.219 C 
ATOM     22  C   UNL     1     -11.068  -6.931  15.515  0.00  0.00    +0.125 A 
ATOM     24  C   UNL     1     -12.228  -7.267  16.193  0.00  0.00    +0.044 A 
ATOM     27  C   UNL     1     -13.408  -6.636  15.815  0.00  0.00    +0.005 A 
ATOM     28  C   UNL     1     -12.180  -5.437  14.170  0.00  0.00    +0.113 A 
ATOM     29  C   UNL     1     -13.392  -5.704  14.785  0.00  0.00    +0.020 A 
ATOM     31  H   UNL     1      -9.051  -7.293  15.375  0.00  0.00    +0.156 HD
ENDBRANCH  15  19
ENDBRANCH  10  15
TORSDOF 6
ENDMDL
MODEL 8
REMARK VINA RESULT:      -6.7      3.120      7.665
REMARK  Name = 38029504
REMARK  9 active torsions:
REMARK  status: ('A' for Active; 'I' for Inactive)
REMARK    1  A    between atoms: N_4  and  C_14
REMARK    2  A    between atoms: C_7  and  C_11
REMARK    3  A    between atoms: C_8  and  C_14
REMARK    4  A    between atoms: C_10  and  C_15
REMARK    5  A    between atoms: C_11  and  C_16
REMARK    6  A    between atoms: C_11  and  C_17
REMARK    7  A    between atoms: C_12  and  C_18
REMARK    8  A    between atoms: C_15  and  C_19
REMARK    9  A    between atoms: C_20  and  C_21
REMARK                            x       y       z     vdW  Elec       q    Type
REMARK                         _______ _______ _______ _____ _____    ______ ____
ROOT
ATOM      7  C   UNL     1      13.473   9.395  18.826  0.00  0.00    +0.000 C 
ATOM      8  C   UNL     1      12.688   8.082  19.074  0.00  0.00    +0.032 C 
ATOM      9  C   UNL     1      14.975   9.102  18.680  0.00  0.00    +0.012 C 
ATOM     10  C   UNL     1      15.558   8.412  19.928  0.00  0.00    +0.023 C 
ATOM     12  C   UNL     1      14.687   7.264  20.395  0.00  0.00    -0.073 C 
ATOM     13  C   UNL     1      13.411   7.125  19.992  0.00  0.00    -0.022 C 
ATOM     18  C   UNL     1      15.330   6.251  21.301  0.00  0.00    +0.039 C 
ENDROOT
BRANCH   7  11
ATOM     11  C   UNL     1      12.966  10.136  17.585  0.00  0.00    -0.013 C 
ATOM     16  C   UNL     1      13.910  11.278  17.224  0.00  0.00    +0.007 C 
ATOM     17  C   UNL     1      12.814   9.170  16.414  0.00  0.00    +0.007 C 
ENDBRANCH   7  11
BRANCH   8  14
ATOM     14  C   UNL     1      11.291   8.371  19.634  0.00  0.00    +0.112 C 
BRANCH  14   4
ATOM      2  O   UNL     1      10.570   8.273  22.411  0.00  0.00    -0.267 OA
ATOM      4  N   UNL     1      11.332   9.455  20.565  0.00  0.00    -0.308 N 
ATOM     20  C   UNL     1      10.964   9.320  21.903  0.00  0.00    +0.279 C 
ATOM     30  H   UNL     1      11.682  10.355  20.248  0.00  0.00    +0.149 HD
BRANCH  20  21
ATOM      3  O   UNL     1      10.923  10.412  24.082  0.00  0.00    -0.458 OA
ATOM     21  C   UNL     1      11.037  10.549  22.735  0.00  0.00    +0.189 A 
ATOM     23  C   UNL     1      11.206  11.871  22.396  0.00  0.00    +0.054 A 
ATOM     25  C   UNL     1      11.198  12.593  23.613  0.00  0.00    +0.042 A 
ATOM     26  C   UNL     1      11.023  11.660  24.609  0.00  0.00    +0.196 A 
ENDBRANCH  20  21
ENDBRANCH  14   4
ENDBRANCH   8  14
BRANCH  10  15
ATOM     15  C   UNL     1      15.790   9.421  21.059  0.00  0.00    +0.104 C 
BRANCH  15  19
ATOM      1  O   UNL     1      17.712  10.530  21.995  0.00  0.00    -0.275 OA
ATOM      5  N   UNL     1      17.946   8.407  21.018  0.00  0.00    -0.270 N 
ATOM      6  N   UNL     1      19.807   6.960  20.706  0.00  0.00    -0.240 NA
ATOM     19  C   UNL     1      17.255   9.545  21.424  0.00  0.00    +0.219 C 
ATOM     22  C   UNL     1      19.326   8.134  21.173  0.00  0.00    +0.125 A 
ATOM     24  C   UNL     1      20.102   9.096  21.798  0.00  0.00    +0.044 A 
ATOM     27  C   UNL     1      21.459   8.837  21.955  0.00  0.00    +0.005 A 
ATOM     28  C   UNL     1      21.130   6.743  20.876  0.00  0.00    +0.113 A 
ATOM     29  C   UNL     1      21.991   7.641  21.488  0.00  0.00    +0.020 A 
ATOM     31  H   UNL     1      17.425   7.667  20.552  0.00  0.00    +0.156 HD
ENDBRANCH  15  19
ENDBRANCH  10  15
TORSDOF 6
ENDMDL
MODEL 9
REMARK VINA RESULT:      -6.6     27.211     29.785
REMARK  Name = 38029504
REMARK  9 active torsions:
REMARK  status: ('A' for Active; 'I' for Inactive)
REMARK    1  A    between atoms: N_4  and  C_14
REMARK    2  A    between atoms: C_7  and  C_11
REMARK    3  A    between atoms: C_8  and  C_14
REMARK    4  A    between atoms: C_10  and  C_15
REMARK    5  A    between atoms: C_11  and  C_16
REMARK    6  A    between atoms: C_11  and  C_17
REMARK    7  A    between atoms: C_12  and  C_18
REMARK    8  A    between atoms: C_15  and  C_19
REMARK    9  A    between atoms: C_20  and  C_21
REMARK                            x       y       z     vdW  Elec       q    Type
REMARK                         _______ _______ _______ _____ _____    ______ ____
ROOT
ATOM      7  C   UNL     1      -7.463 -11.745  17.200  0.00  0.00    +0.000 C 
ATOM      8  C   UNL     1      -7.590 -12.109  18.701  0.00  0.00    +0.032 C 
ATOM      9  C   UNL     1      -6.225 -12.419  16.588  0.00  0.00    +0.012 C 
ATOM     10  C   UNL     1      -4.924 -12.008  17.303  0.00  0.00    +0.023 C 
ATOM     12  C   UNL     1      -5.061 -12.085  18.810  0.00  0.00    -0.073 C 
ATOM     13  C   UNL     1      -6.260 -12.143  19.416  0.00  0.00    -0.022 C 
ATOM     18  C   UNL     1      -3.786 -12.140  19.604  0.00  0.00    +0.039 C 
ENDROOT
BRANCH   7  11
ATOM     11  C   UNL     1      -8.713 -12.141  16.410  0.00  0.00    -0.013 C 
ATOM     16  C   UNL     1      -8.854 -11.273  15.164  0.00  0.00    +0.007 C 
ATOM     17  C   UNL     1      -8.659 -13.619  16.035  0.00  0.00    +0.007 C 
ENDBRANCH   7  11
BRANCH   8  14
ATOM     14  C   UNL     1      -8.536 -11.144  19.425  0.00  0.00    +0.112 C 
BRANCH  14   4
ATOM      2  O   UNL     1     -11.202 -10.128  19.106  0.00  0.00    -0.267 OA
ATOM      4  N   UNL     1      -8.949 -10.088  18.554  0.00  0.00    -0.308 N 
ATOM     20  C   UNL     1     -10.270  -9.654  18.461  0.00  0.00    +0.279 C 
ATOM     30  H   UNL     1      -8.241  -9.606  18.007  0.00  0.00    +0.149 HD
BRANCH  20  21
ATOM      3  O   UNL     1     -11.836  -8.263  17.215  0.00  0.00    -0.458 OA
ATOM     21  C   UNL     1     -10.540  -8.564  17.489  0.00  0.00    +0.189 A 
ATOM     23  C   UNL     1      -9.693  -7.753  16.769  0.00  0.00    +0.054 A 
ATOM     25  C   UNL     1     -10.523  -6.897  16.006  0.00  0.00    +0.042 A 
ATOM     26  C   UNL     1     -11.817  -7.247  16.313  0.00  0.00    +0.196 A 
ENDBRANCH  20  21
ENDBRANCH  14   4
ENDBRANCH   8  14
BRANCH  10  15
ATOM     15  C   UNL     1      -4.471 -10.610  16.864  0.00  0.00    +0.104 C 
BRANCH  15  19
ATOM      1  O   UNL     1      -2.412 -10.925  15.652  0.00  0.00    -0.275 OA
ATOM      5  N   UNL     1      -4.375 -10.347  14.498  0.00  0.00    -0.270 N 
ATOM      6  N   UNL     1      -4.853  -9.963  12.200  0.00  0.00    -0.240 NA
ATOM     19  C   UNL     1      -3.608 -10.653  15.618  0.00  0.00    +0.219 C 
ATOM     22  C   UNL     1      -3.945 -10.280  13.151  0.00  0.00    +0.125 A 
ATOM     24  C   UNL     1      -2.611 -10.548  12.891  0.00  0.00    +0.044 A 
ATOM     27  C   UNL     1      -2.180 -10.485  11.571  0.00  0.00    +0.005 A 
ATOM     28  C   UNL     1      -4.397  -9.911  10.929  0.00  0.00    +0.113 A 
ATOM     29  C   UNL     1      -3.083 -10.161  10.565  0.00  0.00    +0.020 A 
ATOM     31  H   UNL     1      -5.363 -10.142  14.630  0.00  0.00    +0.156 HD
ENDBRANCH  15  19
ENDBRANCH  10  15
TORSDOF 6
ENDMDL
MODEL 10
REMARK VINA RESULT:      -6.6     27.025     29.808
REMARK  Name = 38029504
REMARK  9 active torsions:
REMARK  status: ('A' for Active; 'I' for Inactive)
REMARK    1  A    between atoms: N_4  and  C_14
REMARK    2  A    between atoms: C_7  and  C_11
REMARK    3  A    between atoms: C_8  and  C_14
REMARK    4  A    between atoms: C_10  and  C_15
REMARK    5  A    between atoms: C_11  and  C_16
REMARK    6  A    between atoms: C_11  and  C_17
REMARK    7  A    between atoms: C_12  and  C_18
REMARK    8  A    between atoms: C_15  and  C_19
REMARK    9  A    between atoms: C_20  and  C_21
REMARK                            x       y       z     vdW  Elec       q    Type
REMARK                         _______ _______ _______ _____ _____    ______ ____
ROOT
ATOM      7  C   UNL     1      -6.318 -13.247  16.521  0.00  0.00    +0.000 C 
ATOM      8  C   UNL     1      -7.350 -13.462  17.656  0.00  0.00    +0.032 C 
ATOM      9  C   UNL     1      -4.910 -13.056  17.107  0.00  0.00    +0.012 C 
ATOM     10  C   UNL     1      -4.836 -11.855  18.068  0.00  0.00    +0.023 C 
ATOM     12  C   UNL     1      -5.985 -11.853  19.056  0.00  0.00    -0.073 C 
ATOM     13  C   UNL     1      -7.094 -12.588  18.862  0.00  0.00    -0.022 C 
ATOM     18  C   UNL     1      -5.810 -11.022  20.296  0.00  0.00    +0.039 C 
ENDROOT
BRANCH   7  11
ATOM     11  C   UNL     1      -6.313 -14.411  15.527  0.00  0.00    -0.013 C 
ATOM     16  C   UNL     1      -5.226 -14.211  14.477  0.00  0.00    +0.007 C 
ATOM     17  C   UNL     1      -6.118 -15.735  16.260  0.00  0.00    +0.007 C 
ENDBRANCH   7  11
BRANCH   8  14
ATOM     14  C   UNL     1      -8.780 -13.233  17.153  0.00  0.00    +0.112 C 
BRANCH  14   4
ATOM      2  O   UNL     1      -9.357 -11.440  14.986  0.00  0.00    -0.267 OA
ATOM      4  N   UNL     1      -9.141 -11.855  17.259  0.00  0.00    -0.308 N 
ATOM     20  C   UNL     1      -9.407 -11.052  16.151  0.00  0.00    +0.279 C 
ATOM     30  H   UNL     1      -9.248 -11.451  18.186  0.00  0.00    +0.149 HD
BRANCH  20  21
ATOM      3  O   UNL     1      -9.523  -8.722  15.444  0.00  0.00    -0.458 OA
ATOM     21  C   UNL     1      -9.743  -9.632  16.429  0.00  0.00    +0.189 A 
ATOM     23  C   UNL     1     -10.261  -9.019  17.546  0.00  0.00    +0.054 A 
ATOM     25  C   UNL     1     -10.368  -7.645  17.226  0.00  0.00    +0.042 A 
ATOM     26  C   UNL     1      -9.907  -7.516  15.937  0.00  0.00    +0.196 A 
ENDBRANCH  20  21
ENDBRANCH  14   4
ENDBRANCH   8  14
BRANCH  10  15
ATOM     15  C   UNL     1      -4.773 -10.532  17.297  0.00  0.00    +0.104 C 
BRANCH  15  19
ATOM      1  O   UNL     1      -2.564 -10.726  16.357  0.00  0.00    -0.275 OA
ATOM      5  N   UNL     1      -4.415 -10.423  14.943  0.00  0.00    -0.270 N 
ATOM      6  N   UNL     1      -4.643 -10.247  12.582  0.00  0.00    -0.240 NA
ATOM     19  C   UNL     1      -3.766 -10.575  16.165  0.00  0.00    +0.219 C 
ATOM     22  C   UNL     1      -3.833 -10.408  13.653  0.00  0.00    +0.125 A 
ATOM     24  C   UNL     1      -2.459 -10.560  13.570  0.00  0.00    +0.044 A 
ATOM     27  C   UNL     1      -1.878 -10.547  12.307  0.00  0.00    +0.005 A 
ATOM     28  C   UNL     1      -4.043 -10.238  11.372  0.00  0.00    +0.113 A 
ATOM     29  C   UNL     1      -2.678 -10.382  11.182  0.00  0.00    +0.020 A 
ATOM     31  H   UNL     1      -5.426 -10.308  14.945  0.00  0.00    +0.156 HD
ENDBRANCH  15  19
ENDBRANCH  10  15
TORSDOF 6
ENDMDL
