MODEL 1
REMARK VINA RESULT:      -6.6      0.000      0.000
REMARK  Name = 38026845
REMARK  13 active torsions:
REMARK  status: ('A' for Active; 'I' for Inactive)
REMARK    1  A    between atoms: S_1  and  N_7
REMARK    2  A    between atoms: S_1  and  C_28
REMARK    3  A    between atoms: N_7  and  C_18
REMARK    4  A    between atoms: N_10  and  C_35
REMARK    5  A    between atoms: C_11  and  C_15
REMARK    6  A    between atoms: C_12  and  C_18
REMARK    7  A    between atoms: C_14  and  C_19
REMARK    8  A    between atoms: C_15  and  C_20
REMARK    9  A    between atoms: C_15  and  C_21
REMARK   10  A    between atoms: C_16  and  C_22
REMARK   11  A    between atoms: C_19  and  C_23
REMARK   12  A    between atoms: C_29  and  C_32
REMARK   13  A    between atoms: C_36  and  C_37
REMARK                            x       y       z     vdW  Elec       q    Type
REMARK                         _______ _______ _______ _____ _____    ______ ____
ROOT
ATOM     11  C   UNL     1      -4.203 -11.871  11.926  0.00  0.00    +0.000 C 
ATOM     12  C   UNL     1      -3.087 -11.024  11.265  0.00  0.00    +0.030 C 
ATOM     13  C   UNL     1      -5.535 -11.675  11.184  0.00  0.00    +0.012 C 
ATOM     14  C   UNL     1      -5.984 -10.202  11.172  0.00  0.00    +0.023 C 
ATOM     16  C   UNL     1      -4.851  -9.272  10.787  0.00  0.00    -0.073 C 
ATOM     17  C   UNL     1      -3.564  -9.661  10.822  0.00  0.00    -0.023 C 
ATOM     22  C   UNL     1      -5.235  -7.897  10.316  0.00  0.00    +0.039 C 
ENDROOT
BRANCH  11  15
ATOM     15  C   UNL     1      -3.842 -13.360  11.959  0.00  0.00    -0.013 C 
ATOM     20  C   UNL     1      -4.894 -14.144  12.737  0.00  0.00    +0.007 C 
ATOM     21  C   UNL     1      -3.700 -13.905  10.542  0.00  0.00    +0.007 C 
ENDBRANCH  11  15
BRANCH  12  18
ATOM     18  C   UNL     1      -1.886 -10.864  12.204  0.00  0.00    +0.113 C 
BRANCH  18   7
ATOM      7  N   UNL     1      -2.366 -10.454  13.534  0.00  0.00    -0.189 NA
ATOM     38  H   UNL     1      -2.607  -9.463  13.655  0.00  0.00    +0.148 HD
BRANCH   7   1
ATOM      1  S   UNL     1      -1.903 -11.332  14.919  0.00  0.00    +0.058 S 
ATOM      3  O   UNL     1      -0.980 -10.535  15.704  0.00  0.00    -0.153 OA
ATOM      4  O   UNL     1      -1.551 -12.683  14.530  0.00  0.00    -0.153 OA
BRANCH   1  28
ATOM     28  C   UNL     1      -3.428 -11.432  15.808  0.00  0.00    +0.105 A 
ATOM     30  C   UNL     1      -3.891 -10.329  16.524  0.00  0.00    +0.030 A 
ATOM     31  C   UNL     1      -4.167 -12.614  15.793  0.00  0.00    +0.030 A 
ATOM     33  C   UNL     1      -5.094 -10.408  17.226  0.00  0.00    +0.025 A 
ATOM     34  C   UNL     1      -5.370 -12.693  16.495  0.00  0.00    +0.025 A 
ATOM     35  C   UNL     1      -5.834 -11.590  17.211  0.00  0.00    +0.033 A 
BRANCH  35  10
ATOM      6  O   UNL     1      -6.399 -11.344  20.158  0.00  0.00    -0.276 OA
ATOM     10  N   UNL     1      -7.037 -11.669  17.912  0.00  0.00    -0.286 N 
ATOM     36  C   UNL     1      -7.243 -11.548  19.293  0.00  0.00    +0.214 C 
ATOM     37  C   UNL     1      -8.700 -11.696  19.656  0.00  0.00    +0.109 C 
ATOM     39  H   UNL     1      -7.862 -11.836  17.341  0.00  0.00    +0.155 HD
ENDBRANCH  35  10
ENDBRANCH   1  28
ENDBRANCH   7   1
ENDBRANCH  18   7
ENDBRANCH  12  18
BRANCH  14  19
ATOM     19  C   UNL     1      -6.590  -9.798  12.520  0.00  0.00    +0.103 C 
BRANCH  19  23
ATOM      2  O   UNL     1      -8.572  -9.454  11.267  0.00  0.00    -0.276 OA
ATOM      5  O   UNL     1     -10.487  -9.174  18.147  0.00  0.00    -0.276 OA
ATOM      8  N   UNL     1      -8.829  -9.721  13.560  0.00  0.00    -0.298 N 
ATOM      9  N   UNL     1     -10.224  -8.842  15.863  0.00  0.00    -0.299 N 
ATOM     23  C   UNL     1      -8.084  -9.642  12.384  0.00  0.00    +0.216 C 
ATOM     24  C   UNL     1     -10.286  -9.577  13.513  0.00  0.00    +0.126 C 
ATOM     25  C   UNL     1      -8.287 -10.018  14.892  0.00  0.00    +0.126 C 
ATOM     26  C   UNL     1     -10.766  -8.546  14.531  0.00  0.00    +0.126 C 
ATOM     27  C   UNL     1      -8.767  -8.985  15.910  0.00  0.00    +0.126 C 
ATOM     29  C   UNL     1     -10.968  -8.924  17.039  0.00  0.00    +0.213 C 
ATOM     32  C   UNL     1     -12.452  -8.688  16.915  0.00  0.00    +0.109 C 
ENDBRANCH  19  23
ENDBRANCH  14  19
TORSDOF 8
ENDMDL
MODEL 2
REMARK VINA RESULT:      -6.4     24.228     28.184
REMARK  Name = 38026845
REMARK  13 active torsions:
REMARK  status: ('A' for Active; 'I' for Inactive)
REMARK    1  A    between atoms: S_1  and  N_7
REMARK    2  A    between atoms: S_1  and  C_28
REMARK    3  A    between atoms: N_7  and  C_18
REMARK    4  A    between atoms: N_10  and  C_35
REMARK    5  A    between atoms: C_11  and  C_15
REMARK    6  A    between atoms: C_12  and  C_18
REMARK    7  A    between atoms: C_14  and  C_19
REMARK    8  A    between atoms: C_15  and  C_20
REMARK    9  A    between atoms: C_15  and  C_21
REMARK   10  A    between atoms: C_16  and  C_22
REMARK   11  A    between atoms: C_19  and  C_23
REMARK   12  A    between atoms: C_29  and  C_32
REMARK   13  A    between atoms: C_36  and  C_37
REMARK                            x       y       z     vdW  Elec       q    Type
REMARK                         _______ _______ _______ _____ _____    ______ ____
ROOT
ATOM     11  C   UNL     1      10.376   6.685   0.733  0.00  0.00    +0.000 C 
ATOM     12  C   UNL     1       9.405   7.299   1.772  0.00  0.00    +0.030 C 
ATOM     13  C   UNL     1      10.471   5.162   0.923  0.00  0.00    +0.012 C 
ATOM     14  C   UNL     1      10.959   4.780   2.333  0.00  0.00    +0.023 C 
ATOM     16  C   UNL     1      10.225   5.553   3.411  0.00  0.00    -0.073 C 
ATOM     17  C   UNL     1       9.526   6.669   3.139  0.00  0.00    -0.023 C 
ATOM     22  C   UNL     1      10.277   4.988   4.803  0.00  0.00    +0.039 C 
ENDROOT
BRANCH  11  15
ATOM     15  C   UNL     1       9.948   7.003  -0.704  0.00  0.00    -0.013 C 
ATOM     20  C   UNL     1      11.095   7.657  -1.467  0.00  0.00    +0.007 C 
ATOM     21  C   UNL     1       9.480   5.736  -1.412  0.00  0.00    +0.007 C 
ENDBRANCH  11  15
BRANCH  12  18
ATOM     18  C   UNL     1       9.608   8.814   1.888  0.00  0.00    +0.113 C 
BRANCH  18   7
ATOM      7  N   UNL     1      10.519   9.093   3.010  0.00  0.00    -0.189 NA
ATOM     38  H   UNL     1      11.198   8.361   3.249  0.00  0.00    +0.148 HD
BRANCH   7   1
ATOM      1  S   UNL     1      10.057  10.176   4.241  0.00  0.00    +0.058 S 
ATOM      3  O   UNL     1       8.806  10.812   3.874  0.00  0.00    -0.153 OA
ATOM      4  O   UNL     1      11.201  10.982   4.619  0.00  0.00    -0.153 OA
BRANCH   1  28
ATOM     28  C   UNL     1       9.734   9.075   5.586  0.00  0.00    +0.105 A 
ATOM     30  C   UNL     1      10.721   8.831   6.540  0.00  0.00    +0.030 A 
ATOM     31  C   UNL     1       8.492   8.450   5.693  0.00  0.00    +0.030 A 
ATOM     33  C   UNL     1      10.467   7.962   7.601  0.00  0.00    +0.025 A 
ATOM     34  C   UNL     1       8.237   7.582   6.754  0.00  0.00    +0.025 A 
ATOM     35  C   UNL     1       9.224   7.337   7.708  0.00  0.00    +0.033 A 
BRANCH  35  10
ATOM      6  O   UNL     1      10.312   4.591   8.291  0.00  0.00    -0.276 OA
ATOM     10  N   UNL     1       8.969   6.469   8.769  0.00  0.00    -0.286 N 
ATOM     36  C   UNL     1       9.505   5.194   8.991  0.00  0.00    +0.214 C 
ATOM     37  C   UNL     1       8.973   4.576  10.261  0.00  0.00    +0.109 C 
ATOM     39  H   UNL     1       8.310   6.814   9.464  0.00  0.00    +0.155 HD
ENDBRANCH  35  10
ENDBRANCH   1  28
ENDBRANCH   7   1
ENDBRANCH  18   7
ENDBRANCH  12  18
BRANCH  14  19
ATOM     19  C   UNL     1      12.474   4.965   2.462  0.00  0.00    +0.103 C 
BRANCH  19  23
ATOM      2  O   UNL     1      12.975   2.852   1.511  0.00  0.00    -0.276 OA
ATOM      5  O   UNL     1      17.518   7.505  -1.457  0.00  0.00    -0.276 OA
ATOM      8  N   UNL     1      14.053   4.689   0.583  0.00  0.00    -0.298 N 
ATOM      9  N   UNL     1      16.490   5.662  -0.486  0.00  0.00    -0.299 N 
ATOM     23  C   UNL     1      13.185   4.067   1.479  0.00  0.00    +0.216 C 
ATOM     24  C   UNL     1      14.784   3.887  -0.401  0.00  0.00    +0.126 C 
ATOM     25  C   UNL     1      14.268   6.137   0.470  0.00  0.00    +0.126 C 
ATOM     26  C   UNL     1      16.275   4.214  -0.374  0.00  0.00    +0.126 C 
ATOM     27  C   UNL     1      15.759   6.463   0.499  0.00  0.00    +0.126 C 
ATOM     29  C   UNL     1      17.356   6.284  -1.384  0.00  0.00    +0.213 C 
ATOM     32  C   UNL     1      18.127   5.380  -2.312  0.00  0.00    +0.109 C 
ENDBRANCH  19  23
ENDBRANCH  14  19
TORSDOF 8
ENDMDL
MODEL 3
REMARK VINA RESULT:      -6.3      3.276      7.313
REMARK  Name = 38026845
REMARK  13 active torsions:
REMARK  status: ('A' for Active; 'I' for Inactive)
REMARK    1  A    between atoms: S_1  and  N_7
REMARK    2  A    between atoms: S_1  and  C_28
REMARK    3  A    between atoms: N_7  and  C_18
REMARK    4  A    between atoms: N_10  and  C_35
REMARK    5  A    between atoms: C_11  and  C_15
REMARK    6  A    between atoms: C_12  and  C_18
REMARK    7  A    between atoms: C_14  and  C_19
REMARK    8  A    between atoms: C_15  and  C_20
REMARK    9  A    between atoms: C_15  and  C_21
REMARK   10  A    between atoms: C_16  and  C_22
REMARK   11  A    between atoms: C_19  and  C_23
REMARK   12  A    between atoms: C_29  and  C_32
REMARK   13  A    between atoms: C_36  and  C_37
REMARK                            x       y       z     vdW  Elec       q    Type
REMARK                         _______ _______ _______ _____ _____    ______ ____
ROOT
ATOM     11  C   UNL     1     -11.529 -11.142  18.348  0.00  0.00    +0.000 C 
ATOM     12  C   UNL     1      -9.987 -11.002  18.329  0.00  0.00    +0.030 C 
ATOM     13  C   UNL     1     -12.102 -10.960  16.933  0.00  0.00    +0.012 C 
ATOM     14  C   UNL     1     -11.744  -9.587  16.332  0.00  0.00    +0.023 C 
ATOM     16  C   UNL     1     -10.276  -9.257  16.517  0.00  0.00    -0.073 C 
ATOM     17  C   UNL     1      -9.504  -9.909  17.404  0.00  0.00    -0.023 C 
ATOM     22  C   UNL     1      -9.705  -8.191  15.624  0.00  0.00    +0.039 C 
ENDROOT
BRANCH  11  15
ATOM     15  C   UNL     1     -11.970 -12.496  18.915  0.00  0.00    -0.013 C 
ATOM     20  C   UNL     1     -13.452 -12.731  18.638  0.00  0.00    +0.007 C 
ATOM     21  C   UNL     1     -11.125 -13.620  18.326  0.00  0.00    +0.007 C 
ENDBRANCH  11  15
BRANCH  12  18
ATOM     18  C   UNL     1      -9.437 -10.757  19.739  0.00  0.00    +0.113 C 
BRANCH  18   7
ATOM      7  N   UNL     1      -8.005 -10.433  19.648  0.00  0.00    -0.189 NA
ATOM     38  H   UNL     1      -7.754  -9.582  19.130  0.00  0.00    +0.148 HD
BRANCH   7   1
ATOM      1  S   UNL     1      -6.837 -11.670  19.750  0.00  0.00    +0.058 S 
ATOM      3  O   UNL     1      -7.501 -12.958  19.707  0.00  0.00    -0.153 OA
ATOM      4  O   UNL     1      -5.912 -11.362  20.824  0.00  0.00    -0.153 OA
BRANCH   1  28
ATOM     28  C   UNL     1      -5.956 -11.460  18.233  0.00  0.00    +0.105 A 
ATOM     30  C   UNL     1      -5.341 -12.556  17.627  0.00  0.00    +0.030 A 
ATOM     31  C   UNL     1      -5.874 -10.200  17.642  0.00  0.00    +0.030 A 
ATOM     33  C   UNL     1      -4.645 -12.390  16.429  0.00  0.00    +0.025 A 
ATOM     34  C   UNL     1      -5.178 -10.035  16.445  0.00  0.00    +0.025 A 
ATOM     35  C   UNL     1      -4.563 -11.130  15.838  0.00  0.00    +0.033 A 
BRANCH  35  10
ATOM      6  O   UNL     1      -1.710 -10.313  15.332  0.00  0.00    -0.276 OA
ATOM     10  N   UNL     1      -3.867 -10.965  14.641  0.00  0.00    -0.286 N 
ATOM     36  C   UNL     1      -2.533 -10.578  14.462  0.00  0.00    +0.214 C 
ATOM     37  C   UNL     1      -2.159 -10.516  13.002  0.00  0.00    +0.109 C 
ATOM     39  H   UNL     1      -4.406 -11.150  13.797  0.00  0.00    +0.155 HD
ENDBRANCH  35  10
ENDBRANCH   1  28
ENDBRANCH   7   1
ENDBRANCH  18   7
ENDBRANCH  12  18
BRANCH  14  19
ATOM     19  C   UNL     1     -12.631  -8.482  16.914  0.00  0.00    +0.103 C 
BRANCH  19  23
ATOM      2  O   UNL     1     -14.672  -8.974  15.813  0.00  0.00    -0.276 OA
ATOM      5  O   UNL     1     -12.089  -3.087  12.690  0.00  0.00    -0.276 OA
ATOM      8  N   UNL     1     -13.664  -6.953  15.272  0.00  0.00    -0.298 N 
ATOM      9  N   UNL     1     -13.063  -5.137  13.182  0.00  0.00    -0.299 N 
ATOM     23  C   UNL     1     -13.751  -8.166  15.953  0.00  0.00    +0.216 C 
ATOM     24  C   UNL     1     -14.710  -6.573  14.319  0.00  0.00    +0.126 C 
ATOM     25  C   UNL     1     -12.622  -5.937  15.472  0.00  0.00    +0.126 C 
ATOM     26  C   UNL     1     -14.105  -6.153  12.983  0.00  0.00    +0.126 C 
ATOM     27  C   UNL     1     -12.016  -5.518  14.134  0.00  0.00    +0.126 C 
ATOM     29  C   UNL     1     -12.976  -3.923  12.503  0.00  0.00    +0.213 C 
ATOM     32  C   UNL     1     -14.052  -3.643  11.484  0.00  0.00    +0.109 C 
ENDBRANCH  19  23
ENDBRANCH  14  19
TORSDOF 8
ENDMDL
MODEL 4
REMARK VINA RESULT:      -6.3      2.975      4.558
REMARK  Name = 38026845
REMARK  13 active torsions:
REMARK  status: ('A' for Active; 'I' for Inactive)
REMARK    1  A    between atoms: S_1  and  N_7
REMARK    2  A    between atoms: S_1  and  C_28
REMARK    3  A    between atoms: N_7  and  C_18
REMARK    4  A    between atoms: N_10  and  C_35
REMARK    5  A    between atoms: C_11  and  C_15
REMARK    6  A    between atoms: C_12  and  C_18
REMARK    7  A    between atoms: C_14  and  C_19
REMARK    8  A    between atoms: C_15  and  C_20
REMARK    9  A    between atoms: C_15  and  C_21
REMARK   10  A    between atoms: C_16  and  C_22
REMARK   11  A    between atoms: C_19  and  C_23
REMARK   12  A    between atoms: C_29  and  C_32
REMARK   13  A    between atoms: C_36  and  C_37
REMARK                            x       y       z     vdW  Elec       q    Type
REMARK                         _______ _______ _______ _____ _____    ______ ____
ROOT
ATOM     11  C   UNL     1      -3.059 -13.433  12.511  0.00  0.00    +0.000 C 
ATOM     12  C   UNL     1      -1.855 -12.495  12.782  0.00  0.00    +0.030 C 
ATOM     13  C   UNL     1      -3.540 -13.282  11.059  0.00  0.00    +0.012 C 
ATOM     14  C   UNL     1      -3.965 -11.837  10.734  0.00  0.00    +0.023 C 
ATOM     16  C   UNL     1      -2.943 -10.828  11.218  0.00  0.00    -0.073 C 
ATOM     17  C   UNL     1      -2.000 -11.144  12.123  0.00  0.00    -0.023 C 
ATOM     22  C   UNL     1      -3.000  -9.457  10.602  0.00  0.00    +0.039 C 
ENDROOT
BRANCH  11  15
ATOM     15  C   UNL     1      -2.712 -14.899  12.792  0.00  0.00    -0.013 C 
ATOM     20  C   UNL     1      -3.875 -15.596  13.490  0.00  0.00    +0.007 C 
ATOM     21  C   UNL     1      -2.349 -15.618  11.496  0.00  0.00    +0.007 C 
ENDBRANCH  11  15
BRANCH  12  18
ATOM     18  C   UNL     1      -1.629 -12.309  14.286  0.00  0.00    +0.113 C 
BRANCH  18   7
ATOM      7  N   UNL     1      -2.920 -12.415  14.984  0.00  0.00    -0.189 NA
ATOM     38  H   UNL     1      -3.512 -13.219  14.744  0.00  0.00    +0.148 HD
BRANCH   7   1
ATOM      1  S   UNL     1      -3.687 -11.017  15.585  0.00  0.00    +0.058 S 
ATOM      3  O   UNL     1      -4.421 -10.375  14.512  0.00  0.00    -0.153 OA
ATOM      4  O   UNL     1      -2.738 -10.258  16.376  0.00  0.00    -0.153 OA
BRANCH   1  28
ATOM     28  C   UNL     1      -4.862 -11.707  16.711  0.00  0.00    +0.105 A 
ATOM     30  C   UNL     1      -4.989 -11.180  17.996  0.00  0.00    +0.030 A 
ATOM     31  C   UNL     1      -5.662 -12.778  16.315  0.00  0.00    +0.030 A 
ATOM     33  C   UNL     1      -5.917 -11.724  18.884  0.00  0.00    +0.025 A 
ATOM     34  C   UNL     1      -6.589 -13.323  17.203  0.00  0.00    +0.025 A 
ATOM     35  C   UNL     1      -6.717 -12.796  18.489  0.00  0.00    +0.033 A 
BRANCH  35  10
ATOM      6  O   UNL     1      -9.505 -11.905  19.192  0.00  0.00    -0.276 OA
ATOM     10  N   UNL     1      -7.644 -13.340  19.377  0.00  0.00    -0.286 N 
ATOM     36  C   UNL     1      -8.935 -12.881  19.669  0.00  0.00    +0.214 C 
ATOM     37  C   UNL     1      -9.621 -13.753  20.691  0.00  0.00    +0.109 C 
ATOM     39  H   UNL     1      -7.334 -14.175  19.870  0.00  0.00    +0.155 HD
ENDBRANCH  35  10
ENDBRANCH   1  28
ENDBRANCH   7   1
ENDBRANCH  18   7
ENDBRANCH  12  18
BRANCH  14  19
ATOM     19  C   UNL     1      -5.352 -11.527  11.305  0.00  0.00    +0.103 C 
BRANCH  19  23
ATOM      2  O   UNL     1      -6.672 -12.784   9.790  0.00  0.00    -0.276 OA
ATOM      5  O   UNL     1      -7.774  -5.910   8.171  0.00  0.00    -0.276 OA
ATOM      8  N   UNL     1      -6.982 -10.482   9.772  0.00  0.00    -0.298 N 
ATOM      9  N   UNL     1      -7.417  -8.205   8.143  0.00  0.00    -0.299 N 
ATOM     23  C   UNL     1      -6.394 -11.663  10.222  0.00  0.00    +0.216 C 
ATOM     24  C   UNL     1      -8.000 -10.528   8.720  0.00  0.00    +0.126 C 
ATOM     25  C   UNL     1      -6.728  -9.142  10.316  0.00  0.00    +0.126 C 
ATOM     26  C   UNL     1      -7.672  -9.545   7.599  0.00  0.00    +0.126 C 
ATOM     27  C   UNL     1      -6.398  -8.160   9.195  0.00  0.00    +0.126 C 
ATOM     29  C   UNL     1      -8.007  -7.024   7.695  0.00  0.00    +0.213 C 
ATOM     32  C   UNL     1      -8.988  -7.151   6.557  0.00  0.00    +0.109 C 
ENDBRANCH  19  23
ENDBRANCH  14  19
TORSDOF 8
ENDMDL
MODEL 5
REMARK VINA RESULT:      -6.3     24.646     27.516
REMARK  Name = 38026845
REMARK  13 active torsions:
REMARK  status: ('A' for Active; 'I' for Inactive)
REMARK    1  A    between atoms: S_1  and  N_7
REMARK    2  A    between atoms: S_1  and  C_28
REMARK    3  A    between atoms: N_7  and  C_18
REMARK    4  A    between atoms: N_10  and  C_35
REMARK    5  A    between atoms: C_11  and  C_15
REMARK    6  A    between atoms: C_12  and  C_18
REMARK    7  A    between atoms: C_14  and  C_19
REMARK    8  A    between atoms: C_15  and  C_20
REMARK    9  A    between atoms: C_15  and  C_21
REMARK   10  A    between atoms: C_16  and  C_22
REMARK   11  A    between atoms: C_19  and  C_23
REMARK   12  A    between atoms: C_29  and  C_32
REMARK   13  A    between atoms: C_36  and  C_37
REMARK                            x       y       z     vdW  Elec       q    Type
REMARK                         _______ _______ _______ _____ _____    ______ ____
ROOT
ATOM     11  C   UNL     1       9.731   6.625   6.591  0.00  0.00    +0.000 C 
ATOM     12  C   UNL     1       9.236   5.912   5.308  0.00  0.00    +0.030 C 
ATOM     13  C   UNL     1       8.692   7.650   7.070  0.00  0.00    +0.012 C 
ATOM     14  C   UNL     1       8.394   8.720   6.002  0.00  0.00    +0.023 C 
ATOM     16  C   UNL     1       8.158   8.103   4.638  0.00  0.00    -0.073 C 
ATOM     17  C   UNL     1       8.530   6.842   4.351  0.00  0.00    -0.023 C 
ATOM     22  C   UNL     1       7.444   8.953   3.625  0.00  0.00    +0.039 C 
ENDROOT
BRANCH  11  15
ATOM     15  C   UNL     1      10.032   5.628   7.715  0.00  0.00    -0.013 C 
ATOM     20  C   UNL     1      11.449   5.831   8.242  0.00  0.00    +0.007 C 
ATOM     21  C   UNL     1       9.011   5.770   8.840  0.00  0.00    +0.007 C 
ENDBRANCH  11  15
BRANCH  12  18
ATOM     18  C   UNL     1      10.393   5.215   4.582  0.00  0.00    +0.113 C 
BRANCH  18   7
ATOM      7  N   UNL     1      11.614   6.020   4.739  0.00  0.00    -0.189 NA
ATOM     38  H   UNL     1      11.840   6.341   5.688  0.00  0.00    +0.148 HD
BRANCH   7   1
ATOM      1  S   UNL     1      12.210   6.935   3.431  0.00  0.00    +0.058 S 
ATOM      3  O   UNL     1      13.660   6.937   3.469  0.00  0.00    -0.153 OA
ATOM      4  O   UNL     1      11.482   8.187   3.356  0.00  0.00    -0.153 OA
BRANCH   1  28
ATOM     28  C   UNL     1      11.703   5.959   2.047  0.00  0.00    +0.105 A 
ATOM     30  C   UNL     1      12.457   4.851   1.661  0.00  0.00    +0.030 A 
ATOM     31  C   UNL     1      10.550   6.298   1.341  0.00  0.00    +0.030 A 
ATOM     33  C   UNL     1      12.057   4.081   0.569  0.00  0.00    +0.025 A 
ATOM     34  C   UNL     1      10.150   5.528   0.249  0.00  0.00    +0.025 A 
ATOM     35  C   UNL     1      10.903   4.419  -0.137  0.00  0.00    +0.033 A 
BRANCH  35  10
ATOM      6  O   UNL     1      12.019   4.257  -2.929  0.00  0.00    -0.276 OA
ATOM     10  N   UNL     1      10.503   3.649  -1.229  0.00  0.00    -0.286 N 
ATOM     36  C   UNL     1      11.060   3.615  -2.514  0.00  0.00    +0.214 C 
ATOM     37  C   UNL     1      10.334   2.644  -3.413  0.00  0.00    +0.109 C 
ATOM     39  H   UNL     1       9.705   3.040  -1.061  0.00  0.00    +0.155 HD
ENDBRANCH  35  10
ENDBRANCH   1  28
ENDBRANCH   7   1
ENDBRANCH  18   7
ENDBRANCH  12  18
BRANCH  14  19
ATOM     19  C   UNL     1       9.510   9.768   5.944  0.00  0.00    +0.103 C 
BRANCH  19  23
ATOM      2  O   UNL     1       8.271  11.789   5.952  0.00  0.00    -0.276 OA
ATOM      5  O   UNL     1      12.372  11.935  11.805  0.00  0.00    -0.276 OA
ATOM      8  N   UNL     1       9.518  11.329   7.857  0.00  0.00    -0.298 N 
ATOM      9  N   UNL     1      11.177  12.427   9.874  0.00  0.00    -0.299 N 
ATOM     23  C   UNL     1       9.039  11.053   6.577  0.00  0.00    +0.216 C 
ATOM     24  C   UNL     1       9.110  12.559   8.541  0.00  0.00    +0.126 C 
ATOM     25  C   UNL     1      10.371  10.441   8.657  0.00  0.00    +0.126 C 
ATOM     26  C   UNL     1      10.324  13.315   9.075  0.00  0.00    +0.126 C 
ATOM     27  C   UNL     1      11.586  11.197   9.189  0.00  0.00    +0.126 C 
ATOM     29  C   UNL     1      11.655  12.701  11.155  0.00  0.00    +0.213 C 
ATOM     32  C   UNL     1      11.249  14.022  11.756  0.00  0.00    +0.109 C 
ENDBRANCH  19  23
ENDBRANCH  14  19
TORSDOF 8
ENDMDL
MODEL 6
REMARK VINA RESULT:      -6.3     24.807     28.833
REMARK  Name = 38026845
REMARK  13 active torsions:
REMARK  status: ('A' for Active; 'I' for Inactive)
REMARK    1  A    between atoms: S_1  and  N_7
REMARK    2  A    between atoms: S_1  and  C_28
REMARK    3  A    between atoms: N_7  and  C_18
REMARK    4  A    between atoms: N_10  and  C_35
REMARK    5  A    between atoms: C_11  and  C_15
REMARK    6  A    between atoms: C_12  and  C_18
REMARK    7  A    between atoms: C_14  and  C_19
REMARK    8  A    between atoms: C_15  and  C_20
REMARK    9  A    between atoms: C_15  and  C_21
REMARK   10  A    between atoms: C_16  and  C_22
REMARK   11  A    between atoms: C_19  and  C_23
REMARK   12  A    between atoms: C_29  and  C_32
REMARK   13  A    between atoms: C_36  and  C_37
REMARK                            x       y       z     vdW  Elec       q    Type
REMARK                         _______ _______ _______ _____ _____    ______ ____
ROOT
ATOM     11  C   UNL     1       8.973   8.550   5.579  0.00  0.00    +0.000 C 
ATOM     12  C   UNL     1       8.700   8.394   7.096  0.00  0.00    +0.030 C 
ATOM     13  C   UNL     1       8.623   7.251   4.836  0.00  0.00    +0.012 C 
ATOM     14  C   UNL     1       9.431   6.047   5.356  0.00  0.00    +0.023 C 
ATOM     16  C   UNL     1       9.432   5.982   6.870  0.00  0.00    -0.073 C 
ATOM     17  C   UNL     1       9.090   7.036   7.630  0.00  0.00    -0.023 C 
ATOM     22  C   UNL     1       9.792   4.660   7.490  0.00  0.00    +0.039 C 
ENDROOT
BRANCH  11  15
ATOM     15  C   UNL     1       8.187   9.719   4.977  0.00  0.00    -0.013 C 
ATOM     20  C   UNL     1       9.137  10.722   4.331  0.00  0.00    +0.007 C 
ATOM     21  C   UNL     1       7.167   9.210   3.963  0.00  0.00    +0.007 C 
ENDBRANCH  11  15
BRANCH  12  18
ATOM     18  C   UNL     1       9.417   9.485   7.900  0.00  0.00    +0.113 C 
BRANCH  18   7
ATOM      7  N   UNL     1      10.863   9.406   7.636  0.00  0.00    -0.189 NA
ATOM     38  H   UNL     1      11.322   8.509   7.836  0.00  0.00    +0.148 HD
BRANCH   7   1
ATOM      1  S   UNL     1      11.821  10.814   7.682  0.00  0.00    +0.058 S 
ATOM      3  O   UNL     1      12.034  11.203   9.063  0.00  0.00    -0.153 OA
ATOM      4  O   UNL     1      11.301  11.773   6.726  0.00  0.00    -0.153 OA
BRANCH   1  28
ATOM     28  C   UNL     1      13.358  10.225   7.039  0.00  0.00    +0.105 A 
ATOM     30  C   UNL     1      13.474   8.904   6.608  0.00  0.00    +0.030 A 
ATOM     31  C   UNL     1      14.456  11.082   6.963  0.00  0.00    +0.030 A 
ATOM     33  C   UNL     1      14.687   8.440   6.101  0.00  0.00    +0.025 A 
ATOM     34  C   UNL     1      15.669  10.618   6.456  0.00  0.00    +0.025 A 
ATOM     35  C   UNL     1      15.785   9.296   6.024  0.00  0.00    +0.033 A 
BRANCH  35  10
ATOM      6  O   UNL     1      16.607   8.660   3.199  0.00  0.00    -0.276 OA
ATOM     10  N   UNL     1      16.998   8.832   5.517  0.00  0.00    -0.286 N 
ATOM     36  C   UNL     1      17.328   8.549   4.185  0.00  0.00    +0.214 C 
ATOM     37  C   UNL     1      18.750   8.065   4.050  0.00  0.00    +0.109 C 
ATOM     39  H   UNL     1      17.730   8.683   6.209  0.00  0.00    +0.155 HD
ENDBRANCH  35  10
ENDBRANCH   1  28
ENDBRANCH   7   1
ENDBRANCH  18   7
ENDBRANCH  12  18
BRANCH  14  19
ATOM     19  C   UNL     1      10.862   6.063   4.807  0.00  0.00    +0.103 C 
BRANCH  19  23
ATOM      2  O   UNL     1      10.340   3.950   3.869  0.00  0.00    -0.276 OA
ATOM      5  O   UNL     1      16.061   6.353   0.321  0.00  0.00    -0.276 OA
ATOM      8  N   UNL     1      11.978   5.190   2.785  0.00  0.00    -0.298 N 
ATOM      9  N   UNL     1      14.471   5.085   1.443  0.00  0.00    -0.299 N 
ATOM     23  C   UNL     1      11.029   4.969   3.782  0.00  0.00    +0.216 C 
ATOM     24  C   UNL     1      12.203   4.175   1.753  0.00  0.00    +0.126 C 
ATOM     25  C   UNL     1      12.759   6.421   2.610  0.00  0.00    +0.126 C 
ATOM     26  C   UNL     1      13.689   3.854   1.617  0.00  0.00    +0.126 C 
ATOM     27  C   UNL     1      14.246   6.100   2.476  0.00  0.00    +0.126 C 
ATOM     29  C   UNL     1      15.417   5.308   0.444  0.00  0.00    +0.213 C 
ATOM     32  C   UNL     1      15.643   4.182  -0.532  0.00  0.00    +0.109 C 
ENDBRANCH  19  23
ENDBRANCH  14  19
TORSDOF 8
ENDMDL
MODEL 7
REMARK VINA RESULT:      -6.2      2.879      6.396
REMARK  Name = 38026845
REMARK  13 active torsions:
REMARK  status: ('A' for Active; 'I' for Inactive)
REMARK    1  A    between atoms: S_1  and  N_7
REMARK    2  A    between atoms: S_1  and  C_28
REMARK    3  A    between atoms: N_7  and  C_18
REMARK    4  A    between atoms: N_10  and  C_35
REMARK    5  A    between atoms: C_11  and  C_15
REMARK    6  A    between atoms: C_12  and  C_18
REMARK    7  A    between atoms: C_14  and  C_19
REMARK    8  A    between atoms: C_15  and  C_20
REMARK    9  A    between atoms: C_15  and  C_21
REMARK   10  A    between atoms: C_16  and  C_22
REMARK   11  A    between atoms: C_19  and  C_23
REMARK   12  A    between atoms: C_29  and  C_32
REMARK   13  A    between atoms: C_36  and  C_37
REMARK                            x       y       z     vdW  Elec       q    Type
REMARK                         _______ _______ _______ _____ _____    ______ ____
ROOT
ATOM     11  C   UNL     1      -3.615 -11.411  14.524  0.00  0.00    +0.000 C 
ATOM     12  C   UNL     1      -4.547 -10.653  15.502  0.00  0.00    +0.030 C 
ATOM     13  C   UNL     1      -3.497 -10.648  13.195  0.00  0.00    +0.012 C 
ATOM     14  C   UNL     1      -4.864 -10.452  12.513  0.00  0.00    +0.023 C 
ATOM     16  C   UNL     1      -5.914  -9.958  13.487  0.00  0.00    -0.073 C 
ATOM     17  C   UNL     1      -5.749 -10.043  14.819  0.00  0.00    -0.023 C 
ATOM     22  C   UNL     1      -7.139  -9.319  12.895  0.00  0.00    +0.039 C 
ENDROOT
BRANCH  11  15
ATOM     15  C   UNL     1      -2.221 -11.629  15.122  0.00  0.00    -0.013 C 
ATOM     20  C   UNL     1      -1.362 -12.464  14.177  0.00  0.00    +0.007 C 
ATOM     21  C   UNL     1      -1.553 -10.290  15.418  0.00  0.00    +0.007 C 
ENDBRANCH  11  15
BRANCH  12  18
ATOM     18  C   UNL     1      -5.015 -11.567  16.639  0.00  0.00    +0.113 C 
BRANCH  18   7
ATOM      7  N   UNL     1      -5.387 -10.741  17.799  0.00  0.00    -0.189 NA
ATOM     38  H   UNL     1      -4.682 -10.078  18.142  0.00  0.00    +0.148 HD
BRANCH   7   1
ATOM      1  S   UNL     1      -6.555 -11.297  18.908  0.00  0.00    +0.058 S 
ATOM      3  O   UNL     1      -6.191 -10.866  20.243  0.00  0.00    -0.153 OA
ATOM      4  O   UNL     1      -6.833 -12.696  18.644  0.00  0.00    -0.153 OA
BRANCH   1  28
ATOM     28  C   UNL     1      -7.986 -10.385  18.412  0.00  0.00    +0.105 A 
ATOM     30  C   UNL     1      -9.239 -10.720  18.925  0.00  0.00    +0.030 A 
ATOM     31  C   UNL     1      -7.861  -9.331  17.508  0.00  0.00    +0.030 A 
ATOM     33  C   UNL     1     -10.367 -10.000  18.533  0.00  0.00    +0.025 A 
ATOM     34  C   UNL     1      -8.990  -8.611  17.117  0.00  0.00    +0.025 A 
ATOM     35  C   UNL     1     -10.244  -8.945  17.629  0.00  0.00    +0.033 A 
BRANCH  35  10
ATOM      6  O   UNL     1     -12.201  -9.440  15.396  0.00  0.00    -0.276 OA
ATOM     10  N   UNL     1     -11.372  -8.225  17.238  0.00  0.00    -0.286 N 
ATOM     36  C   UNL     1     -12.251  -8.501  16.183  0.00  0.00    +0.214 C 
ATOM     37  C   UNL     1     -13.354  -7.475  16.090  0.00  0.00    +0.109 C 
ATOM     39  H   UNL     1     -11.573  -7.397  17.795  0.00  0.00    +0.155 HD
ENDBRANCH  35  10
ENDBRANCH   1  28
ENDBRANCH   7   1
ENDBRANCH  18   7
ENDBRANCH  12  18
BRANCH  14  19
ATOM     19  C   UNL     1      -5.324 -11.739  11.819  0.00  0.00    +0.103 C 
BRANCH  19  23
ATOM      2  O   UNL     1      -3.685 -12.244  10.183  0.00  0.00    -0.276 OA
ATOM      5  O   UNL     1      -8.720  -8.424   6.848  0.00  0.00    -0.276 OA
ATOM      8  N   UNL     1      -5.639 -11.250   9.419  0.00  0.00    -0.298 N 
ATOM      9  N   UNL     1      -6.739  -9.357   7.621  0.00  0.00    -0.299 N 
ATOM     23  C   UNL     1      -4.802 -11.772  10.404  0.00  0.00    +0.216 C 
ATOM     24  C   UNL     1      -5.205 -11.243   8.020  0.00  0.00    +0.126 C 
ATOM     25  C   UNL     1      -7.003 -10.750   9.637  0.00  0.00    +0.126 C 
ATOM     26  C   UNL     1      -5.376  -9.857   7.402  0.00  0.00    +0.126 C 
ATOM     27  C   UNL     1      -7.172  -9.364   9.021  0.00  0.00    +0.126 C 
ATOM     29  C   UNL     1      -7.578  -8.838   6.636  0.00  0.00    +0.213 C 
ATOM     32  C   UNL     1      -7.025  -8.796   5.234  0.00  0.00    +0.109 C 
ENDBRANCH  19  23
ENDBRANCH  14  19
TORSDOF 8
ENDMDL
MODEL 8
REMARK VINA RESULT:      -6.1     25.569     29.485
REMARK  Name = 38026845
REMARK  13 active torsions:
REMARK  status: ('A' for Active; 'I' for Inactive)
REMARK    1  A    between atoms: S_1  and  N_7
REMARK    2  A    between atoms: S_1  and  C_28
REMARK    3  A    between atoms: N_7  and  C_18
REMARK    4  A    between atoms: N_10  and  C_35
REMARK    5  A    between atoms: C_11  and  C_15
REMARK    6  A    between atoms: C_12  and  C_18
REMARK    7  A    between atoms: C_14  and  C_19
REMARK    8  A    between atoms: C_15  and  C_20
REMARK    9  A    between atoms: C_15  and  C_21
REMARK   10  A    between atoms: C_16  and  C_22
REMARK   11  A    between atoms: C_19  and  C_23
REMARK   12  A    between atoms: C_29  and  C_32
REMARK   13  A    between atoms: C_36  and  C_37
REMARK                            x       y       z     vdW  Elec       q    Type
REMARK                         _______ _______ _______ _____ _____    ______ ____
ROOT
ATOM     11  C   UNL     1      10.831   6.544   3.370  0.00  0.00    +0.000 C 
ATOM     12  C   UNL     1      10.234   5.115   3.353  0.00  0.00    +0.030 C 
ATOM     13  C   UNL     1      11.607   6.816   2.071  0.00  0.00    +0.012 C 
ATOM     14  C   UNL     1      12.753   5.810   1.856  0.00  0.00    +0.023 C 
ATOM     16  C   UNL     1      12.301   4.383   2.088  0.00  0.00    -0.073 C 
ATOM     17  C   UNL     1      11.165   4.092   2.748  0.00  0.00    -0.023 C 
ATOM     22  C   UNL     1      13.160   3.297   1.504  0.00  0.00    +0.039 C 
ENDROOT
BRANCH  11  15
ATOM     15  C   UNL     1       9.748   7.611   3.560  0.00  0.00    -0.013 C 
ATOM     20  C   UNL     1      10.382   8.960   3.884  0.00  0.00    +0.007 C 
ATOM     21  C   UNL     1       8.873   7.709   2.315  0.00  0.00    +0.007 C 
ENDBRANCH  11  15
BRANCH  12  18
ATOM     18  C   UNL     1       9.832   4.668   4.764  0.00  0.00    +0.113 C 
BRANCH  18   7
ATOM      7  N   UNL     1      10.875   5.081   5.715  0.00  0.00    -0.189 NA
ATOM     38  H   UNL     1      11.721   4.500   5.758  0.00  0.00    +0.148 HD
BRANCH   7   1
ATOM      1  S   UNL     1      10.463   5.981   7.102  0.00  0.00    +0.058 S 
ATOM      3  O   UNL     1      10.728   5.186   8.285  0.00  0.00    -0.153 OA
ATOM      4  O   UNL     1       9.158   6.584   6.906  0.00  0.00    -0.153 OA
BRANCH   1  28
ATOM     28  C   UNL     1      11.649   7.290   7.049  0.00  0.00    +0.105 A 
ATOM     30  C   UNL     1      11.261   8.596   7.349  0.00  0.00    +0.030 A 
ATOM     31  C   UNL     1      12.972   7.018   6.705  0.00  0.00    +0.030 A 
ATOM     33  C   UNL     1      12.198   9.629   7.307  0.00  0.00    +0.025 A 
ATOM     34  C   UNL     1      13.909   8.051   6.663  0.00  0.00    +0.025 A 
ATOM     35  C   UNL     1      13.522   9.357   6.964  0.00  0.00    +0.033 A 
BRANCH  35  10
ATOM      6  O   UNL     1      14.182  11.307   4.768  0.00  0.00    -0.276 OA
ATOM     10  N   UNL     1      14.458  10.389   6.922  0.00  0.00    -0.286 N 
ATOM     36  C   UNL     1      14.727  11.271   5.866  0.00  0.00    +0.214 C 
ATOM     37  C   UNL     1      15.819  12.250   6.219  0.00  0.00    +0.109 C 
ATOM     39  H   UNL     1      15.010  10.509   7.768  0.00  0.00    +0.155 HD
ENDBRANCH  35  10
ENDBRANCH   1  28
ENDBRANCH   7   1
ENDBRANCH  18   7
ENDBRANCH  12  18
BRANCH  14  19
ATOM     19  C   UNL     1      13.960   6.152   2.735  0.00  0.00    +0.103 C 
BRANCH  19  23
ATOM      2  O   UNL     1      15.284   6.065   0.771  0.00  0.00    -0.276 OA
ATOM      5  O   UNL     1      18.736  10.369   5.315  0.00  0.00    -0.276 OA
ATOM      8  N   UNL     1      15.930   7.600   2.389  0.00  0.00    -0.298 N 
ATOM      9  N   UNL     1      18.128   8.788   3.726  0.00  0.00    -0.299 N 
ATOM     23  C   UNL     1      15.114   6.596   1.871  0.00  0.00    +0.216 C 
ATOM     24  C   UNL     1      17.074   8.086   1.613  0.00  0.00    +0.126 C 
ATOM     25  C   UNL     1      15.712   8.305   3.659  0.00  0.00    +0.126 C 
ATOM     26  C   UNL     1      18.347   8.084   2.456  0.00  0.00    +0.126 C 
ATOM     27  C   UNL     1      16.985   8.301   4.502  0.00  0.00    +0.126 C 
ATOM     29  C   UNL     1      18.943   9.794   4.244  0.00  0.00    +0.213 C 
ATOM     32  C   UNL     1      20.142  10.181   3.417  0.00  0.00    +0.109 C 
ENDBRANCH  19  23
ENDBRANCH  14  19
TORSDOF 8
ENDMDL
MODEL 9
REMARK VINA RESULT:      -6.1     24.770     28.422
REMARK  Name = 38026845
REMARK  13 active torsions:
REMARK  status: ('A' for Active; 'I' for Inactive)
REMARK    1  A    between atoms: S_1  and  N_7
REMARK    2  A    between atoms: S_1  and  C_28
REMARK    3  A    between atoms: N_7  and  C_18
REMARK    4  A    between atoms: N_10  and  C_35
REMARK    5  A    between atoms: C_11  and  C_15
REMARK    6  A    between atoms: C_12  and  C_18
REMARK    7  A    between atoms: C_14  and  C_19
REMARK    8  A    between atoms: C_15  and  C_20
REMARK    9  A    between atoms: C_15  and  C_21
REMARK   10  A    between atoms: C_16  and  C_22
REMARK   11  A    between atoms: C_19  and  C_23
REMARK   12  A    between atoms: C_29  and  C_32
REMARK   13  A    between atoms: C_36  and  C_37
REMARK                            x       y       z     vdW  Elec       q    Type
REMARK                         _______ _______ _______ _____ _____    ______ ____
ROOT
ATOM     11  C   UNL     1      10.136   6.872   4.223  0.00  0.00    +0.000 C 
ATOM     12  C   UNL     1       8.641   6.792   4.621  0.00  0.00    +0.030 C 
ATOM     13  C   UNL     1      10.971   5.903   5.075  0.00  0.00    +0.012 C 
ATOM     14  C   UNL     1      10.851   6.200   6.581  0.00  0.00    +0.023 C 
ATOM     16  C   UNL     1       9.409   6.402   7.002  0.00  0.00    -0.073 C 
ATOM     17  C   UNL     1       8.433   6.652   6.111  0.00  0.00    -0.023 C 
ATOM     22  C   UNL     1       9.106   6.264   8.468  0.00  0.00    +0.039 C 
ENDROOT
BRANCH  11  15
ATOM     15  C   UNL     1      10.345   6.568   2.736  0.00  0.00    -0.013 C 
ATOM     20  C   UNL     1      11.110   7.703   2.063  0.00  0.00    +0.007 C 
ATOM     21  C   UNL     1      11.080   5.242   2.562  0.00  0.00    +0.007 C 
ENDBRANCH  11  15
BRANCH  12  18
ATOM     18  C   UNL     1       7.866   8.012   4.110  0.00  0.00    +0.113 C 
BRANCH  18   7
ATOM      7  N   UNL     1       7.789   9.017   5.182  0.00  0.00    -0.189 NA
ATOM     38  H   UNL     1       6.971   8.973   5.800  0.00  0.00    +0.148 HD
BRANCH   7   1
ATOM      1  S   UNL     1       8.567  10.522   5.003  0.00  0.00    +0.058 S 
ATOM      3  O   UNL     1       7.605  11.506   4.545  0.00  0.00    -0.153 OA
ATOM      4  O   UNL     1       9.812  10.331   4.284  0.00  0.00    -0.153 OA
BRANCH   1  28
ATOM     28  C   UNL     1       8.990  10.911   6.674  0.00  0.00    +0.105 A 
ATOM     30  C   UNL     1       9.386   9.897   7.547  0.00  0.00    +0.030 A 
ATOM     31  C   UNL     1       8.927  12.230   7.121  0.00  0.00    +0.030 A 
ATOM     33  C   UNL     1       9.720  10.204   8.866  0.00  0.00    +0.025 A 
ATOM     34  C   UNL     1       9.261  12.536   8.440  0.00  0.00    +0.025 A 
ATOM     35  C   UNL     1       9.658  11.523   9.313  0.00  0.00    +0.033 A 
BRANCH  35  10
ATOM      6  O   UNL     1      12.348  11.796  10.635  0.00  0.00    -0.276 OA
ATOM     10  N   UNL     1       9.991  11.830  10.632  0.00  0.00    -0.286 N 
ATOM     36  C   UNL     1      11.268  11.942  11.197  0.00  0.00    +0.214 C 
ATOM     37  C   UNL     1      11.202  12.291  12.664  0.00  0.00    +0.109 C 
ATOM     39  H   UNL     1       9.201  11.989  11.254  0.00  0.00    +0.155 HD
ENDBRANCH  35  10
ENDBRANCH   1  28
ENDBRANCH   7   1
ENDBRANCH  18   7
ENDBRANCH  12  18
BRANCH  14  19
ATOM     19  C   UNL     1      11.710   7.405   6.977  0.00  0.00    +0.103 C 
BRANCH  19  23
ATOM      2  O   UNL     1      13.657   6.174   7.536  0.00  0.00    -0.276 OA
ATOM      5  O   UNL     1      15.790  11.391   3.142  0.00  0.00    -0.276 OA
ATOM      8  N   UNL     1      13.892   7.792   5.886  0.00  0.00    -0.298 N 
ATOM      9  N   UNL     1      15.570   9.819   4.838  0.00  0.00    -0.299 N 
ATOM     23  C   UNL     1      13.172   7.061   6.831  0.00  0.00    +0.216 C 
ATOM     24  C   UNL     1      15.318   7.521   5.685  0.00  0.00    +0.126 C 
ATOM     25  C   UNL     1      13.330   8.801   4.980  0.00  0.00    +0.126 C 
ATOM     26  C   UNL     1      16.132   8.810   5.743  0.00  0.00    +0.126 C 
ATOM     27  C   UNL     1      14.144  10.091   5.040  0.00  0.00    +0.126 C 
ATOM     29  C   UNL     1      16.289  10.548   3.891  0.00  0.00    +0.213 C 
ATOM     32  C   UNL     1      17.766  10.261   3.801  0.00  0.00    +0.109 C 
ENDBRANCH  19  23
ENDBRANCH  14  19
TORSDOF 8
ENDMDL
MODEL 10
REMARK VINA RESULT:      -6.0     24.775     28.565
REMARK  Name = 38026845
REMARK  13 active torsions:
REMARK  status: ('A' for Active; 'I' for Inactive)
REMARK    1  A    between atoms: S_1  and  N_7
REMARK    2  A    between atoms: S_1  and  C_28
REMARK    3  A    between atoms: N_7  and  C_18
REMARK    4  A    between atoms: N_10  and  C_35
REMARK    5  A    between atoms: C_11  and  C_15
REMARK    6  A    between atoms: C_12  and  C_18
REMARK    7  A    between atoms: C_14  and  C_19
REMARK    8  A    between atoms: C_15  and  C_20
REMARK    9  A    between atoms: C_15  and  C_21
REMARK   10  A    between atoms: C_16  and  C_22
REMARK   11  A    between atoms: C_19  and  C_23
REMARK   12  A    between atoms: C_29  and  C_32
REMARK   13  A    between atoms: C_36  and  C_37
REMARK                            x       y       z     vdW  Elec       q    Type
REMARK                         _______ _______ _______ _____ _____    ______ ____
ROOT
ATOM     11  C   UNL     1      14.978   5.192  -0.928  0.00  0.00    +0.000 C 
ATOM     12  C   UNL     1      14.263   3.871  -1.306  0.00  0.00    +0.030 C 
ATOM     13  C   UNL     1      15.377   5.179   0.556  0.00  0.00    +0.012 C 
ATOM     14  C   UNL     1      14.161   4.999   1.484  0.00  0.00    +0.023 C 
ATOM     16  C   UNL     1      13.257   3.877   1.017  0.00  0.00    -0.073 C 
ATOM     17  C   UNL     1      13.326   3.377  -0.230  0.00  0.00    -0.023 C 
ATOM     22  C   UNL     1      12.301   3.311   2.030  0.00  0.00    +0.039 C 
ENDROOT
BRANCH  11  15
ATOM     15  C   UNL     1      16.217   5.436  -1.796  0.00  0.00    -0.013 C 
ATOM     20  C   UNL     1      16.799   6.818  -1.514  0.00  0.00    +0.007 C 
ATOM     21  C   UNL     1      17.260   4.350  -1.553  0.00  0.00    +0.007 C 
ENDBRANCH  11  15
BRANCH  12  18
ATOM     18  C   UNL     1      13.494   4.018  -2.625  0.00  0.00    +0.113 C 
BRANCH  18   7
ATOM      7  N   UNL     1      12.476   2.958  -2.709  0.00  0.00    -0.189 NA
ATOM     38  H   UNL     1      12.816   1.997  -2.837  0.00  0.00    +0.148 HD
BRANCH   7   1
ATOM      1  S   UNL     1      10.905   3.321  -3.259  0.00  0.00    +0.058 S 
ATOM      3  O   UNL     1       9.998   2.269  -2.843  0.00  0.00    -0.153 OA
ATOM      4  O   UNL     1      10.969   3.719  -4.652  0.00  0.00    -0.153 OA
BRANCH   1  28
ATOM     28  C   UNL     1      10.522   4.771  -2.324  0.00  0.00    +0.105 A 
ATOM     30  C   UNL     1      10.483   6.016  -2.952  0.00  0.00    +0.030 A 
ATOM     31  C   UNL     1      10.261   4.671  -0.958  0.00  0.00    +0.030 A 
ATOM     33  C   UNL     1      10.181   7.160  -2.214  0.00  0.00    +0.025 A 
ATOM     34  C   UNL     1       9.959   5.816  -0.220  0.00  0.00    +0.025 A 
ATOM     35  C   UNL     1       9.919   7.061  -0.848  0.00  0.00    +0.033 A 
BRANCH  35  10
ATOM      6  O   UNL     1      11.726   9.163   0.326  0.00  0.00    -0.276 OA
ATOM     10  N   UNL     1       9.617   8.205  -0.110  0.00  0.00    -0.286 N 
ATOM     36  C   UNL     1      10.503   9.153   0.417  0.00  0.00    +0.214 C 
ATOM     37  C   UNL     1       9.776  10.249   1.155  0.00  0.00    +0.109 C 
ATOM     39  H   UNL     1       8.626   8.362   0.061  0.00  0.00    +0.155 HD
ENDBRANCH  35  10
ENDBRANCH   1  28
ENDBRANCH   7   1
ENDBRANCH  18   7
ENDBRANCH  12  18
BRANCH  14  19
ATOM     19  C   UNL     1      13.379   6.309   1.630  0.00  0.00    +0.103 C 
BRANCH  19  23
ATOM      2  O   UNL     1      14.583   7.069   3.525  0.00  0.00    -0.276 OA
ATOM      5  O   UNL     1       7.824   6.186   5.676  0.00  0.00    -0.276 OA
ATOM      8  N   UNL     1      12.274   6.939   3.747  0.00  0.00    -0.298 N 
ATOM      9  N   UNL     1      10.137   6.253   5.475  0.00  0.00    -0.299 N 
ATOM     23  C   UNL     1      13.475   6.808   3.050  0.00  0.00    +0.216 C 
ATOM     24  C   UNL     1      12.282   7.415   5.132  0.00  0.00    +0.126 C 
ATOM     25  C   UNL     1      10.936   6.709   3.188  0.00  0.00    +0.126 C 
ATOM     26  C   UNL     1      11.475   6.484   6.034  0.00  0.00    +0.126 C 
ATOM     27  C   UNL     1      10.131   5.776   4.089  0.00  0.00    +0.126 C 
ATOM     29  C   UNL     1       8.936   6.387   6.170  0.00  0.00    +0.213 C 
ATOM     32  C   UNL     1       9.037   6.808   7.614  0.00  0.00    +0.109 C 
ENDBRANCH  19  23
ENDBRANCH  14  19
TORSDOF 8
ENDMDL
