REMARK  Name = 11912218
REMARK  7 active torsions:
REMARK  status: ('A' for Active; 'I' for Inactive)
REMARK    1  A    between atoms: N_4  and  C_18
REMARK    2  A    between atoms: C_5  and  C_14
REMARK    3  A    between atoms: C_6  and  C_15
REMARK    4  A    between atoms: C_7  and  C_13
REMARK    5  A    between atoms: C_14  and  C_16
REMARK    6  A    between atoms: C_15  and  C_17
REMARK    7  A    between atoms: C_18  and  C_19
REMARK                            x       y       z     vdW  Elec       q    Type
REMARK                         _______ _______ _______ _____ _____    ______ ____
ROOT
ATOM      1  O   UNL     1       5.167  -0.240   0.593  0.00  0.00    -0.275 OA
ATOM      3  N   UNL     1       3.064  -0.500  -0.374  0.00  0.00    -0.301 N 
ATOM      5  C   UNL     1       0.586  -0.528  -0.223  0.00  0.00    +0.010 C 
ATOM      6  C   UNL     1       0.637  -2.076  -0.294  0.00  0.00    +0.004 C 
ATOM      8  C   UNL     1       1.824   0.068  -0.916  0.00  0.00    +0.111 C 
ATOM     11  C   UNL     1       1.973  -2.623   0.238  0.00  0.00    +0.023 C 
ATOM     12  C   UNL     1       3.160  -1.956  -0.453  0.00  0.00    +0.108 C 
ATOM     13  C   UNL     1       4.122   0.241   0.163  0.00  0.00    +0.219 C 
ENDROOT
BRANCH  13   7
ATOM      7  C   UNL     1       3.961   1.726   0.216  0.00  0.00    +0.075 C 
ATOM      9  C   UNL     1       5.185   2.593   0.231  0.00  0.00    +0.013 C 
ATOM     10  C   UNL     1       4.316   2.542  -0.991  0.00  0.00    +0.013 C 
ENDBRANCH  13   7
BRANCH   5  14
ATOM     14  C   UNL     1       0.455   0.027   1.201  0.00  0.00    +0.002 C 
ATOM     16  C   UNL     1       0.310   1.534   1.189  0.00  0.00    +0.004 C 
ENDBRANCH   5  14
BRANCH   6  15
ATOM     15  C   UNL     1      -0.539  -2.749   0.412  0.00  0.00    +0.099 C 
BRANCH  15  17
ATOM      2  O   UNL     1      -2.201  -2.436  -1.318  0.00  0.00    -0.276 OA
ATOM      4  N   UNL     1      -2.657  -1.718   0.845  0.00  0.00    -0.311 N 
ATOM     17  C   UNL     1      -1.874  -2.299  -0.142  0.00  0.00    +0.214 C 
ATOM     25  H   UNL     1      -2.303  -1.647   1.794  0.00  0.00    +0.149 HD
BRANCH   4  18
ATOM     18  C   UNL     1      -3.981  -1.196   0.597  0.00  0.00    +0.139 C 
BRANCH  18  19
ATOM     19  C   UNL     1      -3.949   0.253   0.203  0.00  0.00    -0.030 A 
ATOM     20  C   UNL     1      -4.025   1.243   1.182  0.00  0.00    +0.005 A 
ATOM     21  C   UNL     1      -3.842   0.608  -1.141  0.00  0.00    +0.005 A 
ATOM     22  C   UNL     1      -3.995   2.589   0.817  0.00  0.00    +0.000 A 
ATOM     23  C   UNL     1      -3.811   1.953  -1.507  0.00  0.00    +0.000 A 
ATOM     24  C   UNL     1      -3.888   2.944  -0.528  0.00  0.00    +0.000 A 
ENDBRANCH  18  19
ENDBRANCH   4  18
ENDBRANCH  15  17
ENDBRANCH   6  15
TORSDOF 6
