MODEL 1
REMARK VINA RESULT:      -6.7      0.000      0.000
REMARK  Name = 11913161
REMARK  9 active torsions:
REMARK  status: ('A' for Active; 'I' for Inactive)
REMARK    1  A    between atoms: O_4  and  C_29
REMARK    2  A    between atoms: O_4  and  C_30
REMARK    3  A    between atoms: N_6  and  C_19
REMARK    4  A    between atoms: C_8  and  C_14
REMARK    5  A    between atoms: C_9  and  C_13
REMARK    6  A    between atoms: C_13  and  C_15
REMARK    7  A    between atoms: C_14  and  C_17
REMARK    8  A    between atoms: C_16  and  C_18
REMARK    9  A    between atoms: C_19  and  C_22
REMARK                            x       y       z     vdW  Elec       q    Type
REMARK                         _______ _______ _______ _____ _____    ______ ____
ROOT
ATOM      2  O   UNL     1      -7.846 -11.192  19.523  0.00  0.00    -0.270 OA
ATOM      5  N   UNL     1      -6.408 -10.252  17.936  0.00  0.00    -0.297 N 
ATOM      8  C   UNL     1      -3.969 -10.751  16.457  0.00  0.00    +0.004 C 
ATOM      9  C   UNL     1      -5.280 -10.363  15.725  0.00  0.00    +0.010 C 
ATOM     10  C   UNL     1      -4.256 -11.443  17.800  0.00  0.00    +0.023 C 
ATOM     11  C   UNL     1      -6.184  -9.547  16.665  0.00  0.00    +0.112 C 
ATOM     12  C   UNL     1      -5.192 -10.604  18.666  0.00  0.00    +0.108 C 
ATOM     16  C   UNL     1      -7.654 -10.598  18.464  0.00  0.00    +0.247 C 
ENDROOT
BRANCH  16  18
ATOM      1 CL   UNL     1     -10.944  -6.983  16.742  0.00  0.00    -0.062 Cl
ATOM      7  N   UNL     1     -11.138  -9.522  16.256  0.00  0.00    -0.244 NA
ATOM     18  C   UNL     1      -8.853 -10.227  17.704  0.00  0.00    +0.041 A 
ATOM     20  C   UNL     1      -9.245  -8.895  17.624  0.00  0.00    +0.053 A 
ATOM     21  C   UNL     1      -9.602 -11.206  17.061  0.00  0.00    +0.033 A 
ATOM     23  C   UNL     1     -10.384  -8.599  16.894  0.00  0.00    +0.130 A 
ATOM     24  C   UNL     1     -10.725 -10.806  16.356  0.00  0.00    +0.113 A 
ENDBRANCH  16  18
BRANCH   9  13
ATOM     13  C   UNL     1      -6.050 -11.560  15.151  0.00  0.00    +0.002 C 
ATOM     15  C   UNL     1      -7.220 -11.101  14.307  0.00  0.00    +0.004 C 
ENDBRANCH   9  13
BRANCH   8  14
ATOM     14  C   UNL     1      -3.033 -11.604  15.600  0.00  0.00    +0.099 C 
BRANCH  14  17
ATOM      3  O   UNL     1      -1.519  -9.927  14.735  0.00  0.00    -0.276 OA
ATOM      6  N   UNL     1      -2.812 -11.171  13.257  0.00  0.00    -0.311 N 
ATOM     17  C   UNL     1      -2.356 -10.798  14.513  0.00  0.00    +0.214 C 
ATOM     31  H   UNL     1      -3.509 -11.904  13.168  0.00  0.00    +0.149 HD
BRANCH   6  19
ATOM     19  C   UNL     1      -2.339 -10.564  12.033  0.00  0.00    +0.139 C 
BRANCH  19  22
ATOM     22  C   UNL     1      -3.451  -9.906  11.268  0.00  0.00    -0.030 A 
ATOM     25  C   UNL     1      -3.204  -9.366  10.005  0.00  0.00    +0.009 A 
ATOM     26  C   UNL     1      -4.730  -9.837  11.818  0.00  0.00    +0.009 A 
ATOM     27  C   UNL     1      -4.238  -8.755   9.294  0.00  0.00    +0.046 A 
ATOM     28  C   UNL     1      -5.764  -9.226  11.107  0.00  0.00    +0.046 A 
ATOM     29  C   UNL     1      -5.517  -8.685   9.845  0.00  0.00    +0.120 A 
BRANCH  29   4
ATOM      4  O   UNL     1      -6.526  -8.091   9.151  0.00  0.00    -0.495 OA
ATOM     30  C   UNL     1      -7.860  -8.440   9.516  0.00  0.00    +0.277 C 
ENDBRANCH  29   4
ENDBRANCH  19  22
ENDBRANCH   6  19
ENDBRANCH  14  17
ENDBRANCH   8  14
TORSDOF 7
ENDMDL
MODEL 2
REMARK VINA RESULT:      -6.3      2.414      3.367
REMARK  Name = 11913161
REMARK  9 active torsions:
REMARK  status: ('A' for Active; 'I' for Inactive)
REMARK    1  A    between atoms: O_4  and  C_29
REMARK    2  A    between atoms: O_4  and  C_30
REMARK    3  A    between atoms: N_6  and  C_19
REMARK    4  A    between atoms: C_8  and  C_14
REMARK    5  A    between atoms: C_9  and  C_13
REMARK    6  A    between atoms: C_13  and  C_15
REMARK    7  A    between atoms: C_14  and  C_17
REMARK    8  A    between atoms: C_16  and  C_18
REMARK    9  A    between atoms: C_19  and  C_22
REMARK                            x       y       z     vdW  Elec       q    Type
REMARK                         _______ _______ _______ _____ _____    ______ ____
ROOT
ATOM      2  O   UNL     1      -9.150 -10.057  15.901  0.00  0.00    -0.270 OA
ATOM      5  N   UNL     1      -7.339 -11.442  16.422  0.00  0.00    -0.297 N 
ATOM      8  C   UNL     1      -4.447 -11.495  16.560  0.00  0.00    +0.004 C 
ATOM      9  C   UNL     1      -5.310 -11.908  17.779  0.00  0.00    +0.010 C 
ATOM     10  C   UNL     1      -5.194 -10.509  15.646  0.00  0.00    +0.023 C 
ATOM     11  C   UNL     1      -6.681 -12.419  17.302  0.00  0.00    +0.112 C 
ATOM     12  C   UNL     1      -6.562 -11.055  15.246  0.00  0.00    +0.108 C 
ATOM     16  C   UNL     1      -8.599 -10.878  16.631  0.00  0.00    +0.247 C 
ENDROOT
BRANCH  16  18
ATOM      1 CL   UNL     1     -11.708 -14.255  19.038  0.00  0.00    -0.062 Cl
ATOM      7  N   UNL     1     -10.781 -12.076  20.092  0.00  0.00    -0.244 NA
ATOM     18  C   UNL     1      -9.350 -11.291  17.823  0.00  0.00    +0.041 A 
ATOM     20  C   UNL     1     -10.084 -12.473  17.811  0.00  0.00    +0.053 A 
ATOM     21  C   UNL     1      -9.331 -10.503  18.967  0.00  0.00    +0.033 A 
ATOM     23  C   UNL     1     -10.775 -12.816  18.961  0.00  0.00    +0.130 A 
ATOM     24  C   UNL     1     -10.056 -10.935  20.066  0.00  0.00    +0.113 A 
ENDBRANCH  16  18
BRANCH   9  13
ATOM     13  C   UNL     1      -5.489 -10.797  18.821  0.00  0.00    +0.002 C 
ATOM     15  C   UNL     1      -5.965 -11.360  20.143  0.00  0.00    +0.004 C 
ENDBRANCH   9  13
BRANCH   8  14
ATOM     14  C   UNL     1      -3.080 -10.934  16.955  0.00  0.00    +0.099 C 
BRANCH  14  17
ATOM      3  O   UNL     1      -1.291 -10.017  15.609  0.00  0.00    -0.276 OA
ATOM      6  N   UNL     1      -2.283 -12.023  14.978  0.00  0.00    -0.311 N 
ATOM     17  C   UNL     1      -2.111 -10.912  15.792  0.00  0.00    +0.214 C 
ATOM     31  H   UNL     1      -2.989 -12.715  15.207  0.00  0.00    +0.149 HD
BRANCH   6  19
ATOM     19  C   UNL     1      -1.493 -12.259  13.791  0.00  0.00    +0.139 C 
BRANCH  19  22
ATOM     22  C   UNL     1      -2.173 -11.747  12.554  0.00  0.00    -0.030 A 
ATOM     25  C   UNL     1      -1.955 -10.436  12.130  0.00  0.00    +0.009 A 
ATOM     26  C   UNL     1      -3.020 -12.583  11.827  0.00  0.00    +0.009 A 
ATOM     27  C   UNL     1      -2.587  -9.960  10.980  0.00  0.00    +0.046 A 
ATOM     28  C   UNL     1      -3.651 -12.108  10.677  0.00  0.00    +0.046 A 
ATOM     29  C   UNL     1      -3.434 -10.796  10.254  0.00  0.00    +0.120 A 
BRANCH  29   4
ATOM      4  O   UNL     1      -4.049 -10.333   9.131  0.00  0.00    -0.495 OA
ATOM     30  C   UNL     1      -4.339  -8.937   9.077  0.00  0.00    +0.277 C 
ENDBRANCH  29   4
ENDBRANCH  19  22
ENDBRANCH   6  19
ENDBRANCH  14  17
ENDBRANCH   8  14
TORSDOF 7
ENDMDL
MODEL 3
REMARK VINA RESULT:      -6.3      2.875      7.550
REMARK  Name = 11913161
REMARK  9 active torsions:
REMARK  status: ('A' for Active; 'I' for Inactive)
REMARK    1  A    between atoms: O_4  and  C_29
REMARK    2  A    between atoms: O_4  and  C_30
REMARK    3  A    between atoms: N_6  and  C_19
REMARK    4  A    between atoms: C_8  and  C_14
REMARK    5  A    between atoms: C_9  and  C_13
REMARK    6  A    between atoms: C_13  and  C_15
REMARK    7  A    between atoms: C_14  and  C_17
REMARK    8  A    between atoms: C_16  and  C_18
REMARK    9  A    between atoms: C_19  and  C_22
REMARK                            x       y       z     vdW  Elec       q    Type
REMARK                         _______ _______ _______ _____ _____    ______ ____
ROOT
ATOM      2  O   UNL     1      -8.675 -11.222   9.883  0.00  0.00    -0.270 OA
ATOM      5  N   UNL     1      -7.038 -10.077  11.100  0.00  0.00    -0.297 N 
ATOM      8  C   UNL     1      -4.572 -10.460  12.569  0.00  0.00    +0.004 C 
ATOM      9  C   UNL     1      -4.663  -9.422  11.420  0.00  0.00    +0.010 C 
ATOM     10  C   UNL     1      -5.586 -11.601  12.380  0.00  0.00    +0.023 C 
ATOM     11  C   UNL     1      -6.117  -8.943  11.260  0.00  0.00    +0.112 C 
ATOM     12  C   UNL     1      -6.999 -11.058  12.183  0.00  0.00    +0.108 C 
ATOM     16  C   UNL     1      -7.906 -10.273  10.024  0.00  0.00    +0.247 C 
ENDROOT
BRANCH  16  18
ATOM      1 CL   UNL     1      -9.045  -5.498   8.361  0.00  0.00    -0.062 Cl
ATOM      7  N   UNL     1      -7.944  -7.350   6.921  0.00  0.00    -0.244 NA
ATOM     18  C   UNL     1      -7.920  -9.266   8.956  0.00  0.00    +0.041 A 
ATOM     20  C   UNL     1      -8.437  -7.998   9.197  0.00  0.00    +0.053 A 
ATOM     21  C   UNL     1      -7.415  -9.577   7.699  0.00  0.00    +0.033 A 
ATOM     23  C   UNL     1      -8.426  -7.086   8.156  0.00  0.00    +0.130 A 
ATOM     24  C   UNL     1      -7.450  -8.593   6.724  0.00  0.00    +0.113 A 
ENDBRANCH  16  18
BRANCH   9  13
ATOM     13  C   UNL     1      -4.118  -9.928  10.079  0.00  0.00    +0.002 C 
ATOM     15  C   UNL     1      -4.116  -8.826   9.040  0.00  0.00    +0.004 C 
ENDBRANCH   9  13
BRANCH   8  14
ATOM     14  C   UNL     1      -3.162 -11.018  12.762  0.00  0.00    +0.099 C 
BRANCH  14  17
ATOM      3  O   UNL     1      -1.578  -9.925  14.228  0.00  0.00    -0.276 OA
ATOM      6  N   UNL     1      -3.297 -11.192  15.146  0.00  0.00    -0.311 N 
ATOM     17  C   UNL     1      -2.572 -10.634  14.102  0.00  0.00    +0.214 C 
ATOM     31  H   UNL     1      -4.108 -11.769  14.947  0.00  0.00    +0.149 HD
BRANCH   6  19
ATOM     19  C   UNL     1      -2.957 -10.994  16.537  0.00  0.00    +0.139 C 
BRANCH  19  22
ATOM     22  C   UNL     1      -4.176 -10.965  17.413  0.00  0.00    -0.030 A 
ATOM     25  C   UNL     1      -4.184 -11.664  18.621  0.00  0.00    +0.009 A 
ATOM     26  C   UNL     1      -5.299 -10.237  17.021  0.00  0.00    +0.009 A 
ATOM     27  C   UNL     1      -5.316 -11.636  19.435  0.00  0.00    +0.046 A 
ATOM     28  C   UNL     1      -6.432 -10.210  17.835  0.00  0.00    +0.046 A 
ATOM     29  C   UNL     1      -6.440 -10.909  19.043  0.00  0.00    +0.120 A 
BRANCH  29   4
ATOM      4  O   UNL     1      -7.544 -10.880  19.838  0.00  0.00    -0.495 OA
ATOM     30  C   UNL     1      -8.557 -11.851  19.579  0.00  0.00    +0.277 C 
ENDBRANCH  29   4
ENDBRANCH  19  22
ENDBRANCH   6  19
ENDBRANCH  14  17
ENDBRANCH   8  14
TORSDOF 7
ENDMDL
MODEL 4
REMARK VINA RESULT:      -6.2      3.240      7.711
REMARK  Name = 11913161
REMARK  9 active torsions:
REMARK  status: ('A' for Active; 'I' for Inactive)
REMARK    1  A    between atoms: O_4  and  C_29
REMARK    2  A    between atoms: O_4  and  C_30
REMARK    3  A    between atoms: N_6  and  C_19
REMARK    4  A    between atoms: C_8  and  C_14
REMARK    5  A    between atoms: C_9  and  C_13
REMARK    6  A    between atoms: C_13  and  C_15
REMARK    7  A    between atoms: C_14  and  C_17
REMARK    8  A    between atoms: C_16  and  C_18
REMARK    9  A    between atoms: C_19  and  C_22
REMARK                            x       y       z     vdW  Elec       q    Type
REMARK                         _______ _______ _______ _____ _____    ______ ____
ROOT
ATOM      2  O   UNL     1      -4.244 -13.809   8.775  0.00  0.00    -0.270 OA
ATOM      5  N   UNL     1      -4.475 -12.299  10.546  0.00  0.00    -0.297 N 
ATOM      8  C   UNL     1      -3.002 -11.011  12.681  0.00  0.00    +0.004 C 
ATOM      9  C   UNL     1      -3.820 -10.177  11.661  0.00  0.00    +0.010 C 
ATOM     10  C   UNL     1      -2.547 -12.351  12.078  0.00  0.00    +0.023 C 
ATOM     11  C   UNL     1      -4.970 -11.027  11.091  0.00  0.00    +0.112 C 
ATOM     12  C   UNL     1      -3.726 -13.123  11.493  0.00  0.00    +0.108 C 
ATOM     16  C   UNL     1      -4.660 -12.749   9.237  0.00  0.00    +0.247 C 
ENDROOT
BRANCH  16  18
ATOM      1 CL   UNL     1      -9.104 -10.475   7.842  0.00  0.00    -0.062 Cl
ATOM      7  N   UNL     1      -6.862 -10.269   6.558  0.00  0.00    -0.244 NA
ATOM     18  C   UNL     1      -5.419 -11.895   8.315  0.00  0.00    +0.041 A 
ATOM     20  C   UNL     1      -6.768 -11.647   8.543  0.00  0.00    +0.053 A 
ATOM     21  C   UNL     1      -4.791 -11.331   7.210  0.00  0.00    +0.033 A 
ATOM     23  C   UNL     1      -7.438 -10.835   7.642  0.00  0.00    +0.130 A 
ATOM     24  C   UNL     1      -5.549 -10.533   6.370  0.00  0.00    +0.113 A 
ENDBRANCH  16  18
BRANCH   9  13
ATOM     13  C   UNL     1      -2.979  -9.587  10.522  0.00  0.00    +0.002 C 
ATOM     15  C   UNL     1      -3.844  -8.817   9.547  0.00  0.00    +0.004 C 
ENDBRANCH   9  13
BRANCH   8  14
ATOM     14  C   UNL     1      -1.810 -10.248  13.261  0.00  0.00    +0.099 C 
BRANCH  14  17
ATOM      3  O   UNL     1      -0.805 -10.038  15.451  0.00  0.00    -0.276 OA
ATOM      6  N   UNL     1      -3.066 -10.548  15.276  0.00  0.00    -0.311 N 
ATOM     17  C   UNL     1      -1.806 -10.257  14.774  0.00  0.00    +0.214 C 
ATOM     31  H   UNL     1      -3.839 -10.717  14.639  0.00  0.00    +0.149 HD
BRANCH   6  19
ATOM     19  C   UNL     1      -3.353 -10.625  16.691  0.00  0.00    +0.139 C 
BRANCH  19  22
ATOM     22  C   UNL     1      -4.801 -10.353  16.985  0.00  0.00    -0.030 A 
ATOM     25  C   UNL     1      -5.314 -10.607  18.257  0.00  0.00    +0.009 A 
ATOM     26  C   UNL     1      -5.631  -9.844  15.987  0.00  0.00    +0.009 A 
ATOM     27  C   UNL     1      -6.659 -10.354  18.530  0.00  0.00    +0.046 A 
ATOM     28  C   UNL     1      -6.976  -9.591  16.260  0.00  0.00    +0.046 A 
ATOM     29  C   UNL     1      -7.489  -9.846  17.532  0.00  0.00    +0.120 A 
BRANCH  29   4
ATOM      4  O   UNL     1      -8.801  -9.597  17.798  0.00  0.00    -0.495 OA
ATOM     30  C   UNL     1      -9.358  -8.400  17.258  0.00  0.00    +0.277 C 
ENDBRANCH  29   4
ENDBRANCH  19  22
ENDBRANCH   6  19
ENDBRANCH  14  17
ENDBRANCH   8  14
TORSDOF 7
ENDMDL
MODEL 5
REMARK VINA RESULT:      -6.1      1.662      2.255
REMARK  Name = 11913161
REMARK  9 active torsions:
REMARK  status: ('A' for Active; 'I' for Inactive)
REMARK    1  A    between atoms: O_4  and  C_29
REMARK    2  A    between atoms: O_4  and  C_30
REMARK    3  A    between atoms: N_6  and  C_19
REMARK    4  A    between atoms: C_8  and  C_14
REMARK    5  A    between atoms: C_9  and  C_13
REMARK    6  A    between atoms: C_13  and  C_15
REMARK    7  A    between atoms: C_14  and  C_17
REMARK    8  A    between atoms: C_16  and  C_18
REMARK    9  A    between atoms: C_19  and  C_22
REMARK                            x       y       z     vdW  Elec       q    Type
REMARK                         _______ _______ _______ _____ _____    ______ ____
ROOT
ATOM      2  O   UNL     1     -10.228 -10.542  18.591  0.00  0.00    -0.270 OA
ATOM      5  N   UNL     1      -8.065  -9.962  17.915  0.00  0.00    -0.297 N 
ATOM      8  C   UNL     1      -5.456 -11.078  17.338  0.00  0.00    +0.004 C 
ATOM      9  C   UNL     1      -6.185 -10.181  16.305  0.00  0.00    +0.010 C 
ATOM     10  C   UNL     1      -6.451 -11.789  18.271  0.00  0.00    +0.023 C 
ATOM     11  C   UNL     1      -7.152  -9.226  17.028  0.00  0.00    +0.112 C 
ATOM     12  C   UNL     1      -7.408 -10.793  18.921  0.00  0.00    +0.108 C 
ATOM     16  C   UNL     1      -9.460  -9.925  17.856  0.00  0.00    +0.247 C 
ENDROOT
BRANCH  16  18
ATOM      1 CL   UNL     1     -11.791  -9.412  13.255  0.00  0.00    -0.062 Cl
ATOM      7  N   UNL     1     -11.275  -7.464  14.885  0.00  0.00    -0.244 NA
ATOM     18  C   UNL     1     -10.085  -9.078  16.833  0.00  0.00    +0.041 A 
ATOM     20  C   UNL     1     -10.578  -9.645  15.662  0.00  0.00    +0.053 A 
ATOM     21  C   UNL     1     -10.187  -7.706  17.031  0.00  0.00    +0.033 A 
ATOM     23  C   UNL     1     -11.157  -8.801  14.729  0.00  0.00    +0.130 A 
ATOM     24  C   UNL     1     -10.785  -6.949  16.036  0.00  0.00    +0.113 A 
ENDBRANCH  16  18
BRANCH   9  13
ATOM     13  C   UNL     1      -6.927 -10.964  15.214  0.00  0.00    +0.002 C 
ATOM     15  C   UNL     1      -7.407 -10.043  14.112  0.00  0.00    +0.004 C 
ENDBRANCH   9  13
BRANCH   8  14
ATOM     14  C   UNL     1      -4.507 -12.087  16.692  0.00  0.00    +0.099 C 
BRANCH  14  17
ATOM      3  O   UNL     1      -2.584 -10.623  16.579  0.00  0.00    -0.276 OA
ATOM      6  N   UNL     1      -3.226 -11.815  14.689  0.00  0.00    -0.311 N 
ATOM     17  C   UNL     1      -3.332 -11.417  16.014  0.00  0.00    +0.214 C 
ATOM     31  H   UNL     1      -3.892 -12.477  14.304  0.00  0.00    +0.149 HD
BRANCH   6  19
ATOM     19  C   UNL     1      -2.195 -11.329  13.799  0.00  0.00    +0.139 C 
BRANCH  19  22
ATOM     22  C   UNL     1      -2.771 -10.608  12.614  0.00  0.00    -0.030 A 
ATOM     25  C   UNL     1      -1.923 -10.043  11.662  0.00  0.00    +0.009 A 
ATOM     26  C   UNL     1      -4.154 -10.507  12.464  0.00  0.00    +0.009 A 
ATOM     27  C   UNL     1      -2.458  -9.374  10.560  0.00  0.00    +0.046 A 
ATOM     28  C   UNL     1      -4.689  -9.838  11.363  0.00  0.00    +0.046 A 
ATOM     29  C   UNL     1      -3.841  -9.272  10.411  0.00  0.00    +0.120 A 
BRANCH  29   4
ATOM      4  O   UNL     1      -4.363  -8.621   9.336  0.00  0.00    -0.495 OA
ATOM     30  C   UNL     1      -5.002  -9.418   8.340  0.00  0.00    +0.277 C 
ENDBRANCH  29   4
ENDBRANCH  19  22
ENDBRANCH   6  19
ENDBRANCH  14  17
ENDBRANCH   8  14
TORSDOF 7
ENDMDL
MODEL 6
REMARK VINA RESULT:      -6.1     27.814     30.414
REMARK  Name = 11913161
REMARK  9 active torsions:
REMARK  status: ('A' for Active; 'I' for Inactive)
REMARK    1  A    between atoms: O_4  and  C_29
REMARK    2  A    between atoms: O_4  and  C_30
REMARK    3  A    between atoms: N_6  and  C_19
REMARK    4  A    between atoms: C_8  and  C_14
REMARK    5  A    between atoms: C_9  and  C_13
REMARK    6  A    between atoms: C_13  and  C_15
REMARK    7  A    between atoms: C_14  and  C_17
REMARK    8  A    between atoms: C_16  and  C_18
REMARK    9  A    between atoms: C_19  and  C_22
REMARK                            x       y       z     vdW  Elec       q    Type
REMARK                         _______ _______ _______ _____ _____    ______ ____
ROOT
ATOM      2  O   UNL     1      15.067   6.895  17.509  0.00  0.00    -0.270 OA
ATOM      5  N   UNL     1      15.952   6.534  19.643  0.00  0.00    -0.297 N 
ATOM      8  C   UNL     1      18.427   6.579  21.147  0.00  0.00    +0.004 C 
ATOM      9  C   UNL     1      17.186   7.376  21.629  0.00  0.00    +0.010 C 
ATOM     10  C   UNL     1      18.411   6.378  19.622  0.00  0.00    +0.023 C 
ATOM     11  C   UNL     1      15.901   6.714  21.101  0.00  0.00    +0.112 C 
ATOM     12  C   UNL     1      17.094   5.760  19.160  0.00  0.00    +0.108 C 
ATOM     16  C   UNL     1      15.025   7.038  18.729  0.00  0.00    +0.247 C 
ENDROOT
BRANCH  16  18
ATOM      1 CL   UNL     1      10.586   7.258  21.396  0.00  0.00    -0.062 Cl
ATOM      7  N   UNL     1      11.731   9.279  20.245  0.00  0.00    -0.244 NA
ATOM     18  C   UNL     1      13.891   7.809  19.251  0.00  0.00    +0.041 A 
ATOM     20  C   UNL     1      12.902   7.178  19.998  0.00  0.00    +0.053 A 
ATOM     21  C   UNL     1      13.801   9.173  19.001  0.00  0.00    +0.033 A 
ATOM     23  C   UNL     1      11.852   7.952  20.467  0.00  0.00    +0.130 A 
ATOM     24  C   UNL     1      12.711   9.858  19.515  0.00  0.00    +0.113 A 
ENDBRANCH  16  18
BRANCH   9  13
ATOM     13  C   UNL     1      17.215   8.862  21.250  0.00  0.00    +0.002 C 
ATOM     15  C   UNL     1      16.032   9.599  21.842  0.00  0.00    +0.004 C 
ENDBRANCH   9  13
BRANCH   8  14
ATOM     14  C   UNL     1      19.750   7.201  21.595  0.00  0.00    +0.099 C 
BRANCH  14  17
ATOM      3  O   UNL     1      21.642   7.287  20.091  0.00  0.00    -0.276 OA
ATOM      6  N   UNL     1      21.100   5.280  21.130  0.00  0.00    -0.311 N 
ATOM     17  C   UNL     1      20.935   6.628  20.848  0.00  0.00    +0.214 C 
ATOM     31  H   UNL     1      20.464   4.815  21.770  0.00  0.00    +0.149 HD
BRANCH   6  19
ATOM     19  C   UNL     1      22.153   4.476  20.552  0.00  0.00    +0.139 C 
BRANCH  19  22
ATOM     22  C   UNL     1      22.685   3.465  21.526  0.00  0.00    -0.030 A 
ATOM     25  C   UNL     1      22.295   3.512  22.864  0.00  0.00    +0.009 A 
ATOM     26  C   UNL     1      23.569   2.476  21.092  0.00  0.00    +0.009 A 
ATOM     27  C   UNL     1      22.790   2.572  23.769  0.00  0.00    +0.046 A 
ATOM     28  C   UNL     1      24.063   1.536  21.996  0.00  0.00    +0.046 A 
ATOM     29  C   UNL     1      23.674   1.584  23.335  0.00  0.00    +0.120 A 
BRANCH  29   4
ATOM      4  O   UNL     1      24.155   0.666  24.217  0.00  0.00    -0.495 OA
ATOM     30  C   UNL     1      23.204  -0.005  25.041  0.00  0.00    +0.277 C 
ENDBRANCH  29   4
ENDBRANCH  19  22
ENDBRANCH   6  19
ENDBRANCH  14  17
ENDBRANCH   8  14
TORSDOF 7
ENDMDL
MODEL 7
REMARK VINA RESULT:      -6.1     28.080     30.277
REMARK  Name = 11913161
REMARK  9 active torsions:
REMARK  status: ('A' for Active; 'I' for Inactive)
REMARK    1  A    between atoms: O_4  and  C_29
REMARK    2  A    between atoms: O_4  and  C_30
REMARK    3  A    between atoms: N_6  and  C_19
REMARK    4  A    between atoms: C_8  and  C_14
REMARK    5  A    between atoms: C_9  and  C_13
REMARK    6  A    between atoms: C_13  and  C_15
REMARK    7  A    between atoms: C_14  and  C_17
REMARK    8  A    between atoms: C_16  and  C_18
REMARK    9  A    between atoms: C_19  and  C_22
REMARK                            x       y       z     vdW  Elec       q    Type
REMARK                         _______ _______ _______ _____ _____    ______ ____
ROOT
ATOM      2  O   UNL     1      11.140   8.088  19.990  0.00  0.00    -0.270 OA
ATOM      5  N   UNL     1      13.151   7.869  21.164  0.00  0.00    -0.297 N 
ATOM      8  C   UNL     1      15.948   7.193  20.833  0.00  0.00    +0.004 C 
ATOM      9  C   UNL     1      15.524   8.525  21.504  0.00  0.00    +0.010 C 
ATOM     10  C   UNL     1      14.872   6.685  19.858  0.00  0.00    +0.023 C 
ATOM     11  C   UNL     1      14.130   8.372  22.139  0.00  0.00    +0.112 C 
ATOM     12  C   UNL     1      13.508   6.598  20.536  0.00  0.00    +0.108 C 
ATOM     16  C   UNL     1      11.958   8.503  20.809  0.00  0.00    +0.247 C 
ENDROOT
BRANCH  16  18
ATOM      1 CL   UNL     1      11.959  13.686  20.801  0.00  0.00    -0.062 Cl
ATOM      7  N   UNL     1      11.014  12.202  22.705  0.00  0.00    -0.244 NA
ATOM     18  C   UNL     1      11.633   9.776  21.461  0.00  0.00    +0.041 A 
ATOM     20  C   UNL     1      11.942  10.980  20.836  0.00  0.00    +0.053 A 
ATOM     21  C   UNL     1      11.016   9.784  22.706  0.00  0.00    +0.033 A 
ATOM     23  C   UNL     1      11.615  12.154  21.495  0.00  0.00    +0.130 A 
ATOM     24  C   UNL     1      10.729  11.012  23.281  0.00  0.00    +0.113 A 
ENDBRANCH  16  18
BRANCH   9  13
ATOM     13  C   UNL     1      15.550   9.734  20.560  0.00  0.00    +0.002 C 
ATOM     15  C   UNL     1      15.653  11.030  21.336  0.00  0.00    +0.004 C 
ENDBRANCH   9  13
BRANCH   8  14
ATOM     14  C   UNL     1      17.308   7.277  20.140  0.00  0.00    +0.099 C 
BRANCH  14  17
ATOM      3  O   UNL     1      18.919   8.763  21.164  0.00  0.00    -0.276 OA
ATOM      6  N   UNL     1      18.789   6.553  21.875  0.00  0.00    -0.311 N 
ATOM     17  C   UNL     1      18.419   7.643  21.100  0.00  0.00    +0.214 C 
ATOM     31  H   UNL     1      18.320   5.661  21.752  0.00  0.00    +0.149 HD
BRANCH   6  19
ATOM     19  C   UNL     1      19.830   6.614  22.876  0.00  0.00    +0.139 C 
BRANCH  19  22
ATOM     22  C   UNL     1      21.081   5.915  22.427  0.00  0.00    -0.030 A 
ATOM     25  C   UNL     1      21.047   5.066  21.320  0.00  0.00    +0.009 A 
ATOM     26  C   UNL     1      22.277   6.116  23.115  0.00  0.00    +0.009 A 
ATOM     27  C   UNL     1      22.210   4.417  20.903  0.00  0.00    +0.046 A 
ATOM     28  C   UNL     1      23.440   5.467  22.698  0.00  0.00    +0.046 A 
ATOM     29  C   UNL     1      23.406   4.617  21.592  0.00  0.00    +0.120 A 
BRANCH  29   4
ATOM      4  O   UNL     1      24.540   3.985  21.185  0.00  0.00    -0.495 OA
ATOM     30  C   UNL     1      24.800   3.956  19.782  0.00  0.00    +0.277 C 
ENDBRANCH  29   4
ENDBRANCH  19  22
ENDBRANCH   6  19
ENDBRANCH  14  17
ENDBRANCH   8  14
TORSDOF 7
ENDMDL
MODEL 8
REMARK VINA RESULT:      -6.0     22.985     26.568
REMARK  Name = 11913161
REMARK  9 active torsions:
REMARK  status: ('A' for Active; 'I' for Inactive)
REMARK    1  A    between atoms: O_4  and  C_29
REMARK    2  A    between atoms: O_4  and  C_30
REMARK    3  A    between atoms: N_6  and  C_19
REMARK    4  A    between atoms: C_8  and  C_14
REMARK    5  A    between atoms: C_9  and  C_13
REMARK    6  A    between atoms: C_13  and  C_15
REMARK    7  A    between atoms: C_14  and  C_17
REMARK    8  A    between atoms: C_16  and  C_18
REMARK    9  A    between atoms: C_19  and  C_22
REMARK                            x       y       z     vdW  Elec       q    Type
REMARK                         _______ _______ _______ _____ _____    ______ ____
ROOT
ATOM      2  O   UNL     1     -10.608  11.823  35.253  0.00  0.00    -0.270 OA
ATOM      5  N   UNL     1     -10.784   9.947  33.866  0.00  0.00    -0.297 N 
ATOM      8  C   UNL     1     -12.674   7.999  32.859  0.00  0.00    +0.004 C 
ATOM      9  C   UNL     1     -11.786   8.822  31.891  0.00  0.00    +0.010 C 
ATOM     10  C   UNL     1     -12.913   8.747  34.181  0.00  0.00    +0.023 C 
ATOM     11  C   UNL     1     -10.492   9.252  32.604  0.00  0.00    +0.112 C 
ATOM     12  C   UNL     1     -11.595   9.185  34.814  0.00  0.00    +0.108 C 
ATOM     16  C   UNL     1     -10.361  11.236  34.201  0.00  0.00    +0.247 C 
ENDROOT
BRANCH  16  18
ATOM      1 CL   UNL     1      -5.735  12.416  32.186  0.00  0.00    -0.062 Cl
ATOM      7  N   UNL     1      -8.001  13.371  31.366  0.00  0.00    -0.244 NA
ATOM     18  C   UNL     1      -9.548  11.970  33.225  0.00  0.00    +0.041 A 
ATOM     20  C   UNL     1      -8.166  11.821  33.214  0.00  0.00    +0.053 A 
ATOM     21  C   UNL     1     -10.157  12.820  32.309  0.00  0.00    +0.033 A 
ATOM     23  C   UNL     1      -7.445  12.537  32.273  0.00  0.00    +0.130 A 
ATOM     24  C   UNL     1      -9.347  13.491  31.408  0.00  0.00    +0.113 A 
ENDBRANCH  16  18
BRANCH   9  13
ATOM     13  C   UNL     1     -12.490  10.041  31.283  0.00  0.00    +0.002 C 
ATOM     15  C   UNL     1     -11.871  10.424  29.956  0.00  0.00    +0.004 C 
ENDBRANCH   9  13
BRANCH   8  14
ATOM     14  C   UNL     1     -14.003   7.569  32.235  0.00  0.00    +0.099 C 
BRANCH  14  17
ATOM      3  O   UNL     1     -15.659   6.423  33.575  0.00  0.00    -0.276 OA
ATOM      6  N   UNL     1     -13.820   5.245  32.778  0.00  0.00    -0.311 N 
ATOM     17  C   UNL     1     -14.608   6.375  32.941  0.00  0.00    +0.214 C 
ATOM     31  H   UNL     1     -12.964   5.299  32.236  0.00  0.00    +0.149 HD
BRANCH   6  19
ATOM     19  C   UNL     1     -14.156   3.960  33.348  0.00  0.00    +0.139 C 
BRANCH  19  22
ATOM     22  C   UNL     1     -14.277   2.894  32.298  0.00  0.00    -0.030 A 
ATOM     25  C   UNL     1     -14.043   3.205  30.958  0.00  0.00    +0.009 A 
ATOM     26  C   UNL     1     -14.620   1.592  32.661  0.00  0.00    +0.009 A 
ATOM     27  C   UNL     1     -14.155   2.215  29.982  0.00  0.00    +0.046 A 
ATOM     28  C   UNL     1     -14.732   0.602  31.685  0.00  0.00    +0.046 A 
ATOM     29  C   UNL     1     -14.499   0.913  30.345  0.00  0.00    +0.120 A 
BRANCH  29   4
ATOM      4  O   UNL     1     -14.607  -0.054  29.394  0.00  0.00    -0.495 OA
ATOM     30  C   UNL     1     -13.572  -1.034  29.342  0.00  0.00    +0.277 C 
ENDBRANCH  29   4
ENDBRANCH  19  22
ENDBRANCH   6  19
ENDBRANCH  14  17
ENDBRANCH   8  14
TORSDOF 7
ENDMDL
MODEL 9
REMARK VINA RESULT:      -5.9     19.755     22.070
REMARK  Name = 11913161
REMARK  9 active torsions:
REMARK  status: ('A' for Active; 'I' for Inactive)
REMARK    1  A    between atoms: O_4  and  C_29
REMARK    2  A    between atoms: O_4  and  C_30
REMARK    3  A    between atoms: N_6  and  C_19
REMARK    4  A    between atoms: C_8  and  C_14
REMARK    5  A    between atoms: C_9  and  C_13
REMARK    6  A    between atoms: C_13  and  C_15
REMARK    7  A    between atoms: C_14  and  C_17
REMARK    8  A    between atoms: C_16  and  C_18
REMARK    9  A    between atoms: C_19  and  C_22
REMARK                            x       y       z     vdW  Elec       q    Type
REMARK                         _______ _______ _______ _____ _____    ______ ____
ROOT
ATOM      2  O   UNL     1     -13.854   2.073  32.810  0.00  0.00    -0.270 OA
ATOM      5  N   UNL     1     -14.457   2.635  30.622  0.00  0.00    -0.297 N 
ATOM      8  C   UNL     1     -15.910   1.664  28.312  0.00  0.00    +0.004 C 
ATOM      9  C   UNL     1     -16.217   3.058  28.918  0.00  0.00    +0.010 C 
ATOM     10  C   UNL     1     -15.333   0.705  29.366  0.00  0.00    +0.023 C 
ATOM     11  C   UNL     1     -14.971   3.602  29.640  0.00  0.00    +0.112 C 
ATOM     12  C   UNL     1     -14.129   1.320  30.075  0.00  0.00    +0.108 C 
ATOM     16  C   UNL     1     -14.278   2.880  31.985  0.00  0.00    +0.247 C 
ENDROOT
BRANCH  16  18
ATOM      1 CL   UNL     1     -12.929   7.776  33.016  0.00  0.00    -0.062 Cl
ATOM      7  N   UNL     1     -15.264   6.749  33.476  0.00  0.00    -0.244 NA
ATOM     18  C   UNL     1     -14.617   4.212  32.498  0.00  0.00    +0.041 A 
ATOM     20  C   UNL     1     -13.666   5.227  32.489  0.00  0.00    +0.053 A 
ATOM     21  C   UNL     1     -15.890   4.464  32.995  0.00  0.00    +0.033 A 
ATOM     23  C   UNL     1     -14.037   6.465  32.985  0.00  0.00    +0.130 A 
ATOM     24  C   UNL     1     -16.162   5.738  33.468  0.00  0.00    +0.113 A 
ENDBRANCH  16  18
BRANCH   9  13
ATOM     13  C   UNL     1     -17.428   3.075  29.860  0.00  0.00    +0.002 C 
ATOM     15  C   UNL     1     -18.273   4.312  29.639  0.00  0.00    +0.004 C 
ENDBRANCH   9  13
BRANCH   8  14
ATOM     14  C   UNL     1     -17.115   1.036  27.613  0.00  0.00    +0.099 C 
BRANCH  14  17
ATOM      3  O   UNL     1     -16.392   0.455  25.379  0.00  0.00    -0.276 OA
ATOM      6  N   UNL     1     -17.822   2.262  25.683  0.00  0.00    -0.311 N 
ATOM     17  C   UNL     1     -17.051   1.190  26.109  0.00  0.00    +0.214 C 
ATOM     31  H   UNL     1     -18.335   2.818  26.360  0.00  0.00    +0.149 HD
BRANCH   6  19
ATOM     19  C   UNL     1     -17.943   2.644  24.294  0.00  0.00    +0.139 C 
BRANCH  19  22
ATOM     22  C   UNL     1     -17.076   3.823  23.959  0.00  0.00    -0.030 A 
ATOM     25  C   UNL     1     -15.687   3.687  23.946  0.00  0.00    +0.009 A 
ATOM     26  C   UNL     1     -17.658   5.054  23.659  0.00  0.00    +0.009 A 
ATOM     27  C   UNL     1     -14.881   4.782  23.634  0.00  0.00    +0.046 A 
ATOM     28  C   UNL     1     -16.852   6.150  23.347  0.00  0.00    +0.046 A 
ATOM     29  C   UNL     1     -15.464   6.014  23.335  0.00  0.00    +0.120 A 
BRANCH  29   4
ATOM      4  O   UNL     1     -14.678   7.082  23.030  0.00  0.00    -0.495 OA
ATOM     30  C   UNL     1     -14.254   7.211  21.674  0.00  0.00    +0.277 C 
ENDBRANCH  29   4
ENDBRANCH  19  22
ENDBRANCH   6  19
ENDBRANCH  14  17
ENDBRANCH   8  14
TORSDOF 7
ENDMDL
MODEL 10
REMARK VINA RESULT:      -5.9      2.552      3.243
REMARK  Name = 11913161
REMARK  9 active torsions:
REMARK  status: ('A' for Active; 'I' for Inactive)
REMARK    1  A    between atoms: O_4  and  C_29
REMARK    2  A    between atoms: O_4  and  C_30
REMARK    3  A    between atoms: N_6  and  C_19
REMARK    4  A    between atoms: C_8  and  C_14
REMARK    5  A    between atoms: C_9  and  C_13
REMARK    6  A    between atoms: C_13  and  C_15
REMARK    7  A    between atoms: C_14  and  C_17
REMARK    8  A    between atoms: C_16  and  C_18
REMARK    9  A    between atoms: C_19  and  C_22
REMARK                            x       y       z     vdW  Elec       q    Type
REMARK                         _______ _______ _______ _____ _____    ______ ____
ROOT
ATOM      2  O   UNL     1      -8.538 -13.214  15.722  0.00  0.00    -0.270 OA
ATOM      5  N   UNL     1      -6.446 -13.072  16.757  0.00  0.00    -0.297 N 
ATOM      8  C   UNL     1      -3.852 -11.803  16.540  0.00  0.00    +0.004 C 
ATOM      9  C   UNL     1      -4.677 -11.711  17.850  0.00  0.00    +0.010 C 
ATOM     10  C   UNL     1      -4.759 -12.003  15.314  0.00  0.00    +0.023 C 
ATOM     11  C   UNL     1      -5.618 -12.924  17.963  0.00  0.00    +0.112 C 
ATOM     12  C   UNL     1      -5.696 -13.192  15.508  0.00  0.00    +0.108 C 
ATOM     16  C   UNL     1      -7.842 -13.096  16.728  0.00  0.00    +0.247 C 
ENDROOT
BRANCH  16  18
ATOM      1 CL   UNL     1     -10.552 -10.248  20.105  0.00  0.00    -0.062 Cl
ATOM      7  N   UNL     1      -9.929 -12.744  20.428  0.00  0.00    -0.244 NA
ATOM     18  C   UNL     1      -8.561 -12.974  18.001  0.00  0.00    +0.041 A 
ATOM     20  C   UNL     1      -9.141 -11.763  18.363  0.00  0.00    +0.053 A 
ATOM     21  C   UNL     1      -8.664 -14.070  18.851  0.00  0.00    +0.033 A 
ATOM     23  C   UNL     1      -9.807 -11.702  19.576  0.00  0.00    +0.130 A 
ATOM     24  C   UNL     1      -9.352 -13.904  20.043  0.00  0.00    +0.113 A 
ENDBRANCH  16  18
BRANCH   9  13
ATOM     13  C   UNL     1      -5.469 -10.406  17.997  0.00  0.00    +0.002 C 
ATOM     15  C   UNL     1      -6.085 -10.294  19.375  0.00  0.00    +0.004 C 
ENDBRANCH   9  13
BRANCH   8  14
ATOM     14  C   UNL     1      -2.921 -10.608  16.333  0.00  0.00    +0.099 C 
BRANCH  14  17
ATOM      3  O   UNL     1      -0.962 -11.510  15.237  0.00  0.00    -0.276 OA
ATOM      6  N   UNL     1      -2.395 -10.115  14.051  0.00  0.00    -0.311 N 
ATOM     17  C   UNL     1      -1.972 -10.814  15.172  0.00  0.00    +0.214 C 
ATOM     31  H   UNL     1      -3.245  -9.562  14.089  0.00  0.00    +0.149 HD
BRANCH   6  19
ATOM     19  C   UNL     1      -1.677 -10.128  12.796  0.00  0.00    +0.139 C 
BRANCH  19  22
ATOM     22  C   UNL     1      -2.565 -10.503  11.645  0.00  0.00    -0.030 A 
ATOM     25  C   UNL     1      -2.942  -9.538  10.711  0.00  0.00    +0.009 A 
ATOM     26  C   UNL     1      -3.012 -11.818  11.509  0.00  0.00    +0.009 A 
ATOM     27  C   UNL     1      -3.768  -9.887   9.642  0.00  0.00    +0.046 A 
ATOM     28  C   UNL     1      -3.837 -12.166  10.439  0.00  0.00    +0.046 A 
ATOM     29  C   UNL     1      -4.215 -11.201   9.506  0.00  0.00    +0.120 A 
BRANCH  29   4
ATOM      4  O   UNL     1      -5.019 -11.541   8.462  0.00  0.00    -0.495 OA
ATOM     30  C   UNL     1      -4.941 -10.732   7.290  0.00  0.00    +0.277 C 
ENDBRANCH  29   4
ENDBRANCH  19  22
ENDBRANCH   6  19
ENDBRANCH  14  17
ENDBRANCH   8  14
TORSDOF 7
ENDMDL
