MODEL 1
REMARK VINA RESULT:      -6.5      0.000      0.000
REMARK  Name = 7155435
REMARK  3 active torsions:
REMARK  status: ('A' for Active; 'I' for Inactive)
REMARK    1  A    between atoms: S_1  and  N_6
REMARK    2  A    between atoms: S_1  and  C_20
REMARK    3  A    between atoms: C_15  and  C_19
REMARK                            x       y       z     vdW  Elec       q    Type
REMARK                         _______ _______ _______ _____ _____    ______ ____
ROOT
ATOM      5  O   UNL     1      -4.027 -12.923  19.248  0.00  0.00    -0.268 OA
ATOM      6  N   UNL     1      -5.862 -12.029  14.735  0.00  0.00    -0.175 NA
ATOM      7  N   UNL     1      -5.865 -12.632  17.826  0.00  0.00    -0.311 N 
ATOM      8  C   UNL     1      -6.302 -14.210  15.854  0.00  0.00    +0.025 C 
ATOM      9  C   UNL     1      -7.807 -12.314  16.261  0.00  0.00    +0.053 C 
ATOM     10  C   UNL     1      -7.758 -13.827  16.058  0.00  0.00    +0.017 C 
ATOM     11  C   UNL     1      -5.719 -13.507  14.618  0.00  0.00    +0.114 C 
ATOM     12  C   UNL     1      -7.270 -11.610  15.000  0.00  0.00    +0.119 C 
ATOM     13  C   UNL     1      -5.527 -13.880  17.130  0.00  0.00    +0.130 C 
ATOM     14  C   UNL     1      -7.016 -11.886  17.500  0.00  0.00    +0.034 A 
ATOM     15  C   UNL     1      -7.371 -10.821  18.264  0.00  0.00    +0.002 A 
ATOM     16  C   UNL     1      -5.033 -12.299  18.910  0.00  0.00    +0.252 A 
ATOM     17  C   UNL     1      -6.534 -10.444  19.388  0.00  0.00    +0.015 A 
ATOM     18  C   UNL     1      -5.424 -11.113  19.705  0.00  0.00    +0.071 A 
ENDROOT
BRANCH  15  19
ATOM     19  C   UNL     1      -8.580 -10.020  17.973  0.00  0.00    -0.016 A 
ATOM     22  C   UNL     1      -8.483  -8.888  17.170  0.00  0.00    +0.008 A 
ATOM     23  C   UNL     1      -9.808 -10.405  18.504  0.00  0.00    +0.008 A 
ATOM     26  C   UNL     1      -9.623  -8.133  16.895  0.00  0.00    +0.001 A 
ATOM     27  C   UNL     1     -10.949  -9.650  18.229  0.00  0.00    +0.001 A 
ATOM     28  C   UNL     1     -10.856  -8.515  17.425  0.00  0.00    +0.000 A 
ENDBRANCH  15  19
BRANCH   6   1
ATOM      1  S   UNL     1      -5.023 -11.107  13.564  0.00  0.00    +0.067 S 
ATOM      3  O   UNL     1      -5.711  -9.848  13.369  0.00  0.00    -0.152 OA
ATOM      4  O   UNL     1      -4.696 -11.959  12.439  0.00  0.00    -0.152 OA
BRANCH   1  20
ATOM      2  S   UNL     1      -2.185 -10.412  13.452  0.00  0.00    -0.077 S 
ATOM     20  C   UNL     1      -3.529 -10.774  14.443  0.00  0.00    +0.143 A 
ATOM     21  C   UNL     1      -3.218 -10.744  15.781  0.00  0.00    +0.036 A 
ATOM     24  C   UNL     1      -1.849 -10.418  15.998  0.00  0.00    +0.010 A 
ATOM     25  C   UNL     1      -1.172 -10.212  14.817  0.00  0.00    +0.047 A 
ENDBRANCH   1  20
ENDBRANCH   6   1
TORSDOF 3
ENDMDL
MODEL 2
REMARK VINA RESULT:      -6.5      2.758      4.309
REMARK  Name = 7155435
REMARK  3 active torsions:
REMARK  status: ('A' for Active; 'I' for Inactive)
REMARK    1  A    between atoms: S_1  and  N_6
REMARK    2  A    between atoms: S_1  and  C_20
REMARK    3  A    between atoms: C_15  and  C_19
REMARK                            x       y       z     vdW  Elec       q    Type
REMARK                         _______ _______ _______ _____ _____    ______ ____
ROOT
ATOM      5  O   UNL     1      -1.093 -12.241  13.420  0.00  0.00    -0.268 OA
ATOM      6  N   UNL     1      -6.004 -11.829  12.931  0.00  0.00    -0.175 NA
ATOM      7  N   UNL     1      -3.250 -12.561  14.273  0.00  0.00    -0.311 N 
ATOM      8  C   UNL     1      -4.949 -14.079  13.095  0.00  0.00    +0.025 C 
ATOM      9  C   UNL     1      -5.586 -12.887  15.145  0.00  0.00    +0.053 C 
ATOM     10  C   UNL     1      -5.529 -14.264  14.488  0.00  0.00    +0.017 C 
ATOM     11  C   UNL     1      -5.832 -13.145  12.254  0.00  0.00    +0.114 C 
ATOM     12  C   UNL     1      -6.514 -11.967  14.327  0.00  0.00    +0.119 C 
ATOM     13  C   UNL     1      -3.516 -13.560  13.229  0.00  0.00    +0.130 C 
ATOM     14  C   UNL     1      -4.192 -12.268  15.280  0.00  0.00    +0.034 A 
ATOM     15  C   UNL     1      -3.850 -11.450  16.308  0.00  0.00    +0.002 A 
ATOM     16  C   UNL     1      -1.957 -12.008  14.266  0.00  0.00    +0.252 A 
ATOM     17  C   UNL     1      -2.525 -10.857  16.332  0.00  0.00    +0.015 A 
ATOM     18  C   UNL     1      -1.623 -11.092  15.379  0.00  0.00    +0.071 A 
ENDROOT
BRANCH  15  19
ATOM     19  C   UNL     1      -4.796 -11.129  17.399  0.00  0.00    -0.016 A 
ATOM     22  C   UNL     1      -5.784 -10.170  17.198  0.00  0.00    +0.008 A 
ATOM     23  C   UNL     1      -4.693 -11.791  18.620  0.00  0.00    +0.008 A 
ATOM     26  C   UNL     1      -6.677  -9.869  18.226  0.00  0.00    +0.001 A 
ATOM     27  C   UNL     1      -5.586 -11.489  19.648  0.00  0.00    +0.001 A 
ATOM     28  C   UNL     1      -6.578 -10.529  19.451  0.00  0.00    +0.000 A 
ENDBRANCH  15  19
BRANCH   6   1
ATOM      1  S   UNL     1      -6.738 -10.602  11.992  0.00  0.00    +0.067 S 
ATOM      3  O   UNL     1      -7.199  -9.546  12.870  0.00  0.00    -0.152 OA
ATOM      4  O   UNL     1      -7.632 -11.214  11.032  0.00  0.00    -0.152 OA
BRANCH   1  20
ATOM      2  S   UNL     1      -5.690  -9.250   9.622  0.00  0.00    -0.077 S 
ATOM     20  C   UNL     1      -5.330  -9.998  11.115  0.00  0.00    +0.143 A 
ATOM     21  C   UNL     1      -3.985 -10.005  11.389  0.00  0.00    +0.036 A 
ATOM     24  C   UNL     1      -3.231  -9.383  10.353  0.00  0.00    +0.010 A 
ATOM     25  C   UNL     1      -4.034  -8.928   9.330  0.00  0.00    +0.047 A 
ENDBRANCH   1  20
ENDBRANCH   6   1
TORSDOF 3
ENDMDL
MODEL 3
REMARK VINA RESULT:      -6.4     25.912     28.595
REMARK  Name = 7155435
REMARK  3 active torsions:
REMARK  status: ('A' for Active; 'I' for Inactive)
REMARK    1  A    between atoms: S_1  and  N_6
REMARK    2  A    between atoms: S_1  and  C_20
REMARK    3  A    between atoms: C_15  and  C_19
REMARK                            x       y       z     vdW  Elec       q    Type
REMARK                         _______ _______ _______ _____ _____    ______ ____
ROOT
ATOM      5  O   UNL     1       7.182   9.016   4.067  0.00  0.00    -0.268 OA
ATOM      6  N   UNL     1      11.286   7.855   6.586  0.00  0.00    -0.175 NA
ATOM      7  N   UNL     1       8.785   7.437   4.718  0.00  0.00    -0.311 N 
ATOM      8  C   UNL     1       9.113   6.792   7.178  0.00  0.00    +0.025 C 
ATOM      9  C   UNL     1      10.527   5.777   5.446  0.00  0.00    +0.053 C 
ATOM     10  C   UNL     1       9.594   5.465   6.614  0.00  0.00    +0.017 C 
ATOM     11  C   UNL     1      10.296   7.636   7.677  0.00  0.00    +0.114 C 
ATOM     12  C   UNL     1      11.739   6.579   5.959  0.00  0.00    +0.119 C 
ATOM     13  C   UNL     1       8.299   7.513   6.102  0.00  0.00    +0.130 C 
ATOM     14  C   UNL     1       9.803   6.541   4.335  0.00  0.00    +0.034 A 
ATOM     15  C   UNL     1      10.118   6.397   3.021  0.00  0.00    +0.002 A 
ATOM     16  C   UNL     1       8.088   8.229   3.788  0.00  0.00    +0.252 A 
ATOM     17  C   UNL     1       9.424   7.202   2.033  0.00  0.00    +0.015 A 
ATOM     18  C   UNL     1       8.477   8.079   2.368  0.00  0.00    +0.071 A 
ENDROOT
BRANCH  15  19
ATOM     19  C   UNL     1      11.165   5.455   2.568  0.00  0.00    -0.016 A 
ATOM     22  C   UNL     1      10.893   4.092   2.517  0.00  0.00    +0.008 A 
ATOM     23  C   UNL     1      12.415   5.940   2.195  0.00  0.00    +0.008 A 
ATOM     26  C   UNL     1      11.880   3.204   2.088  0.00  0.00    +0.001 A 
ATOM     27  C   UNL     1      13.403   5.052   1.767  0.00  0.00    +0.001 A 
ATOM     28  C   UNL     1      13.134   3.684   1.714  0.00  0.00    +0.000 A 
ENDBRANCH  15  19
BRANCH   6   1
ATOM      1  S   UNL     1      12.518   8.995   6.919  0.00  0.00    +0.067 S 
ATOM      3  O   UNL     1      13.786   8.305   7.022  0.00  0.00    -0.152 OA
ATOM      4  O   UNL     1      12.066   9.884   7.969  0.00  0.00    -0.152 OA
BRANCH   1  20
ATOM      2  S   UNL     1      13.723  11.109   5.299  0.00  0.00    -0.077 S 
ATOM     20  C   UNL     1      12.519   9.901   5.404  0.00  0.00    +0.143 A 
ATOM     21  C   UNL     1      11.742   9.835   4.274  0.00  0.00    +0.036 A 
ATOM     24  C   UNL     1      12.141  10.795   3.300  0.00  0.00    +0.010 A 
ATOM     25  C   UNL     1      13.207  11.555   3.729  0.00  0.00    +0.047 A 
ENDBRANCH   1  20
ENDBRANCH   6   1
TORSDOF 3
ENDMDL
MODEL 4
REMARK VINA RESULT:      -6.3     25.249     28.241
REMARK  Name = 7155435
REMARK  3 active torsions:
REMARK  status: ('A' for Active; 'I' for Inactive)
REMARK    1  A    between atoms: S_1  and  N_6
REMARK    2  A    between atoms: S_1  and  C_20
REMARK    3  A    between atoms: C_15  and  C_19
REMARK                            x       y       z     vdW  Elec       q    Type
REMARK                         _______ _______ _______ _____ _____    ______ ____
ROOT
ATOM      5  O   UNL     1       8.586  10.452   3.078  0.00  0.00    -0.268 OA
ATOM      6  N   UNL     1      12.858   8.162   4.096  0.00  0.00    -0.175 NA
ATOM      7  N   UNL     1      10.017   9.416   4.616  0.00  0.00    -0.311 N 
ATOM      8  C   UNL     1      12.341  10.364   5.138  0.00  0.00    +0.025 C 
ATOM      9  C   UNL     1      11.587   8.299   6.231  0.00  0.00    +0.053 C 
ATOM     10  C   UNL     1      12.151   9.694   6.490  0.00  0.00    +0.017 C 
ATOM     11  C   UNL     1      13.323   9.567   4.266  0.00  0.00    +0.114 C 
ATOM     12  C   UNL     1      12.597   7.484   5.400  0.00  0.00    +0.119 C 
ATOM     13  C   UNL     1      10.973  10.523   4.475  0.00  0.00    +0.130 C 
ATOM     14  C   UNL     1      10.230   8.361   5.526  0.00  0.00    +0.034 A 
ATOM     15  C   UNL     1       9.254   7.438   5.732  0.00  0.00    +0.002 A 
ATOM     16  C   UNL     1       8.829   9.544   3.873  0.00  0.00    +0.252 A 
ATOM     17  C   UNL     1       8.016   7.535   4.979  0.00  0.00    +0.015 A 
ATOM     18  C   UNL     1       7.798   8.505   4.091  0.00  0.00    +0.071 A 
ENDROOT
BRANCH  15  19
ATOM     19  C   UNL     1       9.422   6.324   6.690  0.00  0.00    -0.016 A 
ATOM     22  C   UNL     1       9.230   6.547   8.050  0.00  0.00    +0.008 A 
ATOM     23  C   UNL     1       9.772   5.060   6.225  0.00  0.00    +0.008 A 
ATOM     26  C   UNL     1       9.388   5.496   8.954  0.00  0.00    +0.001 A 
ATOM     27  C   UNL     1       9.930   4.009   7.128  0.00  0.00    +0.001 A 
ATOM     28  C   UNL     1       9.738   4.227   8.492  0.00  0.00    +0.000 A 
ENDBRANCH  15  19
BRANCH   6   1
ATOM      1  S   UNL     1      13.707   7.234   2.936  0.00  0.00    +0.067 S 
ATOM      3  O   UNL     1      14.817   6.567   3.583  0.00  0.00    -0.152 OA
ATOM      4  O   UNL     1      13.912   8.038   1.749  0.00  0.00    -0.152 OA
BRANCH   1  20
ATOM      2  S   UNL     1      13.085   4.640   1.740  0.00  0.00    -0.077 S 
ATOM     20  C   UNL     1      12.488   6.014   2.563  0.00  0.00    +0.143 A 
ATOM     21  C   UNL     1      11.138   5.938   2.801  0.00  0.00    +0.036 A 
ATOM     24  C   UNL     1      10.580   4.727   2.298  0.00  0.00    +0.010 A 
ATOM     25  C   UNL     1      11.529   3.930   1.697  0.00  0.00    +0.047 A 
ENDBRANCH   1  20
ENDBRANCH   6   1
TORSDOF 3
ENDMDL
MODEL 5
REMARK VINA RESULT:      -6.3     25.334     27.856
REMARK  Name = 7155435
REMARK  3 active torsions:
REMARK  status: ('A' for Active; 'I' for Inactive)
REMARK    1  A    between atoms: S_1  and  N_6
REMARK    2  A    between atoms: S_1  and  C_20
REMARK    3  A    between atoms: C_15  and  C_19
REMARK                            x       y       z     vdW  Elec       q    Type
REMARK                         _______ _______ _______ _____ _____    ______ ____
ROOT
ATOM      5  O   UNL     1      22.178  -6.899  23.478  0.00  0.00    -0.268 OA
ATOM      6  N   UNL     1      19.650  -4.743  27.150  0.00  0.00    -0.175 NA
ATOM      7  N   UNL     1      21.030  -5.047  24.336  0.00  0.00    -0.311 N 
ATOM      8  C   UNL     1      21.845  -3.813  26.430  0.00  0.00    +0.025 C 
ATOM      9  C   UNL     1      19.791  -3.084  25.301  0.00  0.00    +0.053 C 
ATOM     10  C   UNL     1      21.149  -2.610  25.815  0.00  0.00    +0.017 C 
ATOM     11  C   UNL     1      21.024  -4.383  27.597  0.00  0.00    +0.114 C 
ATOM     12  C   UNL     1      18.950  -3.607  26.481  0.00  0.00    +0.119 C 
ATOM     13  C   UNL     1      22.091  -4.849  25.333  0.00  0.00    +0.130 C 
ATOM     14  C   UNL     1      19.940  -4.160  24.223  0.00  0.00    +0.034 A 
ATOM     15  C   UNL     1      19.063  -4.295  23.194  0.00  0.00    +0.002 A 
ATOM     16  C   UNL     1      21.238  -6.106  23.434  0.00  0.00    +0.252 A 
ATOM     17  C   UNL     1      19.242  -5.379  22.247  0.00  0.00    +0.015 A 
ATOM     18  C   UNL     1      20.247  -6.251  22.344  0.00  0.00    +0.071 A 
ENDROOT
BRANCH  15  19
ATOM     19  C   UNL     1      17.916  -3.377  23.022  0.00  0.00    -0.016 A 
ATOM     22  C   UNL     1      18.131  -2.078  22.573  0.00  0.00    +0.008 A 
ATOM     23  C   UNL     1      16.628  -3.820  23.309  0.00  0.00    +0.008 A 
ATOM     26  C   UNL     1      17.049  -1.213  22.410  0.00  0.00    +0.001 A 
ATOM     27  C   UNL     1      15.546  -2.955  23.146  0.00  0.00    +0.001 A 
ATOM     28  C   UNL     1      15.757  -1.652  22.696  0.00  0.00    +0.000 A 
ENDBRANCH  15  19
BRANCH   6   1
ATOM      1  S   UNL     1      18.713  -5.632  28.272  0.00  0.00    +0.067 S 
ATOM      3  O   UNL     1      17.858  -4.720  29.003  0.00  0.00    -0.152 OA
ATOM      4  O   UNL     1      19.573  -6.566  28.968  0.00  0.00    -0.152 OA
BRANCH   1  20
ATOM      2  S   UNL     1      16.545  -7.562  27.926  0.00  0.00    -0.077 S 
ATOM     20  C   UNL     1      17.695  -6.554  27.164  0.00  0.00    +0.143 A 
ATOM     21  C   UNL     1      17.634  -6.630  25.794  0.00  0.00    +0.036 A 
ATOM     24  C   UNL     1      16.623  -7.534  25.359  0.00  0.00    +0.010 A 
ATOM     25  C   UNL     1      15.954  -8.111  26.416  0.00  0.00    +0.047 A 
ENDBRANCH   1  20
ENDBRANCH   6   1
TORSDOF 3
ENDMDL
MODEL 6
REMARK VINA RESULT:      -6.3     25.284     27.717
REMARK  Name = 7155435
REMARK  3 active torsions:
REMARK  status: ('A' for Active; 'I' for Inactive)
REMARK    1  A    between atoms: S_1  and  N_6
REMARK    2  A    between atoms: S_1  and  C_20
REMARK    3  A    between atoms: C_15  and  C_19
REMARK                            x       y       z     vdW  Elec       q    Type
REMARK                         _______ _______ _______ _____ _____    ______ ____
ROOT
ATOM      5  O   UNL     1      19.514  -5.020  21.253  0.00  0.00    -0.268 OA
ATOM      6  N   UNL     1      18.927  -1.973  25.112  0.00  0.00    -0.175 NA
ATOM      7  N   UNL     1      18.230  -4.252  23.053  0.00  0.00    -0.311 N 
ATOM      8  C   UNL     1      17.382  -1.834  23.165  0.00  0.00    +0.025 C 
ATOM      9  C   UNL     1      16.886  -3.391  24.996  0.00  0.00    +0.053 C 
ATOM     10  C   UNL     1      16.256  -2.422  24.000  0.00  0.00    +0.017 C 
ATOM     11  C   UNL     1      18.385  -1.080  24.051  0.00  0.00    +0.114 C 
ATOM     12  C   UNL     1      17.852  -2.622  25.918  0.00  0.00    +0.119 C 
ATOM     13  C   UNL     1      18.043  -2.964  22.373  0.00  0.00    +0.130 C 
ATOM     14  C   UNL     1      17.611  -4.538  24.287  0.00  0.00    +0.034 A 
ATOM     15  C   UNL     1      17.690  -5.790  24.809  0.00  0.00    +0.002 A 
ATOM     16  C   UNL     1      18.967  -5.213  22.339  0.00  0.00    +0.252 A 
ATOM     17  C   UNL     1      18.446  -6.806  24.101  0.00  0.00    +0.015 A 
ATOM     18  C   UNL     1      19.066  -6.558  22.947  0.00  0.00    +0.071 A 
ENDROOT
BRANCH  15  19
ATOM     19  C   UNL     1      17.040  -6.144  26.090  0.00  0.00    -0.016 A 
ATOM     22  C   UNL     1      17.721  -5.947  27.287  0.00  0.00    +0.008 A 
ATOM     23  C   UNL     1      15.751  -6.669  26.088  0.00  0.00    +0.008 A 
ATOM     26  C   UNL     1      17.107  -6.281  28.495  0.00  0.00    +0.001 A 
ATOM     27  C   UNL     1      15.138  -7.002  27.296  0.00  0.00    +0.001 A 
ATOM     28  C   UNL     1      15.816  -6.808  28.499  0.00  0.00    +0.000 A 
ENDBRANCH  15  19
BRANCH   6   1
ATOM      1  S   UNL     1      20.247  -1.349  26.005  0.00  0.00    +0.067 S 
ATOM      3  O   UNL     1      19.898  -1.321  27.410  0.00  0.00    -0.152 OA
ATOM      4  O   UNL     1      20.748  -0.165  25.339  0.00  0.00    -0.152 OA
BRANCH   1  20
ATOM      2  S   UNL     1      23.035  -2.218  26.138  0.00  0.00    -0.077 S 
ATOM     20  C   UNL     1      21.422  -2.644  25.766  0.00  0.00    +0.143 A 
ATOM     21  C   UNL     1      21.308  -3.944  25.338  0.00  0.00    +0.036 A 
ATOM     24  C   UNL     1      22.568  -4.605  25.314  0.00  0.00    +0.010 A 
ATOM     25  C   UNL     1      23.594  -3.782  25.725  0.00  0.00    +0.047 A 
ENDBRANCH   1  20
ENDBRANCH   6   1
TORSDOF 3
ENDMDL
MODEL 7
REMARK VINA RESULT:      -6.0     19.796     21.826
REMARK  Name = 7155435
REMARK  3 active torsions:
REMARK  status: ('A' for Active; 'I' for Inactive)
REMARK    1  A    between atoms: S_1  and  N_6
REMARK    2  A    between atoms: S_1  and  C_20
REMARK    3  A    between atoms: C_15  and  C_19
REMARK                            x       y       z     vdW  Elec       q    Type
REMARK                         _______ _______ _______ _____ _____    ______ ____
ROOT
ATOM      5  O   UNL     1     -14.999   5.623  23.364  0.00  0.00    -0.268 OA
ATOM      6  N   UNL     1     -16.341   8.532  19.587  0.00  0.00    -0.175 NA
ATOM      7  N   UNL     1     -14.592   7.468  21.980  0.00  0.00    -0.311 N 
ATOM      8  C   UNL     1     -16.200   9.463  21.893  0.00  0.00    +0.025 C 
ATOM      9  C   UNL     1     -14.199   9.440  20.471  0.00  0.00    +0.053 C 
ATOM     10  C   UNL     1     -14.962  10.258  21.510  0.00  0.00    +0.017 C 
ATOM     11  C   UNL     1     -17.097   9.224  20.668  0.00  0.00    +0.114 C 
ATOM     12  C   UNL     1     -15.082   9.246  19.223  0.00  0.00    +0.119 C 
ATOM     13  C   UNL     1     -15.757   8.156  22.552  0.00  0.00    +0.130 C 
ATOM     14  C   UNL     1     -13.752   8.089  21.034  0.00  0.00    +0.034 A 
ATOM     15  C   UNL     1     -12.605   7.475  20.643  0.00  0.00    +0.002 A 
ATOM     16  C   UNL     1     -14.308   6.203  22.526  0.00  0.00    +0.252 A 
ATOM     17  C   UNL     1     -12.281   6.167  21.181  0.00  0.00    +0.015 A 
ATOM     18  C   UNL     1     -13.071   5.542  22.055  0.00  0.00    +0.071 A 
ENDROOT
BRANCH  15  19
ATOM     19  C   UNL     1     -11.681   8.096  19.668  0.00  0.00    -0.016 A 
ATOM     22  C   UNL     1     -11.554   7.552  18.393  0.00  0.00    +0.008 A 
ATOM     23  C   UNL     1     -10.946   9.220  20.032  0.00  0.00    +0.008 A 
ATOM     26  C   UNL     1     -10.684   8.138  17.474  0.00  0.00    +0.001 A 
ATOM     27  C   UNL     1     -10.076   9.806  19.112  0.00  0.00    +0.001 A 
ATOM     28  C   UNL     1      -9.945   9.265  17.834  0.00  0.00    +0.000 A 
ENDBRANCH  15  19
BRANCH   6   1
ATOM      1  S   UNL     1     -17.278   7.965  18.273  0.00  0.00    +0.067 S 
ATOM      3  O   UNL     1     -16.425   7.818  17.112  0.00  0.00    -0.152 OA
ATOM      4  O   UNL     1     -18.504   8.730  18.203  0.00  0.00    -0.152 OA
BRANCH   1  20
ATOM      2  S   UNL     1     -19.037   5.637  18.098  0.00  0.00    -0.077 S 
ATOM     20  C   UNL     1     -17.679   6.347  18.854  0.00  0.00    +0.143 A 
ATOM     21  C   UNL     1     -17.117   5.528  19.802  0.00  0.00    +0.036 A 
ATOM     24  C   UNL     1     -17.815   4.291  19.912  0.00  0.00    +0.010 A 
ATOM     25  C   UNL     1     -18.880   4.218  19.043  0.00  0.00    +0.047 A 
ENDBRANCH   1  20
ENDBRANCH   6   1
TORSDOF 3
ENDMDL
MODEL 8
REMARK VINA RESULT:      -5.9      3.396      6.220
REMARK  Name = 7155435
REMARK  3 active torsions:
REMARK  status: ('A' for Active; 'I' for Inactive)
REMARK    1  A    between atoms: S_1  and  N_6
REMARK    2  A    between atoms: S_1  and  C_20
REMARK    3  A    between atoms: C_15  and  C_19
REMARK                            x       y       z     vdW  Elec       q    Type
REMARK                         _______ _______ _______ _____ _____    ______ ____
ROOT
ATOM      5  O   UNL     1      -1.954 -10.669  16.609  0.00  0.00    -0.268 OA
ATOM      6  N   UNL     1      -5.792 -13.061  14.592  0.00  0.00    -0.175 NA
ATOM      7  N   UNL     1      -3.745 -10.723  15.101  0.00  0.00    -0.311 N 
ATOM      8  C   UNL     1      -6.168 -10.977  15.901  0.00  0.00    +0.025 C 
ATOM      9  C   UNL     1      -5.680 -10.828  13.500  0.00  0.00    +0.053 C 
ATOM     10  C   UNL     1      -6.514 -10.223  14.627  0.00  0.00    +0.017 C 
ATOM     11  C   UNL     1      -6.500 -12.470  15.761  0.00  0.00    +0.114 C 
ATOM     12  C   UNL     1      -6.054 -12.313  13.327  0.00  0.00    +0.119 C 
ATOM     13  C   UNL     1      -4.692 -10.739  16.224  0.00  0.00    +0.130 C 
ATOM     14  C   UNL     1      -4.180 -10.673  13.761  0.00  0.00    +0.034 A 
ATOM     15  C   UNL     1      -3.274 -10.511  12.762  0.00  0.00    +0.002 A 
ATOM     16  C   UNL     1      -2.386 -10.644  15.456  0.00  0.00    +0.252 A 
ATOM     17  C   UNL     1      -1.863 -10.431  13.090  0.00  0.00    +0.015 A 
ATOM     18  C   UNL     1      -1.419 -10.504  14.345  0.00  0.00    +0.071 A 
ENDROOT
BRANCH  15  19
ATOM     19  C   UNL     1      -3.684 -10.432  11.342  0.00  0.00    -0.016 A 
ATOM     22  C   UNL     1      -3.753 -11.593  10.577  0.00  0.00    +0.008 A 
ATOM     23  C   UNL     1      -4.000  -9.198  10.783  0.00  0.00    +0.008 A 
ATOM     26  C   UNL     1      -4.140 -11.518   9.239  0.00  0.00    +0.001 A 
ATOM     27  C   UNL     1      -4.388  -9.123   9.444  0.00  0.00    +0.001 A 
ATOM     28  C   UNL     1      -4.457 -10.283   8.673  0.00  0.00    +0.000 A 
ENDBRANCH  15  19
BRANCH   6   1
ATOM      1  S   UNL     1      -5.856 -14.767  14.470  0.00  0.00    +0.067 S 
ATOM      3  O   UNL     1      -6.488 -15.129  13.218  0.00  0.00    -0.152 OA
ATOM      4  O   UNL     1      -6.326 -15.311  15.726  0.00  0.00    -0.152 OA
BRANCH   1  20
ATOM      2  S   UNL     1      -3.746 -16.791  14.465  0.00  0.00    -0.077 S 
ATOM     20  C   UNL     1      -4.135 -15.132  14.330  0.00  0.00    +0.143 A 
ATOM     21  C   UNL     1      -3.026 -14.347  14.131  0.00  0.00    +0.036 A 
ATOM     24  C   UNL     1      -1.831 -15.122  14.088  0.00  0.00    +0.010 A 
ATOM     25  C   UNL     1      -2.079 -16.466  14.257  0.00  0.00    +0.047 A 
ENDBRANCH   1  20
ENDBRANCH   6   1
TORSDOF 3
ENDMDL
MODEL 9
REMARK VINA RESULT:      -5.9     26.404     28.936
REMARK  Name = 7155435
REMARK  3 active torsions:
REMARK  status: ('A' for Active; 'I' for Inactive)
REMARK    1  A    between atoms: S_1  and  N_6
REMARK    2  A    between atoms: S_1  and  C_20
REMARK    3  A    between atoms: C_15  and  C_19
REMARK                            x       y       z     vdW  Elec       q    Type
REMARK                         _______ _______ _______ _____ _____    ______ ____
ROOT
ATOM      5  O   UNL     1      22.210  -0.852  28.630  0.00  0.00    -0.268 OA
ATOM      6  N   UNL     1      19.386  -4.841  27.832  0.00  0.00    -0.175 NA
ATOM      7  N   UNL     1      20.194  -1.798  27.905  0.00  0.00    -0.311 N 
ATOM      8  C   UNL     1      18.684  -3.127  29.496  0.00  0.00    +0.025 C 
ATOM      9  C   UNL     1      18.047  -2.860  27.141  0.00  0.00    +0.053 C 
ATOM     10  C   UNL     1      17.562  -2.674  28.576  0.00  0.00    +0.017 C 
ATOM     11  C   UNL     1      19.024  -4.606  29.258  0.00  0.00    +0.114 C 
ATOM     12  C   UNL     1      18.338  -4.353  26.888  0.00  0.00    +0.119 C 
ATOM     13  C   UNL     1      19.891  -2.212  29.282  0.00  0.00    +0.130 C 
ATOM     14  C   UNL     1      19.286  -2.010  26.848  0.00  0.00    +0.034 A 
ATOM     15  C   UNL     1      19.540  -1.482  25.623  0.00  0.00    +0.002 A 
ATOM     16  C   UNL     1      21.390  -1.078  27.739  0.00  0.00    +0.252 A 
ATOM     17  C   UNL     1      20.768  -0.736  25.412  0.00  0.00    +0.015 A 
ATOM     18  C   UNL     1      21.659  -0.544  26.385  0.00  0.00    +0.071 A 
ENDROOT
BRANCH  15  19
ATOM     19  C   UNL     1      18.608  -1.660  24.488  0.00  0.00    -0.016 A 
ATOM     22  C   UNL     1      17.554  -0.769  24.312  0.00  0.00    +0.008 A 
ATOM     23  C   UNL     1      18.793  -2.717  23.602  0.00  0.00    +0.008 A 
ATOM     26  C   UNL     1      16.676  -0.937  23.241  0.00  0.00    +0.001 A 
ATOM     27  C   UNL     1      17.916  -2.885  22.530  0.00  0.00    +0.001 A 
ATOM     28  C   UNL     1      16.857  -1.995  22.351  0.00  0.00    +0.000 A 
ENDBRANCH  15  19
BRANCH   6   1
ATOM      1  S   UNL     1      20.042  -6.381  27.477  0.00  0.00    +0.067 S 
ATOM      3  O   UNL     1      18.980  -7.365  27.498  0.00  0.00    -0.152 OA
ATOM      4  O   UNL     1      21.248  -6.570  28.257  0.00  0.00    -0.152 OA
BRANCH   1  20
ATOM      2  S   UNL     1      19.807  -7.228  24.689  0.00  0.00    -0.077 S 
ATOM     20  C   UNL     1      20.516  -6.135  25.795  0.00  0.00    +0.143 A 
ATOM     21  C   UNL     1      21.349  -5.233  25.180  0.00  0.00    +0.036 A 
ATOM     24  C   UNL     1      21.408  -5.442  23.773  0.00  0.00    +0.010 A 
ATOM     25  C   UNL     1      20.616  -6.495  23.371  0.00  0.00    +0.047 A 
ENDBRANCH   1  20
ENDBRANCH   6   1
TORSDOF 3
ENDMDL
MODEL 10
REMARK VINA RESULT:      -5.8     26.190     29.095
REMARK  Name = 7155435
REMARK  3 active torsions:
REMARK  status: ('A' for Active; 'I' for Inactive)
REMARK    1  A    between atoms: S_1  and  N_6
REMARK    2  A    between atoms: S_1  and  C_20
REMARK    3  A    between atoms: C_15  and  C_19
REMARK                            x       y       z     vdW  Elec       q    Type
REMARK                         _______ _______ _______ _____ _____    ______ ____
ROOT
ATOM      5  O   UNL     1      23.228  -5.326  25.246  0.00  0.00    -0.268 OA
ATOM      6  N   UNL     1      20.307  -2.378  27.949  0.00  0.00    -0.175 NA
ATOM      7  N   UNL     1      21.699  -3.557  25.381  0.00  0.00    -0.311 N 
ATOM      8  C   UNL     1      22.231  -1.419  26.692  0.00  0.00    +0.025 C 
ATOM      9  C   UNL     1      20.057  -1.663  25.578  0.00  0.00    +0.053 C 
ATOM     10  C   UNL     1      21.277  -0.755  25.712  0.00  0.00    +0.017 C 
ATOM     11  C   UNL     1      21.568  -1.595  28.067  0.00  0.00    +0.114 C 
ATOM     12  C   UNL     1      19.365  -1.796  26.948  0.00  0.00    +0.119 C 
ATOM     13  C   UNL     1      22.695  -2.749  26.097  0.00  0.00    +0.130 C 
ATOM     14  C   UNL     1      20.437  -3.040  25.027  0.00  0.00    +0.034 A 
ATOM     15  C   UNL     1      19.604  -3.769  24.239  0.00  0.00    +0.002 A 
ATOM     16  C   UNL     1      22.132  -4.832  24.976  0.00  0.00    +0.252 A 
ATOM     17  C   UNL     1      20.016  -5.092  23.805  0.00  0.00    +0.015 A 
ATOM     18  C   UNL     1      21.191  -5.619  24.148  0.00  0.00    +0.071 A 
ENDROOT
BRANCH  15  19
ATOM     19  C   UNL     1      18.278  -3.260  23.823  0.00  0.00    -0.016 A 
ATOM     22  C   UNL     1      18.177  -2.407  22.729  0.00  0.00    +0.008 A 
ATOM     23  C   UNL     1      17.141  -3.641  24.529  0.00  0.00    +0.008 A 
ATOM     26  C   UNL     1      16.927  -1.929  22.337  0.00  0.00    +0.001 A 
ATOM     27  C   UNL     1      15.890  -3.162  24.137  0.00  0.00    +0.001 A 
ATOM     28  C   UNL     1      15.784  -2.306  23.042  0.00  0.00    +0.000 A 
ENDBRANCH  15  19
BRANCH   6   1
ATOM      1  S   UNL     1      19.603  -2.879  29.425  0.00  0.00    +0.067 S 
ATOM      3  O   UNL     1      18.742  -1.825  29.922  0.00  0.00    -0.152 OA
ATOM      4  O   UNL     1      20.631  -3.458  30.265  0.00  0.00    -0.152 OA
BRANCH   1  20
ATOM      2  S   UNL     1      17.158  -4.443  29.773  0.00  0.00    -0.077 S 
ATOM     20  C   UNL     1      18.572  -4.190  28.848  0.00  0.00    +0.143 A 
ATOM     21  C   UNL     1      18.672  -5.062  27.792  0.00  0.00    +0.036 A 
ATOM     24  C   UNL     1      17.566  -5.958  27.740  0.00  0.00    +0.010 A 
ATOM     25  C   UNL     1      16.667  -5.731  28.759  0.00  0.00    +0.047 A 
ENDBRANCH   1  20
ENDBRANCH   6   1
TORSDOF 3
ENDMDL
