REMARK  Name = 26742824
REMARK  6 active torsions:
REMARK  status: ('A' for Active; 'I' for Inactive)
REMARK    1  A    between atoms: O_5  and  C_31
REMARK    2  A    between atoms: O_5  and  C_33
REMARK    3  A    between atoms: N_7  and  C_18
REMARK    4  A    between atoms: C_17  and  C_19
REMARK    5  A    between atoms: C_18  and  C_20
REMARK    6  A    between atoms: C_19  and  C_21
REMARK                            x       y       z     vdW  Elec       q    Type
REMARK                         _______ _______ _______ _____ _____    ______ ____
ROOT
ATOM      1  O   UNL     1       5.266  -0.073   0.946  0.00  0.00    -0.276 OA
ATOM      2  O   UNL     1      -1.523   1.500   1.614  0.00  0.00    -0.275 OA
ATOM      6  N   UNL     1       0.259   2.586   0.592  0.00  0.00    -0.301 N 
ATOM      7  N   UNL     1       3.982  -0.138  -0.985  0.00  0.00    -0.297 N 
ATOM      8  C   UNL     1       2.233   2.601  -0.923  0.00  0.00    +0.011 C 
ATOM      9  C   UNL     1       3.142   2.583   0.329  0.00  0.00    +0.004 C 
ATOM     10  C   UNL     1       2.439   1.923   1.530  0.00  0.00    +0.023 C 
ATOM     11  C   UNL     1       0.876   3.242  -0.567  0.00  0.00    +0.111 C 
ATOM     12  C   UNL     1       2.009   1.230  -1.590  0.00  0.00    +0.024 C 
ATOM     13  C   UNL     1       4.547   2.022   0.076  0.00  0.00    +0.100 C 
ATOM     14  C   UNL     1       1.085   2.574   1.800  0.00  0.00    +0.108 C 
ATOM     15  C   UNL     1       3.297   0.569  -2.065  0.00  0.00    +0.108 C 
ATOM     16  C   UNL     1       4.638   0.507   0.057  0.00  0.00    +0.216 C 
ATOM     17  C   UNL     1      -1.017   2.024   0.618  0.00  0.00    +0.220 C 
ENDROOT
BRANCH   7  18
ATOM     18  C   UNL     1       3.947  -1.594  -1.034  0.00  0.00    +0.143 C 
BRANCH  18  20
ATOM      3  O   UNL     1      -0.544  -3.665  -1.032  0.00  0.00    -0.453 OA
ATOM      4  O   UNL     1      -0.655  -3.702   1.375  0.00  0.00    -0.453 OA
ATOM     20  C   UNL     1       2.729  -2.150  -0.356  0.00  0.00    -0.026 A 
ATOM     22  C   UNL     1       1.671  -2.643  -1.124  0.00  0.00    +0.054 A 
ATOM     23  C   UNL     1       2.664  -2.171   1.049  0.00  0.00    +0.009 A 
ATOM     24  C   UNL     1       0.574  -3.146  -0.455  0.00  0.00    +0.167 A 
ATOM     27  C   UNL     1       1.541  -2.686   1.701  0.00  0.00    +0.050 A 
ATOM     28  C   UNL     1       0.511  -3.167   0.919  0.00  0.00    +0.166 A 
ATOM     32  C   UNL     1      -1.318  -4.015   0.133  0.00  0.00    +0.466 C 
ENDBRANCH  18  20
ENDBRANCH   7  18
BRANCH  17  19
ATOM     19  C   UNL     1      -1.803   2.073  -0.668  0.00  0.00    +0.131 C 
BRANCH  19  21
ATOM     21  C   UNL     1      -3.162   1.474  -0.479  0.00  0.00    -0.038 A 
ATOM     25  C   UNL     1      -3.359   0.110  -0.696  0.00  0.00    +0.007 A 
ATOM     26  C   UNL     1      -4.230   2.279  -0.084  0.00  0.00    +0.007 A 
ATOM     29  C   UNL     1      -4.625  -0.448  -0.518  0.00  0.00    +0.046 A 
ATOM     30  C   UNL     1      -5.495   1.721   0.094  0.00  0.00    +0.046 A 
ATOM     31  C   UNL     1      -5.693   0.357  -0.123  0.00  0.00    +0.120 A 
BRANCH  31   5
ATOM      5  O   UNL     1      -6.928  -0.188   0.053  0.00  0.00    -0.495 OA
ATOM     33  C   UNL     1      -7.058  -1.589  -0.185  0.00  0.00    +0.277 C 
ENDBRANCH  31   5
ENDBRANCH  19  21
ENDBRANCH  17  19
TORSDOF 5
