REMARK  Name = 11886654
REMARK  11 active torsions:
REMARK  status: ('A' for Active; 'I' for Inactive)
REMARK    1  A    between atoms: O_3  and  C_13
REMARK    2  A    between atoms: O_3  and  C_18
REMARK    3  A    between atoms: O_5  and  C_19
REMARK    4  A    between atoms: O_5  and  C_30
REMARK    5  A    between atoms: N_6  and  C_12
REMARK    6  A    between atoms: N_9  and  C_21
REMARK    7  A    between atoms: C_17  and  C_19
REMARK    8  A    between atoms: C_20  and  C_22
REMARK    9  A    between atoms: C_20  and  C_23
REMARK   10  A    between atoms: C_20  and  C_24
REMARK   11  A    between atoms: C_20  and  C_25
REMARK                            x       y       z     vdW  Elec       q    Type
REMARK                         _______ _______ _______ _____ _____    ______ ____
ROOT
ATOM      1  O   UNL     1      -1.428  -1.009  -1.058  0.00  0.00    -0.368 OA
ATOM      2  O   UNL     1      -2.849  -3.339   0.393  0.00  0.00    -0.368 OA
ATOM     10  C   UNL     1      -2.919  -1.906   0.561  0.00  0.00    +0.177 C 
ATOM     11  C   UNL     1      -1.520  -1.370   0.330  0.00  0.00    +0.192 C 
ATOM     12  C   UNL     1      -3.746  -1.304  -0.558  0.00  0.00    +0.166 C 
ATOM     13  C   UNL     1      -0.649  -2.561   0.655  0.00  0.00    +0.235 C 
ATOM     14  C   UNL     1      -2.720  -1.116  -1.671  0.00  0.00    +0.190 C 
ATOM     15  C   UNL     1      -1.486  -3.713   0.150  0.00  0.00    +0.207 C 
ENDROOT
BRANCH  12   6
ATOM      6  N   UNL     1      -4.452  -0.089  -0.143  0.00  0.00    -0.244 N 
ATOM      7  N   UNL     1      -3.771   0.959   0.340  0.00  0.00    -0.065 NA
ATOM      8  N   UNL     1      -4.662   1.900   0.633  0.00  0.00    -0.132 NA
ATOM     16  C   UNL     1      -5.789   0.142  -0.174  0.00  0.00    +0.136 A 
ATOM     17  C   UNL     1      -5.903   1.415   0.325  0.00  0.00    +0.108 A 
BRANCH  17  19
ATOM     19  C   UNL     1      -7.111   2.222   0.535  0.00  0.00    +0.218 C 
BRANCH  19   5
ATOM      5  O   UNL     1      -7.454   3.015  -0.608  0.00  0.00    -0.377 OA
ATOM     30  C   UNL     1      -8.623   3.778  -0.367  0.00  0.00    +0.194 C 
ENDBRANCH  19   5
ENDBRANCH  17  19
ENDBRANCH  12   6
BRANCH  13   3
ATOM      3  O   UNL     1       0.619  -2.516   0.043  0.00  0.00    -0.442 OA
BRANCH   3  18
ATOM      4  O   UNL     1       1.124  -0.619   1.215  0.00  0.00    -0.226 OA
ATOM      9  N   UNL     1       2.645  -1.579  -0.283  0.00  0.00    -0.251 N 
ATOM     18  C   UNL     1       1.450  -1.476   0.403  0.00  0.00    +0.405 C 
ATOM     31  H   UNL     1       2.729  -2.368  -0.920  0.00  0.00    +0.158 HD
BRANCH   9  21
ATOM     21  C   UNL     1       3.767  -0.723  -0.209  0.00  0.00    +0.036 A 
ATOM     22  C   UNL     1       5.969   0.954  -0.066  0.00  0.00    -0.042 A 
ATOM     26  C   UNL     1       5.991  -0.155  -0.912  0.00  0.00    +0.006 A 
ATOM     27  C   UNL     1       4.839   1.219   0.708  0.00  0.00    +0.006 A 
ATOM     28  C   UNL     1       4.883  -0.999  -0.984  0.00  0.00    +0.024 A 
ATOM     29  C   UNL     1       3.731   0.374   0.636  0.00  0.00    +0.024 A 
BRANCH  22  20
ATOM     20  C   UNL     1       7.154   1.857   0.011  0.00  0.00    -0.013 C 
ATOM     23  C   UNL     1       7.475   2.488  -1.379  0.00  0.00    +0.015 C 
ATOM     24  C   UNL     1       7.013   3.066   0.994  0.00  0.00    +0.015 C 
ATOM     25  C   UNL     1       8.424   1.084   0.482  0.00  0.00    +0.015 C 
ENDBRANCH  22  20
ENDBRANCH   9  21
ENDBRANCH   3  18
ENDBRANCH  13   3
TORSDOF 7
