MODEL 1
REMARK VINA RESULT:      -7.7      0.000      0.000
REMARK  Name = 26743968
REMARK  5 active torsions:
REMARK  status: ('A' for Active; 'I' for Inactive)
REMARK    1  A    between atoms: O_2  and  C_10
REMARK    2  A    between atoms: N_4  and  C_12
REMARK    3  A    between atoms: C_8  and  C_13
REMARK    4  A    between atoms: C_12  and  C_14
REMARK    5  A    between atoms: C_17  and  C_20
REMARK                            x       y       z     vdW  Elec       q    Type
REMARK                         _______ _______ _______ _____ _____    ______ ____
ROOT
ATOM      4  N   UNL     1      13.201   8.011  20.523  0.00  0.00    -0.285 NA
ATOM      8  C   UNL     1      11.896   8.676  20.322  0.00  0.00    +0.149 C 
ATOM      9  C   UNL     1      10.859   7.681  20.874  0.00  0.00    +0.061 C 
ATOM     10  C   UNL     1      11.670   6.471  21.320  0.00  0.00    +0.130 C 
ATOM     11  C   UNL     1      12.940   6.574  20.496  0.00  0.00    +0.116 C 
ENDROOT
BRANCH   8  13
ATOM      3  O   UNL     1      12.334  11.080  20.298  0.00  0.00    -0.336 OA
ATOM      5  N   UNL     1      11.336  10.352  22.166  0.00  0.00    -0.190 NA
ATOM      6  N   UNL     1      12.156  12.208  21.109  0.00  0.00    -0.056 NA
ATOM     13  C   UNL     1      11.823  10.031  20.994  0.00  0.00    +0.245 A 
ATOM     17  C   UNL     1      11.563  11.697  22.193  0.00  0.00    +0.204 A 
BRANCH  17  20
ATOM      7  N   UNL     1      10.498  12.626  25.632  0.00  0.00    -0.263 NA
ATOM     20  C   UNL     1      11.182  12.503  23.316  0.00  0.00    +0.041 A 
ATOM     22  C   UNL     1      11.119  13.889  23.216  0.00  0.00    +0.014 A 
ATOM     23  C   UNL     1      10.865  11.926  24.536  0.00  0.00    +0.122 A 
ATOM     24  C   UNL     1      10.746  14.644  24.323  0.00  0.00    +0.020 A 
ATOM     25  C   UNL     1      10.448  13.970  25.497  0.00  0.00    +0.111 A 
ENDBRANCH  17  20
ENDBRANCH   8  13
BRANCH  10   2
ATOM      2  O   UNL     1      10.968   5.271  21.055  0.00  0.00    -0.390 OA
ATOM     26  H   UNL     1      10.196   5.499  20.510  0.00  0.00    +0.210 HD
ENDBRANCH  10   2
BRANCH   4  12
ATOM     12  C   UNL     1      14.203   8.406  19.541  0.00  0.00    +0.120 C 
BRANCH  12  14
ATOM      1  F   UNL     1      19.058   5.644  20.279  0.00  0.00    -0.205 F 
ATOM     14  C   UNL     1      15.501   7.668  19.739  0.00  0.00    -0.033 A 
ATOM     15  C   UNL     1      15.839   6.614  18.891  0.00  0.00    +0.008 A 
ATOM     16  C   UNL     1      16.364   8.039  20.769  0.00  0.00    +0.008 A 
ATOM     18  C   UNL     1      17.040   5.929  19.073  0.00  0.00    +0.038 A 
ATOM     19  C   UNL     1      17.567   7.355  20.951  0.00  0.00    +0.038 A 
ATOM     21  C   UNL     1      17.904   6.300  20.104  0.00  0.00    +0.123 A 
ENDBRANCH  12  14
ENDBRANCH   4  12
TORSDOF 5
ENDMDL
MODEL 2
REMARK VINA RESULT:      -7.6      3.940      6.916
REMARK  Name = 26743968
REMARK  5 active torsions:
REMARK  status: ('A' for Active; 'I' for Inactive)
REMARK    1  A    between atoms: O_2  and  C_10
REMARK    2  A    between atoms: N_4  and  C_12
REMARK    3  A    between atoms: C_8  and  C_13
REMARK    4  A    between atoms: C_12  and  C_14
REMARK    5  A    between atoms: C_17  and  C_20
REMARK                            x       y       z     vdW  Elec       q    Type
REMARK                         _______ _______ _______ _____ _____    ______ ____
ROOT
ATOM      4  N   UNL     1      12.381   8.711  19.990  0.00  0.00    -0.285 NA
ATOM      8  C   UNL     1      13.149   8.249  21.165  0.00  0.00    +0.149 C 
ATOM      9  C   UNL     1      12.206   7.271  21.890  0.00  0.00    +0.061 C 
ATOM     10  C   UNL     1      10.920   7.283  21.075  0.00  0.00    +0.130 C 
ATOM     11  C   UNL     1      10.969   8.618  20.356  0.00  0.00    +0.116 C 
ENDROOT
BRANCH   8  13
ATOM      3  O   UNL     1      14.432   6.672  19.812  0.00  0.00    -0.336 OA
ATOM      5  N   UNL     1      15.668   7.846  21.265  0.00  0.00    -0.190 NA
ATOM      6  N   UNL     1      15.753   6.240  19.637  0.00  0.00    -0.056 NA
ATOM     13  C   UNL     1      14.471   7.617  20.786  0.00  0.00    +0.245 A 
ATOM     17  C   UNL     1      16.421   6.977  20.530  0.00  0.00    +0.204 A 
BRANCH  17  20
ATOM      7  N   UNL     1      19.879   7.792  21.629  0.00  0.00    -0.263 NA
ATOM     20  C   UNL     1      17.840   6.873  20.709  0.00  0.00    +0.041 A 
ATOM     22  C   UNL     1      18.555   5.807  20.173  0.00  0.00    +0.014 A 
ATOM     23  C   UNL     1      18.543   7.831  21.423  0.00  0.00    +0.122 A 
ATOM     24  C   UNL     1      19.930   5.732  20.363  0.00  0.00    +0.020 A 
ATOM     25  C   UNL     1      20.539   6.742  21.092  0.00  0.00    +0.111 A 
ENDBRANCH  17  20
ENDBRANCH   8  13
BRANCH  10   2
ATOM      2  O   UNL     1       9.789   7.183  21.919  0.00  0.00    -0.390 OA
ATOM     26  H   UNL     1       9.002   7.141  21.350  0.00  0.00    +0.210 HD
ENDBRANCH  10   2
BRANCH   4  12
ATOM     12  C   UNL     1      12.748  10.053  19.555  0.00  0.00    +0.120 C 
BRANCH  12  14
ATOM      1  F   UNL     1      15.269  10.005  14.517  0.00  0.00    -0.205 F 
ATOM     14  C   UNL     1      13.422  10.040  18.209  0.00  0.00    -0.033 A 
ATOM     15  C   UNL     1      13.271   8.940  17.365  0.00  0.00    +0.008 A 
ATOM     16  C   UNL     1      14.195  11.128  17.806  0.00  0.00    +0.008 A 
ATOM     18  C   UNL     1      13.896   8.927  16.117  0.00  0.00    +0.038 A 
ATOM     19  C   UNL     1      14.820  11.116  16.558  0.00  0.00    +0.038 A 
ATOM     21  C   UNL     1      14.670  10.016  15.714  0.00  0.00    +0.123 A 
ENDBRANCH  12  14
ENDBRANCH   4  12
TORSDOF 5
ENDMDL
MODEL 3
REMARK VINA RESULT:      -7.6      3.741      7.607
REMARK  Name = 26743968
REMARK  5 active torsions:
REMARK  status: ('A' for Active; 'I' for Inactive)
REMARK    1  A    between atoms: O_2  and  C_10
REMARK    2  A    between atoms: N_4  and  C_12
REMARK    3  A    between atoms: C_8  and  C_13
REMARK    4  A    between atoms: C_12  and  C_14
REMARK    5  A    between atoms: C_17  and  C_20
REMARK                            x       y       z     vdW  Elec       q    Type
REMARK                         _______ _______ _______ _____ _____    ______ ____
ROOT
ATOM      4  N   UNL     1      12.575   8.454  18.686  0.00  0.00    -0.285 NA
ATOM      8  C   UNL     1      13.719   7.639  18.226  0.00  0.00    +0.149 C 
ATOM      9  C   UNL     1      13.960   8.087  16.772  0.00  0.00    +0.061 C 
ATOM     10  C   UNL     1      12.876   9.120  16.491  0.00  0.00    +0.130 C 
ATOM     11  C   UNL     1      11.791   8.776  17.495  0.00  0.00    +0.116 C 
ENDROOT
BRANCH   8  13
ATOM      3  O   UNL     1      15.034   8.969  19.798  0.00  0.00    -0.336 OA
ATOM      5  N   UNL     1      15.947   6.988  19.291  0.00  0.00    -0.190 NA
ATOM      6  N   UNL     1      16.229   8.895  20.523  0.00  0.00    -0.056 NA
ATOM     13  C   UNL     1      14.943   7.807  19.101  0.00  0.00    +0.245 A 
ATOM     17  C   UNL     1      16.710   7.698  20.170  0.00  0.00    +0.204 A 
BRANCH  17  20
ATOM      7  N   UNL     1      19.751   7.351  22.283  0.00  0.00    -0.263 NA
ATOM     20  C   UNL     1      17.948   7.183  20.680  0.00  0.00    +0.041 A 
ATOM     22  C   UNL     1      18.548   6.065  20.111  0.00  0.00    +0.014 A 
ATOM     23  C   UNL     1      18.584   7.784  21.755  0.00  0.00    +0.122 A 
ATOM     24  C   UNL     1      19.749   5.589  20.626  0.00  0.00    +0.020 A 
ATOM     25  C   UNL     1      20.304   6.262  21.704  0.00  0.00    +0.111 A 
ENDBRANCH  17  20
ENDBRANCH   8  13
BRANCH  10   2
ATOM      2  O   UNL     1      12.413   9.011  15.159  0.00  0.00    -0.390 OA
ATOM     26  H   UNL     1      11.453   9.163  15.170  0.00  0.00    +0.210 HD
ENDBRANCH  10   2
BRANCH   4  12
ATOM     12  C   UNL     1      11.773   7.791  19.707  0.00  0.00    +0.120 C 
BRANCH  12  14
ATOM      1  F   UNL     1      10.603  11.235  24.010  0.00  0.00    -0.205 F 
ATOM     14  C   UNL     1      11.460   8.711  20.857  0.00  0.00    -0.033 A 
ATOM     15  C   UNL     1      11.808  10.060  20.785  0.00  0.00    +0.008 A 
ATOM     16  C   UNL     1      10.821   8.215  21.993  0.00  0.00    +0.008 A 
ATOM     18  C   UNL     1      11.520  10.913  21.850  0.00  0.00    +0.038 A 
ATOM     19  C   UNL     1      10.531   9.068  23.059  0.00  0.00    +0.038 A 
ATOM     21  C   UNL     1      10.881  10.416  22.987  0.00  0.00    +0.123 A 
ENDBRANCH  12  14
ENDBRANCH   4  12
TORSDOF 5
ENDMDL
MODEL 4
REMARK VINA RESULT:      -7.4      3.447      5.766
REMARK  Name = 26743968
REMARK  5 active torsions:
REMARK  status: ('A' for Active; 'I' for Inactive)
REMARK    1  A    between atoms: O_2  and  C_10
REMARK    2  A    between atoms: N_4  and  C_12
REMARK    3  A    between atoms: C_8  and  C_13
REMARK    4  A    between atoms: C_12  and  C_14
REMARK    5  A    between atoms: C_17  and  C_20
REMARK                            x       y       z     vdW  Elec       q    Type
REMARK                         _______ _______ _______ _____ _____    ______ ____
ROOT
ATOM      4  N   UNL     1      13.136   7.854  20.653  0.00  0.00    -0.285 NA
ATOM      8  C   UNL     1      12.262   7.822  19.462  0.00  0.00    +0.149 C 
ATOM      9  C   UNL     1      10.986   8.568  19.891  0.00  0.00    +0.061 C 
ATOM     10  C   UNL     1      11.217   8.941  21.350  0.00  0.00    +0.130 C 
ATOM     11  C   UNL     1      12.251   7.932  21.813  0.00  0.00    +0.116 C 
ENDROOT
BRANCH   8  13
ATOM      3  O   UNL     1      12.677   7.821  17.054  0.00  0.00    -0.336 OA
ATOM      5  N   UNL     1      13.695   9.484  18.156  0.00  0.00    -0.190 NA
ATOM      6  N   UNL     1      13.377   8.556  16.089  0.00  0.00    -0.056 NA
ATOM     13  C   UNL     1      12.917   8.434  18.242  0.00  0.00    +0.245 A 
ATOM     17  C   UNL     1      13.952   9.518  16.817  0.00  0.00    +0.204 A 
BRANCH  17  20
ATOM      7  N   UNL     1      15.950  11.385  14.296  0.00  0.00    -0.263 NA
ATOM     20  C   UNL     1      14.786  10.530  16.236  0.00  0.00    +0.041 A 
ATOM     22  C   UNL     1      15.239  11.607  16.991  0.00  0.00    +0.014 A 
ATOM     23  C   UNL     1      15.167  10.466  14.905  0.00  0.00    +0.122 A 
ATOM     24  C   UNL     1      16.047  12.573  16.401  0.00  0.00    +0.020 A 
ATOM     25  C   UNL     1      16.371  12.416  15.062  0.00  0.00    +0.111 A 
ENDBRANCH  17  20
ENDBRANCH   8  13
BRANCH  10   2
ATOM      2  O   UNL     1      10.016   8.840  22.091  0.00  0.00    -0.390 OA
ATOM     26  H   UNL     1       9.829   7.895  22.215  0.00  0.00    +0.210 HD
ENDBRANCH  10   2
BRANCH   4  12
ATOM     12  C   UNL     1      14.043   6.715  20.730  0.00  0.00    +0.120 C 
BRANCH  12  14
ATOM      1  F   UNL     1      19.429   8.340  21.039  0.00  0.00    -0.205 F 
ATOM     14  C   UNL     1      15.482   7.150  20.813  0.00  0.00    -0.033 A 
ATOM     15  C   UNL     1      16.477   6.383  20.207  0.00  0.00    +0.008 A 
ATOM     16  C   UNL     1      15.820   8.318  21.494  0.00  0.00    +0.008 A 
ATOM     18  C   UNL     1      17.811   6.784  20.284  0.00  0.00    +0.038 A 
ATOM     19  C   UNL     1      17.154   8.720  21.571  0.00  0.00    +0.038 A 
ATOM     21  C   UNL     1      18.149   7.953  20.966  0.00  0.00    +0.123 A 
ENDBRANCH  12  14
ENDBRANCH   4  12
TORSDOF 5
ENDMDL
MODEL 5
REMARK VINA RESULT:      -7.2     25.797     28.136
REMARK  Name = 26743968
REMARK  5 active torsions:
REMARK  status: ('A' for Active; 'I' for Inactive)
REMARK    1  A    between atoms: O_2  and  C_10
REMARK    2  A    between atoms: N_4  and  C_12
REMARK    3  A    between atoms: C_8  and  C_13
REMARK    4  A    between atoms: C_12  and  C_14
REMARK    5  A    between atoms: C_17  and  C_20
REMARK                            x       y       z     vdW  Elec       q    Type
REMARK                         _______ _______ _______ _____ _____    ______ ____
ROOT
ATOM      4  N   UNL     1      -3.295 -10.568  14.337  0.00  0.00    -0.285 NA
ATOM      8  C   UNL     1      -3.594 -11.225  15.627  0.00  0.00    +0.149 C 
ATOM      9  C   UNL     1      -2.384 -10.901  16.522  0.00  0.00    +0.061 C 
ATOM     10  C   UNL     1      -1.440 -10.098  15.636  0.00  0.00    +0.130 C 
ATOM     11  C   UNL     1      -1.839 -10.508  14.231  0.00  0.00    +0.116 C 
ENDROOT
BRANCH   8  13
ATOM      3  O   UNL     1      -5.372  -9.559  15.807  0.00  0.00    -0.336 OA
ATOM      5  N   UNL     1      -5.673 -11.362  17.103  0.00  0.00    -0.190 NA
ATOM      6  N   UNL     1      -6.578  -9.352  16.488  0.00  0.00    -0.056 NA
ATOM     13  C   UNL     1      -4.906 -10.765  16.225  0.00  0.00    +0.245 A 
ATOM     17  C   UNL     1      -6.686 -10.457  17.233  0.00  0.00    +0.204 A 
BRANCH  17  20
ATOM      7  N   UNL     1      -8.684 -11.814  20.060  0.00  0.00    -0.263 NA
ATOM     20  C   UNL     1      -7.794 -10.689  18.114  0.00  0.00    +0.041 A 
ATOM     22  C   UNL     1      -9.016 -10.055  17.913  0.00  0.00    +0.014 A 
ATOM     23  C   UNL     1      -7.681 -11.551  19.193  0.00  0.00    +0.122 A 
ATOM     24  C   UNL     1     -10.072 -10.299  18.783  0.00  0.00    +0.020 A 
ATOM     25  C   UNL     1      -9.856 -11.180  19.832  0.00  0.00    +0.111 A 
ENDBRANCH  17  20
ENDBRANCH   8  13
BRANCH  10   2
ATOM      2  O   UNL     1      -0.091 -10.423  15.915  0.00  0.00    -0.390 OA
ATOM     26  H   UNL     1      -0.022 -11.392  15.931  0.00  0.00    +0.210 HD
ENDBRANCH  10   2
BRANCH   4  12
ATOM     12  C   UNL     1      -3.901 -11.241  13.196  0.00  0.00    +0.120 C 
BRANCH  12  14
ATOM      1  F   UNL     1      -5.719  -7.575   9.323  0.00  0.00    -0.205 F 
ATOM     14  C   UNL     1      -4.387 -10.262  12.161  0.00  0.00    -0.033 A 
ATOM     15  C   UNL     1      -3.576  -9.936  11.075  0.00  0.00    +0.008 A 
ATOM     16  C   UNL     1      -5.649  -9.681  12.288  0.00  0.00    +0.008 A 
ATOM     18  C   UNL     1      -4.024  -9.028  10.116  0.00  0.00    +0.038 A 
ATOM     19  C   UNL     1      -6.099  -8.773  11.329  0.00  0.00    +0.038 A 
ATOM     21  C   UNL     1      -5.286  -8.446  10.243  0.00  0.00    +0.123 A 
ENDBRANCH  12  14
ENDBRANCH   4  12
TORSDOF 5
ENDMDL
MODEL 6
REMARK VINA RESULT:      -7.0     25.718     27.944
REMARK  Name = 26743968
REMARK  5 active torsions:
REMARK  status: ('A' for Active; 'I' for Inactive)
REMARK    1  A    between atoms: O_2  and  C_10
REMARK    2  A    between atoms: N_4  and  C_12
REMARK    3  A    between atoms: C_8  and  C_13
REMARK    4  A    between atoms: C_12  and  C_14
REMARK    5  A    between atoms: C_17  and  C_20
REMARK                            x       y       z     vdW  Elec       q    Type
REMARK                         _______ _______ _______ _____ _____    ______ ____
ROOT
ATOM      4  N   UNL     1      -3.167 -10.523  14.230  0.00  0.00    -0.285 NA
ATOM      8  C   UNL     1      -3.496 -11.182  15.512  0.00  0.00    +0.149 C 
ATOM      9  C   UNL     1      -2.313 -10.849  16.439  0.00  0.00    +0.061 C 
ATOM     10  C   UNL     1      -1.351 -10.041  15.579  0.00  0.00    +0.130 C 
ATOM     11  C   UNL     1      -1.709 -10.454  14.163  0.00  0.00    +0.116 C 
ENDROOT
BRANCH   8  13
ATOM      3  O   UNL     1      -5.026 -10.939  17.401  0.00  0.00    -0.336 OA
ATOM      5  N   UNL     1      -5.835 -10.158  15.465  0.00  0.00    -0.190 NA
ATOM      6  N   UNL     1      -6.306 -10.447  17.685  0.00  0.00    -0.056 NA
ATOM     13  C   UNL     1      -4.827 -10.730  16.074  0.00  0.00    +0.245 A 
ATOM     17  C   UNL     1      -6.719 -10.004  16.493  0.00  0.00    +0.204 A 
BRANCH  17  20
ATOM      7  N   UNL     1      -9.874  -8.956  14.829  0.00  0.00    -0.263 NA
ATOM     20  C   UNL     1      -8.005  -9.402  16.297  0.00  0.00    +0.041 A 
ATOM     22  C   UNL     1      -8.633  -8.701  17.321  0.00  0.00    +0.014 A 
ATOM     23  C   UNL     1      -8.663  -9.499  15.080  0.00  0.00    +0.122 A 
ATOM     24  C   UNL     1      -9.880  -8.127  17.101  0.00  0.00    +0.020 A 
ATOM     25  C   UNL     1     -10.453  -8.282  15.848  0.00  0.00    +0.111 A 
ENDBRANCH  17  20
ENDBRANCH   8  13
BRANCH  10   2
ATOM      2  O   UNL     1      -0.008 -10.357  15.894  0.00  0.00    -0.390 OA
ATOM     26  H   UNL     1       0.555  -9.942  15.220  0.00  0.00    +0.210 HD
ENDBRANCH  10   2
BRANCH   4  12
ATOM     12  C   UNL     1      -3.738 -11.201  13.073  0.00  0.00    +0.120 C 
BRANCH  12  14
ATOM      1  F   UNL     1      -5.629  -7.547   9.225  0.00  0.00    -0.205 F 
ATOM     14  C   UNL     1      -4.244 -10.225  12.045  0.00  0.00    -0.033 A 
ATOM     15  C   UNL     1      -3.428  -9.855  10.976  0.00  0.00    +0.008 A 
ATOM     16  C   UNL     1      -5.527  -9.691  12.161  0.00  0.00    +0.008 A 
ATOM     18  C   UNL     1      -3.895  -8.949  10.023  0.00  0.00    +0.038 A 
ATOM     19  C   UNL     1      -5.995  -8.786  11.208  0.00  0.00    +0.038 A 
ATOM     21  C   UNL     1      -5.179  -8.415  10.140  0.00  0.00    +0.123 A 
ENDBRANCH  12  14
ENDBRANCH   4  12
TORSDOF 5
ENDMDL
MODEL 7
REMARK VINA RESULT:      -6.7      3.885      7.422
REMARK  Name = 26743968
REMARK  5 active torsions:
REMARK  status: ('A' for Active; 'I' for Inactive)
REMARK    1  A    between atoms: O_2  and  C_10
REMARK    2  A    between atoms: N_4  and  C_12
REMARK    3  A    between atoms: C_8  and  C_13
REMARK    4  A    between atoms: C_12  and  C_14
REMARK    5  A    between atoms: C_17  and  C_20
REMARK                            x       y       z     vdW  Elec       q    Type
REMARK                         _______ _______ _______ _____ _____    ______ ____
ROOT
ATOM      4  N   UNL     1      11.748   9.357  21.913  0.00  0.00    -0.285 NA
ATOM      8  C   UNL     1      12.627   8.276  21.418  0.00  0.00    +0.149 C 
ATOM      9  C   UNL     1      11.683   7.085  21.170  0.00  0.00    +0.061 C 
ATOM     10  C   UNL     1      10.306   7.577  21.596  0.00  0.00    +0.130 C 
ATOM     11  C   UNL     1      10.615   8.703  22.565  0.00  0.00    +0.116 C 
ENDROOT
BRANCH   8  13
ATOM      3  O   UNL     1      14.649   8.151  20.052  0.00  0.00    -0.336 OA
ATOM      5  N   UNL     1      13.050   9.469  19.200  0.00  0.00    -0.190 NA
ATOM      6  N   UNL     1      15.161   8.658  18.852  0.00  0.00    -0.056 NA
ATOM     13  C   UNL     1      13.403   8.677  20.182  0.00  0.00    +0.245 A 
ATOM     17  C   UNL     1      14.161   9.427  18.409  0.00  0.00    +0.204 A 
BRANCH  17  20
ATOM      7  N   UNL     1      13.512  10.440  14.891  0.00  0.00    -0.263 NA
ATOM     20  C   UNL     1      14.238  10.162  17.180  0.00  0.00    +0.041 A 
ATOM     22  C   UNL     1      15.071  11.270  17.058  0.00  0.00    +0.014 A 
ATOM     23  C   UNL     1      13.486   9.792  16.077  0.00  0.00    +0.122 A 
ATOM     24  C   UNL     1      15.125  11.963  15.855  0.00  0.00    +0.020 A 
ATOM     25  C   UNL     1      14.333  11.512  14.810  0.00  0.00    +0.111 A 
ENDBRANCH  17  20
ENDBRANCH   8  13
BRANCH  10   2
ATOM      2  O   UNL     1       9.572   6.538  22.216  0.00  0.00    -0.390 OA
ATOM     26  H   UNL     1       9.425   6.796  23.142  0.00  0.00    +0.210 HD
ENDBRANCH  10   2
BRANCH   4  12
ATOM     12  C   UNL     1      12.430  10.288  22.803  0.00  0.00    +0.120 C 
BRANCH  12  14
ATOM      1  F   UNL     1       9.357  14.916  23.743  0.00  0.00    -0.205 F 
ATOM     14  C   UNL     1      11.608  11.525  23.054  0.00  0.00    -0.033 A 
ATOM     15  C   UNL     1      11.270  12.364  21.993  0.00  0.00    +0.008 A 
ATOM     16  C   UNL     1      11.186  11.831  24.348  0.00  0.00    +0.008 A 
ATOM     18  C   UNL     1      10.510  13.510  22.225  0.00  0.00    +0.038 A 
ATOM     19  C   UNL     1      10.425  12.977  24.580  0.00  0.00    +0.038 A 
ATOM     21  C   UNL     1      10.088  13.817  23.519  0.00  0.00    +0.123 A 
ENDBRANCH  12  14
ENDBRANCH   4  12
TORSDOF 5
ENDMDL
MODEL 8
REMARK VINA RESULT:      -6.7     24.668     27.082
REMARK  Name = 26743968
REMARK  5 active torsions:
REMARK  status: ('A' for Active; 'I' for Inactive)
REMARK    1  A    between atoms: O_2  and  C_10
REMARK    2  A    between atoms: N_4  and  C_12
REMARK    3  A    between atoms: C_8  and  C_13
REMARK    4  A    between atoms: C_12  and  C_14
REMARK    5  A    between atoms: C_17  and  C_20
REMARK                            x       y       z     vdW  Elec       q    Type
REMARK                         _______ _______ _______ _____ _____    ______ ____
ROOT
ATOM      4  N   UNL     1     -11.709   9.860  20.216  0.00  0.00    -0.285 NA
ATOM      8  C   UNL     1     -12.254   8.709  19.466  0.00  0.00    +0.149 C 
ATOM      9  C   UNL     1     -11.148   8.336  18.462  0.00  0.00    +0.061 C 
ATOM     10  C   UNL     1     -10.043   9.360  18.691  0.00  0.00    +0.130 C 
ATOM     11  C   UNL     1     -10.773  10.533  19.318  0.00  0.00    +0.116 C 
ENDROOT
BRANCH   8  13
ATOM      3  O   UNL     1     -11.621   6.789  20.838  0.00  0.00    -0.336 OA
ATOM      5  N   UNL     1     -13.826   7.176  20.771  0.00  0.00    -0.190 NA
ATOM      6  N   UNL     1     -12.214   5.803  21.637  0.00  0.00    -0.056 NA
ATOM     13  C   UNL     1     -12.639   7.556  20.368  0.00  0.00    +0.245 A 
ATOM     17  C   UNL     1     -13.515   6.097  21.546  0.00  0.00    +0.204 A 
BRANCH  17  20
ATOM      7  N   UNL     1     -16.731   4.342  22.178  0.00  0.00    -0.263 NA
ATOM     20  C   UNL     1     -14.528   5.336  22.218  0.00  0.00    +0.041 A 
ATOM     22  C   UNL     1     -14.328   4.860  23.510  0.00  0.00    +0.014 A 
ATOM     23  C   UNL     1     -15.736   5.052  21.602  0.00  0.00    +0.122 A 
ATOM     24  C   UNL     1     -15.328   4.126  24.137  0.00  0.00    +0.020 A 
ATOM     25  C   UNL     1     -16.501   3.896  23.434  0.00  0.00    +0.111 A 
ENDBRANCH  17  20
ENDBRANCH   8  13
BRANCH  10   2
ATOM      2  O   UNL     1      -9.428   9.717  17.468  0.00  0.00    -0.390 OA
ATOM     26  H   UNL     1      -9.964   9.339  16.750  0.00  0.00    +0.210 HD
ENDBRANCH  10   2
BRANCH   4  12
ATOM     12  C   UNL     1     -12.741  10.763  20.710  0.00  0.00    +0.120 C 
BRANCH  12  14
ATOM      1  F   UNL     1     -13.309  10.432  26.306  0.00  0.00    -0.205 F 
ATOM     14  C   UNL     1     -12.893  10.674  22.205  0.00  0.00    -0.033 A 
ATOM     15  C   UNL     1     -11.933  11.247  23.039  0.00  0.00    +0.008 A 
ATOM     16  C   UNL     1     -13.994  10.020  22.757  0.00  0.00    +0.008 A 
ATOM     18  C   UNL     1     -12.072  11.165  24.424  0.00  0.00    +0.038 A 
ATOM     19  C   UNL     1     -14.134   9.938  24.143  0.00  0.00    +0.038 A 
ATOM     21  C   UNL     1     -13.173  10.510  24.976  0.00  0.00    +0.123 A 
ENDBRANCH  12  14
ENDBRANCH   4  12
TORSDOF 5
ENDMDL
MODEL 9
REMARK VINA RESULT:      -6.7      2.084      2.847
REMARK  Name = 26743968
REMARK  5 active torsions:
REMARK  status: ('A' for Active; 'I' for Inactive)
REMARK    1  A    between atoms: O_2  and  C_10
REMARK    2  A    between atoms: N_4  and  C_12
REMARK    3  A    between atoms: C_8  and  C_13
REMARK    4  A    between atoms: C_12  and  C_14
REMARK    5  A    between atoms: C_17  and  C_20
REMARK                            x       y       z     vdW  Elec       q    Type
REMARK                         _______ _______ _______ _____ _____    ______ ____
ROOT
ATOM      4  N   UNL     1      13.476   7.908  18.869  0.00  0.00    -0.285 NA
ATOM      8  C   UNL     1      14.208   9.190  18.952  0.00  0.00    +0.149 C 
ATOM      9  C   UNL     1      14.236   9.720  17.507  0.00  0.00    +0.061 C 
ATOM     10  C   UNL     1      13.538   8.649  16.678  0.00  0.00    +0.130 C 
ATOM     11  C   UNL     1      13.693   7.395  17.518  0.00  0.00    +0.116 C 
ENDROOT
BRANCH   8  13
ATOM      3  O   UNL     1      13.200  11.367  19.413  0.00  0.00    -0.336 OA
ATOM      5  N   UNL     1      13.318  10.018  21.198  0.00  0.00    -0.190 NA
ATOM      6  N   UNL     1      12.644  12.084  20.480  0.00  0.00    -0.056 NA
ATOM     13  C   UNL     1      13.570  10.163  19.921  0.00  0.00    +0.245 A 
ATOM     17  C   UNL     1      12.751  11.222  21.497  0.00  0.00    +0.204 A 
BRANCH  17  20
ATOM      7  N   UNL     1      10.452  11.862  24.349  0.00  0.00    -0.263 NA
ATOM     20  C   UNL     1      12.297  11.533  22.822  0.00  0.00    +0.041 A 
ATOM     22  C   UNL     1      13.201  11.800  23.845  0.00  0.00    +0.014 A 
ATOM     23  C   UNL     1      10.945  11.576  23.123  0.00  0.00    +0.122 A 
ATOM     24  C   UNL     1      12.732  12.098  25.120  0.00  0.00    +0.020 A 
ATOM     25  C   UNL     1      11.360  12.116  25.318  0.00  0.00    +0.111 A 
ENDBRANCH  17  20
ENDBRANCH   8  13
BRANCH  10   2
ATOM      2  O   UNL     1      14.154   8.513  15.412  0.00  0.00    -0.390 OA
ATOM     26  H   UNL     1      14.573   9.363  15.199  0.00  0.00    +0.210 HD
ENDBRANCH  10   2
BRANCH   4  12
ATOM     12  C   UNL     1      13.878   6.950  19.891  0.00  0.00    +0.120 C 
BRANCH  12  14
ATOM      1  F   UNL     1      19.482   6.647  20.389  0.00  0.00    -0.205 F 
ATOM     14  C   UNL     1      15.375   6.869  20.024  0.00  0.00    -0.033 A 
ATOM     15  C   UNL     1      16.017   7.515  21.080  0.00  0.00    +0.008 A 
ATOM     16  C   UNL     1      16.120   6.148  19.091  0.00  0.00    +0.008 A 
ATOM     18  C   UNL     1      17.405   7.441  21.204  0.00  0.00    +0.038 A 
ATOM     19  C   UNL     1      17.508   6.073  19.214  0.00  0.00    +0.038 A 
ATOM     21  C   UNL     1      18.150   6.720  20.270  0.00  0.00    +0.123 A 
ENDBRANCH  12  14
ENDBRANCH   4  12
TORSDOF 5
ENDMDL
MODEL 10
REMARK VINA RESULT:      -6.5      3.033      3.279
REMARK  Name = 26743968
REMARK  5 active torsions:
REMARK  status: ('A' for Active; 'I' for Inactive)
REMARK    1  A    between atoms: O_2  and  C_10
REMARK    2  A    between atoms: N_4  and  C_12
REMARK    3  A    between atoms: C_8  and  C_13
REMARK    4  A    between atoms: C_12  and  C_14
REMARK    5  A    between atoms: C_17  and  C_20
REMARK                            x       y       z     vdW  Elec       q    Type
REMARK                         _______ _______ _______ _____ _____    ______ ____
ROOT
ATOM      4  N   UNL     1      11.924   8.310  19.888  0.00  0.00    -0.285 NA
ATOM      8  C   UNL     1      11.054   8.672  21.027  0.00  0.00    +0.149 C 
ATOM      9  C   UNL     1      11.215   7.513  22.028  0.00  0.00    +0.061 C 
ATOM     10  C   UNL     1      12.156   6.529  21.345  0.00  0.00    +0.130 C 
ATOM     11  C   UNL     1      11.996   6.851  19.871  0.00  0.00    +0.116 C 
ENDROOT
BRANCH   8  13
ATOM      3  O   UNL     1      12.501  10.639  21.114  0.00  0.00    -0.336 OA
ATOM      5  N   UNL     1      10.811  10.684  22.582  0.00  0.00    -0.190 NA
ATOM      6  N   UNL     1      12.627  11.845  21.815  0.00  0.00    -0.056 NA
ATOM     13  C   UNL     1      11.408  10.017  21.626  0.00  0.00    +0.245 A 
ATOM     17  C   UNL     1      11.595  11.797  22.663  0.00  0.00    +0.204 A 
BRANCH  17  20
ATOM      7  N   UNL     1      11.339  15.207  24.123  0.00  0.00    -0.263 NA
ATOM     20  C   UNL     1      11.317  12.847  23.601  0.00  0.00    +0.041 A 
ATOM     22  C   UNL     1      10.781  12.567  24.853  0.00  0.00    +0.014 A 
ATOM     23  C   UNL     1      11.576  14.172  23.287  0.00  0.00    +0.122 A 
ATOM     24  C   UNL     1      10.523  13.605  25.741  0.00  0.00    +0.020 A 
ATOM     25  C   UNL     1      10.818  14.897  25.331  0.00  0.00    +0.111 A 
ENDBRANCH  17  20
ENDBRANCH   8  13
BRANCH  10   2
ATOM      2  O   UNL     1      11.783   5.195  21.635  0.00  0.00    -0.390 OA
ATOM     26  H   UNL     1      10.837   5.105  21.429  0.00  0.00    +0.210 HD
ENDBRANCH  10   2
BRANCH   4  12
ATOM     12  C   UNL     1      11.459   8.852  18.617  0.00  0.00    +0.120 C 
BRANCH  12  14
ATOM      1  F   UNL     1      15.723  10.779  15.478  0.00  0.00    -0.205 F 
ATOM     14  C   UNL     1      12.598   9.367  17.779  0.00  0.00    -0.033 A 
ATOM     15  C   UNL     1      13.041   8.633  16.678  0.00  0.00    +0.008 A 
ATOM     16  C   UNL     1      13.211  10.577  18.102  0.00  0.00    +0.008 A 
ATOM     18  C   UNL     1      14.097   9.109  15.901  0.00  0.00    +0.038 A 
ATOM     19  C   UNL     1      14.267  11.055  17.324  0.00  0.00    +0.038 A 
ATOM     21  C   UNL     1      14.710  10.320  16.225  0.00  0.00    +0.123 A 
ENDBRANCH  12  14
ENDBRANCH   4  12
TORSDOF 5
ENDMDL
