MODEL 1
REMARK VINA RESULT:      -6.4      0.000      0.000
REMARK  Name = 71693311
REMARK  11 active torsions:
REMARK  status: ('A' for Active; 'I' for Inactive)
REMARK    1  A    between atoms: O_2  and  C_11
REMARK    2  A    between atoms: N_5  and  C_9
REMARK    3  A    between atoms: N_6  and  C_21
REMARK    4  A    between atoms: C_7  and  C_11
REMARK    5  A    between atoms: C_8  and  C_13
REMARK    6  A    between atoms: C_9  and  C_10
REMARK    7  A    between atoms: C_10  and  C_15
REMARK    8  A    between atoms: C_10  and  C_16
REMARK    9  A    between atoms: C_22  and  C_23
REMARK   10  A    between atoms: C_23  and  C_24
REMARK   11  A    between atoms: C_24  and  C_25
REMARK                            x       y       z     vdW  Elec       q    Type
REMARK                         _______ _______ _______ _____ _____    ______ ____
ROOT
ATOM      1  O   UNL     1      13.581   6.567  20.803  0.00  0.00    -0.361 OA
ATOM      3  O   UNL     1      10.584   8.493  20.831  0.00  0.00    -0.273 OA
ATOM      5  N   UNL     1      12.737   9.145  20.220  0.00  0.00    -0.291 N 
ATOM      7  C   UNL     1      14.169   8.784  20.090  0.00  0.00    +0.135 C 
ATOM      8  C   UNL     1      14.341   7.276  19.824  0.00  0.00    +0.171 C 
ATOM     12  C   UNL     1      11.761   8.217  20.588  0.00  0.00    +0.242 C 
ATOM     14  C   UNL     1      12.202   6.768  20.609  0.00  0.00    +0.256 C 
ENDROOT
BRANCH   8  13
ATOM     13  C   UNL     1      15.770   6.784  19.930  0.00  0.00    -0.017 A 
ATOM     17  C   UNL     1      16.480   6.953  21.117  0.00  0.00    +0.008 A 
ATOM     18  C   UNL     1      16.375   6.160  18.838  0.00  0.00    +0.008 A 
ATOM     19  C   UNL     1      17.795   6.500  21.215  0.00  0.00    +0.023 A 
ATOM     20  C   UNL     1      17.690   5.707  18.935  0.00  0.00    +0.023 A 
ATOM     21  C   UNL     1      18.400   5.876  20.124  0.00  0.00    +0.033 A 
BRANCH  21   6
ATOM      4  O   UNL     1      20.947   7.390  20.608  0.00  0.00    -0.275 OA
ATOM      6  N   UNL     1      19.716   5.423  20.221  0.00  0.00    -0.285 N 
ATOM     22  C   UNL     1      20.878   6.175  20.459  0.00  0.00    +0.217 C 
ATOM     27  H   UNL     1      19.838   4.419  20.106  0.00  0.00    +0.155 HD
BRANCH  22  23
ATOM     23  C   UNL     1      22.115   5.284  20.488  0.00  0.00    +0.096 C 
BRANCH  23  24
ATOM     24  C   UNL     1      21.890   3.934  21.165  0.00  0.00    +0.006 C 
ATOM     25  C   UNL     1      23.155   3.090  21.216  0.00  0.00    +0.004 C 
ENDBRANCH  23  24
ENDBRANCH  22  23
ENDBRANCH  21   6
ENDBRANCH   8  13
BRANCH   5   9
ATOM      9  C   UNL     1      12.381  10.562  20.198  0.00  0.00    +0.111 C 
BRANCH   9  10
ATOM     10  C   UNL     1      12.597  11.239  21.555  0.00  0.00    +0.000 C 
ATOM     15  C   UNL     1      11.272  11.784  22.087  0.00  0.00    +0.009 C 
ATOM     16  C   UNL     1      13.628  12.367  21.465  0.00  0.00    +0.009 C 
ENDBRANCH   9  10
ENDBRANCH   5   9
BRANCH   7  11
ATOM     11  C   UNL     1      14.889   9.607  19.012  0.00  0.00    +0.181 C 
BRANCH  11   2
ATOM      2  O   UNL     1      14.448   9.158  17.747  0.00  0.00    -0.393 OA
ATOM     26  H   UNL     1      14.030   8.291  17.878  0.00  0.00    +0.209 HD
ENDBRANCH  11   2
ENDBRANCH   7  11
TORSDOF 8
ENDMDL
MODEL 2
REMARK VINA RESULT:      -5.6      2.324      8.567
REMARK  Name = 71693311
REMARK  11 active torsions:
REMARK  status: ('A' for Active; 'I' for Inactive)
REMARK    1  A    between atoms: O_2  and  C_11
REMARK    2  A    between atoms: N_5  and  C_9
REMARK    3  A    between atoms: N_6  and  C_21
REMARK    4  A    between atoms: C_7  and  C_11
REMARK    5  A    between atoms: C_8  and  C_13
REMARK    6  A    between atoms: C_9  and  C_10
REMARK    7  A    between atoms: C_10  and  C_15
REMARK    8  A    between atoms: C_10  and  C_16
REMARK    9  A    between atoms: C_22  and  C_23
REMARK   10  A    between atoms: C_23  and  C_24
REMARK   11  A    between atoms: C_24  and  C_25
REMARK                            x       y       z     vdW  Elec       q    Type
REMARK                         _______ _______ _______ _____ _____    ______ ____
ROOT
ATOM      1  O   UNL     1      20.108   4.954  20.254  0.00  0.00    -0.361 OA
ATOM      3  O   UNL     1      23.605   5.337  20.819  0.00  0.00    -0.273 OA
ATOM      5  N   UNL     1      21.918   6.940  20.947  0.00  0.00    -0.291 N 
ATOM      7  C   UNL     1      20.481   7.267  20.779  0.00  0.00    +0.135 C 
ATOM      8  C   UNL     1      19.595   6.034  21.035  0.00  0.00    +0.171 C 
ATOM     12  C   UNL     1      22.410   5.640  20.814  0.00  0.00    +0.242 C 
ATOM     14  C   UNL     1      21.367   4.544  20.731  0.00  0.00    +0.256 C 
ENDROOT
BRANCH   8  13
ATOM     13  C   UNL     1      18.144   6.216  20.640  0.00  0.00    -0.017 A 
ATOM     17  C   UNL     1      17.758   6.059  19.310  0.00  0.00    +0.008 A 
ATOM     18  C   UNL     1      17.194   6.542  21.608  0.00  0.00    +0.008 A 
ATOM     19  C   UNL     1      16.422   6.226  18.947  0.00  0.00    +0.023 A 
ATOM     20  C   UNL     1      15.858   6.710  21.245  0.00  0.00    +0.023 A 
ATOM     21  C   UNL     1      15.472   6.551  19.914  0.00  0.00    +0.033 A 
BRANCH  21   6
ATOM      4  O   UNL     1      14.078   8.898  18.662  0.00  0.00    -0.275 OA
ATOM      6  N   UNL     1      14.136   6.720  19.550  0.00  0.00    -0.285 N 
ATOM     22  C   UNL     1      13.532   7.840  18.956  0.00  0.00    +0.217 C 
ATOM     27  H   UNL     1      13.531   5.924  19.743  0.00  0.00    +0.155 HD
BRANCH  22  23
ATOM     23  C   UNL     1      12.043   7.607  18.726  0.00  0.00    +0.096 C 
BRANCH  23  24
ATOM     24  C   UNL     1      11.138   8.510  19.560  0.00  0.00    +0.006 C 
ATOM     25  C   UNL     1      10.893   7.961  20.958  0.00  0.00    +0.004 C 
ENDBRANCH  23  24
ENDBRANCH  22  23
ENDBRANCH  21   6
ENDBRANCH   8  13
BRANCH   5   9
ATOM      9  C   UNL     1      22.871   8.045  21.013  0.00  0.00    +0.111 C 
BRANCH   9  10
ATOM     10  C   UNL     1      23.182   8.631  19.632  0.00  0.00    +0.000 C 
ATOM     15  C   UNL     1      24.691   8.628  19.389  0.00  0.00    +0.009 C 
ATOM     16  C   UNL     1      22.632  10.051  19.485  0.00  0.00    +0.009 C 
ENDBRANCH   9  10
ENDBRANCH   5   9
BRANCH   7  11
ATOM     11  C   UNL     1      20.038   8.443  21.663  0.00  0.00    +0.181 C 
BRANCH  11   2
ATOM      2  O   UNL     1      20.048   8.011  23.008  0.00  0.00    -0.393 OA
ATOM     26  H   UNL     1      19.588   8.689  23.531  0.00  0.00    +0.209 HD
ENDBRANCH  11   2
ENDBRANCH   7  11
TORSDOF 8
ENDMDL
MODEL 3
REMARK VINA RESULT:      -5.5      2.492      4.023
REMARK  Name = 71693311
REMARK  11 active torsions:
REMARK  status: ('A' for Active; 'I' for Inactive)
REMARK    1  A    between atoms: O_2  and  C_11
REMARK    2  A    between atoms: N_5  and  C_9
REMARK    3  A    between atoms: N_6  and  C_21
REMARK    4  A    between atoms: C_7  and  C_11
REMARK    5  A    between atoms: C_8  and  C_13
REMARK    6  A    between atoms: C_9  and  C_10
REMARK    7  A    between atoms: C_10  and  C_15
REMARK    8  A    between atoms: C_10  and  C_16
REMARK    9  A    between atoms: C_22  and  C_23
REMARK   10  A    between atoms: C_23  and  C_24
REMARK   11  A    between atoms: C_24  and  C_25
REMARK                            x       y       z     vdW  Elec       q    Type
REMARK                         _______ _______ _______ _____ _____    ______ ____
ROOT
ATOM      1  O   UNL     1      18.151   9.347  20.959  0.00  0.00    -0.361 OA
ATOM      3  O   UNL     1      15.196  11.318  20.676  0.00  0.00    -0.273 OA
ATOM      5  N   UNL     1      15.453   9.018  20.401  0.00  0.00    -0.291 N 
ATOM      7  C   UNL     1      16.368   7.851  20.366  0.00  0.00    +0.135 C 
ATOM      8  C   UNL     1      17.589   8.074  21.279  0.00  0.00    +0.171 C 
ATOM     12  C   UNL     1      15.885  10.298  20.753  0.00  0.00    +0.242 C 
ATOM     14  C   UNL     1      17.281  10.388  21.334  0.00  0.00    +0.256 C 
ENDROOT
BRANCH   8  13
ATOM     13  C   UNL     1      18.690   7.048  21.108  0.00  0.00    -0.017 A 
ATOM     17  C   UNL     1      18.570   6.050  20.142  0.00  0.00    +0.008 A 
ATOM     18  C   UNL     1      19.825   7.102  21.917  0.00  0.00    +0.008 A 
ATOM     19  C   UNL     1      19.584   5.106  19.984  0.00  0.00    +0.023 A 
ATOM     20  C   UNL     1      20.840   6.158  21.760  0.00  0.00    +0.023 A 
ATOM     21  C   UNL     1      20.719   5.160  20.793  0.00  0.00    +0.033 A 
BRANCH  21   6
ATOM      4  O   UNL     1      21.857   3.185  22.747  0.00  0.00    -0.275 OA
ATOM      6  N   UNL     1      21.733   4.215  20.636  0.00  0.00    -0.285 N 
ATOM     22  C   UNL     1      22.225   3.303  21.584  0.00  0.00    +0.217 C 
ATOM     27  H   UNL     1      22.163   4.190  19.713  0.00  0.00    +0.155 HD
BRANCH  22  23
ATOM     23  C   UNL     1      23.342   2.446  20.998  0.00  0.00    +0.096 C 
BRANCH  23  24
ATOM     24  C   UNL     1      24.662   3.191  20.814  0.00  0.00    +0.006 C 
ATOM     25  C   UNL     1      25.165   3.142  19.379  0.00  0.00    +0.004 C 
ENDBRANCH  23  24
ENDBRANCH  22  23
ENDBRANCH  21   6
ENDBRANCH   8  13
BRANCH   5   9
ATOM      9  C   UNL     1      14.122   8.864  19.817  0.00  0.00    +0.111 C 
BRANCH   9  10
ATOM     10  C   UNL     1      14.127   9.051  18.296  0.00  0.00    +0.000 C 
ATOM     15  C   UNL     1      13.148  10.156  17.901  0.00  0.00    +0.009 C 
ATOM     16  C   UNL     1      13.774   7.753  17.567  0.00  0.00    +0.009 C 
ENDBRANCH   9  10
ENDBRANCH   5   9
BRANCH   7  11
ATOM     11  C   UNL     1      15.660   6.537  20.724  0.00  0.00    +0.181 C 
BRANCH  11   2
ATOM      2  O   UNL     1      15.473   6.503  22.124  0.00  0.00    -0.393 OA
ATOM     26  H   UNL     1      16.356   6.480  22.532  0.00  0.00    +0.209 HD
ENDBRANCH  11   2
ENDBRANCH   7  11
TORSDOF 8
ENDMDL
MODEL 4
REMARK VINA RESULT:      -5.5     17.440     19.940
REMARK  Name = 71693311
REMARK  11 active torsions:
REMARK  status: ('A' for Active; 'I' for Inactive)
REMARK    1  A    between atoms: O_2  and  C_11
REMARK    2  A    between atoms: N_5  and  C_9
REMARK    3  A    between atoms: N_6  and  C_21
REMARK    4  A    between atoms: C_7  and  C_11
REMARK    5  A    between atoms: C_8  and  C_13
REMARK    6  A    between atoms: C_9  and  C_10
REMARK    7  A    between atoms: C_10  and  C_15
REMARK    8  A    between atoms: C_10  and  C_16
REMARK    9  A    between atoms: C_22  and  C_23
REMARK   10  A    between atoms: C_23  and  C_24
REMARK   11  A    between atoms: C_24  and  C_25
REMARK                            x       y       z     vdW  Elec       q    Type
REMARK                         _______ _______ _______ _____ _____    ______ ____
ROOT
ATOM      1  O   UNL     1      11.578   5.451  -0.001  0.00  0.00    -0.361 OA
ATOM      3  O   UNL     1      13.474   4.815  -2.950  0.00  0.00    -0.273 OA
ATOM      5  N   UNL     1      14.056   4.434  -0.725  0.00  0.00    -0.291 N 
ATOM      7  C   UNL     1      13.689   4.552   0.707  0.00  0.00    +0.135 C 
ATOM      8  C   UNL     1      12.161   4.506   0.896  0.00  0.00    +0.171 C 
ATOM     12  C   UNL     1      13.176   4.776  -1.754  0.00  0.00    +0.242 C 
ATOM     14  C   UNL     1      11.744   5.041  -1.338  0.00  0.00    +0.256 C 
ENDROOT
BRANCH   8  13
ATOM     13  C   UNL     1      11.694   4.872   2.290  0.00  0.00    -0.017 A 
ATOM     17  C   UNL     1      12.081   6.084   2.859  0.00  0.00    +0.008 A 
ATOM     18  C   UNL     1      10.877   3.995   3.004  0.00  0.00    +0.008 A 
ATOM     19  C   UNL     1      11.651   6.421   4.142  0.00  0.00    +0.023 A 
ATOM     20  C   UNL     1      10.447   4.332   4.288  0.00  0.00    +0.023 A 
ATOM     21  C   UNL     1      10.834   5.545   4.856  0.00  0.00    +0.033 A 
BRANCH  21   6
ATOM      4  O   UNL     1       8.163   6.521   5.820  0.00  0.00    -0.275 OA
ATOM      6  N   UNL     1      10.404   5.882   6.140  0.00  0.00    -0.285 N 
ATOM     22  C   UNL     1       9.135   6.328   6.543  0.00  0.00    +0.217 C 
ATOM     27  H   UNL     1      11.107   5.789   6.871  0.00  0.00    +0.155 HD
BRANCH  22  23
ATOM     23  C   UNL     1       9.091   6.586   8.044  0.00  0.00    +0.096 C 
BRANCH  23  24
ATOM     24  C   UNL     1       9.993   5.661   8.859  0.00  0.00    +0.006 C 
ATOM     25  C   UNL     1       9.204   4.695   9.730  0.00  0.00    +0.004 C 
ENDBRANCH  23  24
ENDBRANCH  22  23
ENDBRANCH  21   6
ENDBRANCH   8  13
BRANCH   5   9
ATOM      9  C   UNL     1      15.456   4.184  -1.057  0.00  0.00    +0.111 C 
BRANCH   9  10
ATOM     10  C   UNL     1      16.196   5.461  -1.469  0.00  0.00    +0.000 C 
ATOM     15  C   UNL     1      17.353   5.118  -2.407  0.00  0.00    +0.009 C 
ATOM     16  C   UNL     1      16.720   6.227  -0.251  0.00  0.00    +0.009 C 
ENDBRANCH   9  10
ENDBRANCH   5   9
BRANCH   7  11
ATOM     11  C   UNL     1      14.374   3.490   1.580  0.00  0.00    +0.181 C 
BRANCH  11   2
ATOM      2  O   UNL     1      15.254   4.149   2.466  0.00  0.00    -0.393 OA
ATOM     26  H   UNL     1      16.094   3.659   2.457  0.00  0.00    +0.209 HD
ENDBRANCH  11   2
ENDBRANCH   7  11
TORSDOF 8
ENDMDL
MODEL 5
REMARK VINA RESULT:      -5.5     26.444     29.594
REMARK  Name = 71693311
REMARK  11 active torsions:
REMARK  status: ('A' for Active; 'I' for Inactive)
REMARK    1  A    between atoms: O_2  and  C_11
REMARK    2  A    between atoms: N_5  and  C_9
REMARK    3  A    between atoms: N_6  and  C_21
REMARK    4  A    between atoms: C_7  and  C_11
REMARK    5  A    between atoms: C_8  and  C_13
REMARK    6  A    between atoms: C_9  and  C_10
REMARK    7  A    between atoms: C_10  and  C_15
REMARK    8  A    between atoms: C_10  and  C_16
REMARK    9  A    between atoms: C_22  and  C_23
REMARK   10  A    between atoms: C_23  and  C_24
REMARK   11  A    between atoms: C_24  and  C_25
REMARK                            x       y       z     vdW  Elec       q    Type
REMARK                         _______ _______ _______ _____ _____    ______ ____
ROOT
ATOM      1  O   UNL     1      -2.323  -9.953  12.897  0.00  0.00    -0.361 OA
ATOM      3  O   UNL     1      -1.823 -10.777  16.327  0.00  0.00    -0.273 OA
ATOM      5  N   UNL     1      -3.696 -11.150  14.990  0.00  0.00    -0.291 N 
ATOM      7  C   UNL     1      -4.352 -10.977  13.671  0.00  0.00    +0.135 C 
ATOM      8  C   UNL     1      -3.313 -10.916  12.536  0.00  0.00    +0.171 C 
ATOM     12  C   UNL     1      -2.373 -10.771  15.222  0.00  0.00    +0.242 C 
ATOM     14  C   UNL     1      -1.565 -10.401  13.995  0.00  0.00    +0.256 C 
ENDROOT
BRANCH   8  13
ATOM     13  C   UNL     1      -3.878 -10.490  11.196  0.00  0.00    -0.017 A 
ATOM     17  C   UNL     1      -4.438  -9.222  11.047  0.00  0.00    +0.008 A 
ATOM     18  C   UNL     1      -3.838 -11.367  10.112  0.00  0.00    +0.008 A 
ATOM     19  C   UNL     1      -4.958  -8.830   9.814  0.00  0.00    +0.023 A 
ATOM     20  C   UNL     1      -4.358 -10.975   8.878  0.00  0.00    +0.023 A 
ATOM     21  C   UNL     1      -4.917  -9.706   8.729  0.00  0.00    +0.033 A 
BRANCH  21   6
ATOM      4  O   UNL     1      -7.491 -10.456   7.378  0.00  0.00    -0.275 OA
ATOM      6  N   UNL     1      -5.438  -9.314   7.496  0.00  0.00    -0.285 N 
ATOM     22  C   UNL     1      -6.658  -9.688   6.910  0.00  0.00    +0.217 C 
ATOM     27  H   UNL     1      -4.853  -8.674   6.962  0.00  0.00    +0.155 HD
BRANCH  22  23
ATOM     23  C   UNL     1      -6.840  -9.029   5.547  0.00  0.00    +0.096 C 
BRANCH  23  24
ATOM     24  C   UNL     1      -8.096  -8.168   5.439  0.00  0.00    +0.006 C 
ATOM     25  C   UNL     1      -8.225  -7.177   6.586  0.00  0.00    +0.004 C 
ENDBRANCH  23  24
ENDBRANCH  22  23
ENDBRANCH  21   6
ENDBRANCH   8  13
BRANCH   5   9
ATOM      9  C   UNL     1      -4.534 -11.502  16.133  0.00  0.00    +0.111 C 
BRANCH   9  10
ATOM     10  C   UNL     1      -4.954 -10.274  16.949  0.00  0.00    +0.000 C 
ATOM     15  C   UNL     1      -5.236 -10.677  18.396  0.00  0.00    +0.009 C 
ATOM     16  C   UNL     1      -6.184  -9.591  16.347  0.00  0.00    +0.009 C 
ENDBRANCH   9  10
ENDBRANCH   5   9
BRANCH   7  11
ATOM     11  C   UNL     1      -5.399 -12.064  13.387  0.00  0.00    +0.181 C 
BRANCH  11   2
ATOM      2  O   UNL     1      -6.652 -11.435  13.212  0.00  0.00    -0.393 OA
ATOM     26  H   UNL     1      -6.785 -10.843  13.971  0.00  0.00    +0.209 HD
ENDBRANCH  11   2
ENDBRANCH   7  11
TORSDOF 8
ENDMDL
MODEL 6
REMARK VINA RESULT:      -5.4     21.999     25.781
REMARK  Name = 71693311
REMARK  11 active torsions:
REMARK  status: ('A' for Active; 'I' for Inactive)
REMARK    1  A    between atoms: O_2  and  C_11
REMARK    2  A    between atoms: N_5  and  C_9
REMARK    3  A    between atoms: N_6  and  C_21
REMARK    4  A    between atoms: C_7  and  C_11
REMARK    5  A    between atoms: C_8  and  C_13
REMARK    6  A    between atoms: C_9  and  C_10
REMARK    7  A    between atoms: C_10  and  C_15
REMARK    8  A    between atoms: C_10  and  C_16
REMARK    9  A    between atoms: C_22  and  C_23
REMARK   10  A    between atoms: C_23  and  C_24
REMARK   11  A    between atoms: C_24  and  C_25
REMARK                            x       y       z     vdW  Elec       q    Type
REMARK                         _______ _______ _______ _____ _____    ______ ____
ROOT
ATOM      1  O   UNL     1      -1.645   9.564   3.250  0.00  0.00    -0.361 OA
ATOM      3  O   UNL     1       0.998  11.915   3.669  0.00  0.00    -0.273 OA
ATOM      5  N   UNL     1      -0.688  11.327   5.167  0.00  0.00    -0.291 N 
ATOM      7  C   UNL     1      -1.913  10.533   5.431  0.00  0.00    +0.135 C 
ATOM      8  C   UNL     1      -1.919   9.229   4.611  0.00  0.00    +0.171 C 
ATOM     12  C   UNL     1       0.051  11.194   3.989  0.00  0.00    +0.242 C 
ATOM     14  C   UNL     1      -0.323  10.024   3.103  0.00  0.00    +0.256 C 
ENDROOT
BRANCH   8  13
ATOM     13  C   UNL     1      -3.240   8.488   4.629  0.00  0.00    -0.017 A 
ATOM     17  C   UNL     1      -3.328   7.233   5.229  0.00  0.00    +0.008 A 
ATOM     18  C   UNL     1      -4.369   9.063   4.044  0.00  0.00    +0.008 A 
ATOM     19  C   UNL     1      -4.545   6.552   5.245  0.00  0.00    +0.023 A 
ATOM     20  C   UNL     1      -5.586   8.382   4.060  0.00  0.00    +0.023 A 
ATOM     21  C   UNL     1      -5.674   7.126   4.661  0.00  0.00    +0.033 A 
BRANCH  21   6
ATOM      4  O   UNL     1      -8.215   7.716   6.147  0.00  0.00    -0.275 OA
ATOM      6  N   UNL     1      -6.890   6.444   4.677  0.00  0.00    -0.285 N 
ATOM     22  C   UNL     1      -8.059   6.767   5.386  0.00  0.00    +0.217 C 
ATOM     27  H   UNL     1      -6.926   5.608   4.097  0.00  0.00    +0.155 HD
BRANCH  22  23
ATOM     23  C   UNL     1      -9.164   5.752   5.121  0.00  0.00    +0.096 C 
BRANCH  23  24
ATOM     24  C   UNL     1      -8.900   4.848   3.919  0.00  0.00    +0.006 C 
ATOM     25  C   UNL     1     -10.009   4.918   2.880  0.00  0.00    +0.004 C 
ENDBRANCH  23  24
ENDBRANCH  22  23
ENDBRANCH  21   6
ENDBRANCH   8  13
BRANCH   5   9
ATOM      9  C   UNL     1      -0.389  12.446   6.057  0.00  0.00    +0.111 C 
BRANCH   9  10
ATOM     10  C   UNL     1       0.793  12.152   6.988  0.00  0.00    +0.000 C 
ATOM     15  C   UNL     1       0.379  12.364   8.443  0.00  0.00    +0.009 C 
ATOM     16  C   UNL     1       2.003  13.028   6.656  0.00  0.00    +0.009 C 
ENDBRANCH   9  10
ENDBRANCH   5   9
BRANCH   7  11
ATOM     11  C   UNL     1      -2.109  10.234   6.924  0.00  0.00    +0.181 C 
BRANCH  11   2
ATOM      2  O   UNL     1      -1.106   9.324   7.327  0.00  0.00    -0.393 OA
ATOM     26  H   UNL     1      -0.573   9.766   8.009  0.00  0.00    +0.209 HD
ENDBRANCH  11   2
ENDBRANCH   7  11
TORSDOF 8
ENDMDL
MODEL 7
REMARK VINA RESULT:      -5.3      1.458      2.127
REMARK  Name = 71693311
REMARK  11 active torsions:
REMARK  status: ('A' for Active; 'I' for Inactive)
REMARK    1  A    between atoms: O_2  and  C_11
REMARK    2  A    between atoms: N_5  and  C_9
REMARK    3  A    between atoms: N_6  and  C_21
REMARK    4  A    between atoms: C_7  and  C_11
REMARK    5  A    between atoms: C_8  and  C_13
REMARK    6  A    between atoms: C_9  and  C_10
REMARK    7  A    between atoms: C_10  and  C_15
REMARK    8  A    between atoms: C_10  and  C_16
REMARK    9  A    between atoms: C_22  and  C_23
REMARK   10  A    between atoms: C_23  and  C_24
REMARK   11  A    between atoms: C_24  and  C_25
REMARK                            x       y       z     vdW  Elec       q    Type
REMARK                         _______ _______ _______ _____ _____    ______ ____
ROOT
ATOM      1  O   UNL     1      14.356   7.914  21.304  0.00  0.00    -0.361 OA
ATOM      3  O   UNL     1      11.452   9.838  20.555  0.00  0.00    -0.273 OA
ATOM      5  N   UNL     1      13.225   9.258  19.156  0.00  0.00    -0.291 N 
ATOM      7  C   UNL     1      14.542   8.594  19.009  0.00  0.00    +0.135 C 
ATOM      8  C   UNL     1      14.693   7.428  20.005  0.00  0.00    +0.171 C 
ATOM     12  C   UNL     1      12.487   9.202  20.340  0.00  0.00    +0.242 C 
ATOM     14  C   UNL     1      12.985   8.223  21.384  0.00  0.00    +0.256 C 
ENDROOT
BRANCH   8  13
ATOM     13  C   UNL     1      16.095   6.862  20.093  0.00  0.00    -0.017 A 
ATOM     17  C   UNL     1      16.599   6.081  19.054  0.00  0.00    +0.008 A 
ATOM     18  C   UNL     1      16.883   7.122  21.215  0.00  0.00    +0.008 A 
ATOM     19  C   UNL     1      17.890   5.560  19.136  0.00  0.00    +0.023 A 
ATOM     20  C   UNL     1      18.174   6.601  21.297  0.00  0.00    +0.023 A 
ATOM     21  C   UNL     1      18.678   5.820  20.257  0.00  0.00    +0.033 A 
BRANCH  21   6
ATOM      4  O   UNL     1      21.334   7.214  20.382  0.00  0.00    -0.275 OA
ATOM      6  N   UNL     1      19.969   5.298  20.339  0.00  0.00    -0.285 N 
ATOM     22  C   UNL     1      21.185   5.997  20.405  0.00  0.00    +0.217 C 
ATOM     27  H   UNL     1      20.025   4.282  20.355  0.00  0.00    +0.155 HD
BRANCH  22  23
ATOM     23  C   UNL     1      22.368   5.038  20.483  0.00  0.00    +0.096 C 
BRANCH  23  24
ATOM     24  C   UNL     1      22.005   3.647  20.998  0.00  0.00    +0.006 C 
ATOM     25  C   UNL     1      22.501   3.402  22.416  0.00  0.00    +0.004 C 
ENDBRANCH  23  24
ENDBRANCH  22  23
ENDBRANCH  21   6
ENDBRANCH   8  13
BRANCH   5   9
ATOM      9  C   UNL     1      12.808  10.196  18.117  0.00  0.00    +0.111 C 
BRANCH   9  10
ATOM     10  C   UNL     1      13.864  11.271  17.842  0.00  0.00    +0.000 C 
ATOM     15  C   UNL     1      13.520  12.551  18.604  0.00  0.00    +0.009 C 
ATOM     16  C   UNL     1      13.989  11.571  16.347  0.00  0.00    +0.009 C 
ENDBRANCH   9  10
ENDBRANCH   5   9
BRANCH   7  11
ATOM     11  C   UNL     1      14.801   8.114  17.573  0.00  0.00    +0.181 C 
BRANCH  11   2
ATOM      2  O   UNL     1      13.707   7.316  17.171  0.00  0.00    -0.393 OA
ATOM     26  H   UNL     1      13.633   6.586  17.808  0.00  0.00    +0.209 HD
ENDBRANCH  11   2
ENDBRANCH   7  11
TORSDOF 8
ENDMDL
MODEL 8
REMARK VINA RESULT:      -5.2     27.720     29.836
REMARK  Name = 71693311
REMARK  11 active torsions:
REMARK  status: ('A' for Active; 'I' for Inactive)
REMARK    1  A    between atoms: O_2  and  C_11
REMARK    2  A    between atoms: N_5  and  C_9
REMARK    3  A    between atoms: N_6  and  C_21
REMARK    4  A    between atoms: C_7  and  C_11
REMARK    5  A    between atoms: C_8  and  C_13
REMARK    6  A    between atoms: C_9  and  C_10
REMARK    7  A    between atoms: C_10  and  C_15
REMARK    8  A    between atoms: C_10  and  C_16
REMARK    9  A    between atoms: C_22  and  C_23
REMARK   10  A    between atoms: C_23  and  C_24
REMARK   11  A    between atoms: C_24  and  C_25
REMARK                            x       y       z     vdW  Elec       q    Type
REMARK                         _______ _______ _______ _____ _____    ______ ____
ROOT
ATOM      1  O   UNL     1      -8.232  -9.674  16.289  0.00  0.00    -0.361 OA
ATOM      3  O   UNL     1     -11.169  -8.814  18.112  0.00  0.00    -0.273 OA
ATOM      5  N   UNL     1      -9.413 -10.213  18.741  0.00  0.00    -0.291 N 
ATOM      7  C   UNL     1      -8.132 -10.863  18.373  0.00  0.00    +0.135 C 
ATOM      8  C   UNL     1      -7.347 -10.011  17.357  0.00  0.00    +0.171 C 
ATOM     12  C   UNL     1     -10.047  -9.286  17.911  0.00  0.00    +0.242 C 
ATOM     14  C   UNL     1      -9.237  -8.794  16.729  0.00  0.00    +0.256 C 
ENDROOT
BRANCH   8  13
ATOM     13  C   UNL     1      -6.156 -10.717  16.741  0.00  0.00    -0.017 A 
ATOM     17  C   UNL     1      -6.347 -11.858  15.963  0.00  0.00    +0.008 A 
ATOM     18  C   UNL     1      -4.868 -10.225  16.953  0.00  0.00    +0.008 A 
ATOM     19  C   UNL     1      -5.251 -12.507  15.396  0.00  0.00    +0.023 A 
ATOM     20  C   UNL     1      -3.771 -10.874  16.386  0.00  0.00    +0.023 A 
ATOM     21  C   UNL     1      -3.963 -12.015  15.607  0.00  0.00    +0.033 A 
BRANCH  21   6
ATOM      4  O   UNL     1      -2.459 -11.442  13.073  0.00  0.00    -0.275 OA
ATOM      6  N   UNL     1      -2.867 -12.665  15.040  0.00  0.00    -0.285 N 
ATOM     22  C   UNL     1      -2.190 -12.351  13.851  0.00  0.00    +0.217 C 
ATOM     27  H   UNL     1      -2.520 -13.466  15.564  0.00  0.00    +0.155 HD
BRANCH  22  23
ATOM     23  C   UNL     1      -1.043 -13.321  13.595  0.00  0.00    +0.096 C 
BRANCH  23  24
ATOM     24  C   UNL     1      -1.473 -14.785  13.526  0.00  0.00    +0.006 C 
ATOM     25  C   UNL     1      -0.295 -15.731  13.340  0.00  0.00    +0.004 C 
ENDBRANCH  23  24
ENDBRANCH  22  23
ENDBRANCH  21   6
ENDBRANCH   8  13
BRANCH   5   9
ATOM      9  C   UNL     1     -10.146 -10.740  19.889  0.00  0.00    +0.111 C 
BRANCH   9  10
ATOM     10  C   UNL     1     -10.854 -12.062  19.572  0.00  0.00    +0.000 C 
ATOM     15  C   UNL     1     -12.368 -11.887  19.690  0.00  0.00    +0.009 C 
ATOM     16  C   UNL     1     -10.385 -13.189  20.495  0.00  0.00    +0.009 C 
ENDBRANCH   9  10
ENDBRANCH   5   9
BRANCH   7  11
ATOM     11  C   UNL     1      -7.261 -11.182  19.597  0.00  0.00    +0.181 C 
BRANCH  11   2
ATOM      2  O   UNL     1      -6.705  -9.973  20.070  0.00  0.00    -0.393 OA
ATOM     26  H   UNL     1      -6.973  -9.876  21.000  0.00  0.00    +0.209 HD
ENDBRANCH  11   2
ENDBRANCH   7  11
TORSDOF 8
ENDMDL
MODEL 9
REMARK VINA RESULT:      -5.2     18.510     20.726
REMARK  Name = 71693311
REMARK  11 active torsions:
REMARK  status: ('A' for Active; 'I' for Inactive)
REMARK    1  A    between atoms: O_2  and  C_11
REMARK    2  A    between atoms: N_5  and  C_9
REMARK    3  A    between atoms: N_6  and  C_21
REMARK    4  A    between atoms: C_7  and  C_11
REMARK    5  A    between atoms: C_8  and  C_13
REMARK    6  A    between atoms: C_9  and  C_10
REMARK    7  A    between atoms: C_10  and  C_15
REMARK    8  A    between atoms: C_10  and  C_16
REMARK    9  A    between atoms: C_22  and  C_23
REMARK   10  A    between atoms: C_23  and  C_24
REMARK   11  A    between atoms: C_24  and  C_25
REMARK                            x       y       z     vdW  Elec       q    Type
REMARK                         _______ _______ _______ _____ _____    ______ ____
ROOT
ATOM      1  O   UNL     1      13.079   3.908   0.534  0.00  0.00    -0.361 OA
ATOM      3  O   UNL     1      13.170   3.181  -2.953  0.00  0.00    -0.273 OA
ATOM      5  N   UNL     1      11.416   4.043  -1.683  0.00  0.00    -0.291 N 
ATOM      7  C   UNL     1      10.909   4.439  -0.347  0.00  0.00    +0.135 C 
ATOM      8  C   UNL     1      12.058   4.905   0.569  0.00  0.00    +0.171 C 
ATOM     12  C   UNL     1      12.735   3.638  -1.893  0.00  0.00    +0.242 C 
ATOM     14  C   UNL     1      13.687   3.857  -0.735  0.00  0.00    +0.256 C 
ENDROOT
BRANCH   8  13
ATOM     13  C   UNL     1      11.663   5.084   2.021  0.00  0.00    -0.017 A 
ATOM     17  C   UNL     1      10.922   4.098   2.669  0.00  0.00    +0.008 A 
ATOM     18  C   UNL     1      12.042   6.238   2.708  0.00  0.00    +0.008 A 
ATOM     19  C   UNL     1      10.559   4.263   4.005  0.00  0.00    +0.023 A 
ATOM     20  C   UNL     1      11.679   6.403   4.045  0.00  0.00    +0.023 A 
ATOM     21  C   UNL     1      10.938   5.416   4.693  0.00  0.00    +0.033 A 
BRANCH  21   6
ATOM      4  O   UNL     1       8.365   6.381   5.903  0.00  0.00    -0.275 OA
ATOM      6  N   UNL     1      10.574   5.581   6.030  0.00  0.00    -0.285 N 
ATOM     22  C   UNL     1       9.348   6.030   6.547  0.00  0.00    +0.217 C 
ATOM     27  H   UNL     1      11.295   5.343   6.708  0.00  0.00    +0.155 HD
BRANCH  22  23
ATOM     23  C   UNL     1       9.372   6.065   8.071  0.00  0.00    +0.096 C 
BRANCH  23  24
ATOM     24  C   UNL     1       9.655   4.711   8.717  0.00  0.00    +0.006 C 
ATOM     25  C   UNL     1       9.055   4.592  10.111  0.00  0.00    +0.004 C 
ENDBRANCH  23  24
ENDBRANCH  22  23
ENDBRANCH  21   6
ENDBRANCH   8  13
BRANCH   5   9
ATOM      9  C   UNL     1      10.444   3.842  -2.754  0.00  0.00    +0.111 C 
BRANCH   9  10
ATOM     10  C   UNL     1      10.544   4.916  -3.843  0.00  0.00    +0.000 C 
ATOM     15  C   UNL     1       9.224   5.680  -3.949  0.00  0.00    +0.009 C 
ATOM     16  C   UNL     1      10.909   4.312  -5.200  0.00  0.00    +0.009 C 
ENDBRANCH   9  10
ENDBRANCH   5   9
BRANCH   7  11
ATOM     11  C   UNL     1       9.814   5.513  -0.427  0.00  0.00    +0.181 C 
BRANCH  11   2
ATOM      2  O   UNL     1      10.427   6.745  -0.749  0.00  0.00    -0.393 OA
ATOM     26  H   UNL     1       9.816   7.450  -0.477  0.00  0.00    +0.209 HD
ENDBRANCH  11   2
ENDBRANCH   7  11
TORSDOF 8
ENDMDL
MODEL 10
REMARK VINA RESULT:      -5.2     15.636     17.217
REMARK  Name = 71693311
REMARK  11 active torsions:
REMARK  status: ('A' for Active; 'I' for Inactive)
REMARK    1  A    between atoms: O_2  and  C_11
REMARK    2  A    between atoms: N_5  and  C_9
REMARK    3  A    between atoms: N_6  and  C_21
REMARK    4  A    between atoms: C_7  and  C_11
REMARK    5  A    between atoms: C_8  and  C_13
REMARK    6  A    between atoms: C_9  and  C_10
REMARK    7  A    between atoms: C_10  and  C_15
REMARK    8  A    between atoms: C_10  and  C_16
REMARK    9  A    between atoms: C_22  and  C_23
REMARK   10  A    between atoms: C_23  and  C_24
REMARK   11  A    between atoms: C_24  and  C_25
REMARK                            x       y       z     vdW  Elec       q    Type
REMARK                         _______ _______ _______ _____ _____    ______ ____
ROOT
ATOM      1  O   UNL     1       9.868   7.181   4.311  0.00  0.00    -0.361 OA
ATOM      3  O   UNL     1       7.887   7.692   7.228  0.00  0.00    -0.273 OA
ATOM      5  N   UNL     1      10.060   6.864   7.061  0.00  0.00    -0.291 N 
ATOM      7  C   UNL     1      11.185   6.459   6.184  0.00  0.00    +0.135 C 
ATOM      8  C   UNL     1      11.181   7.257   4.867  0.00  0.00    +0.171 C 
ATOM     12  C   UNL     1       8.897   7.453   6.561  0.00  0.00    +0.242 C 
ATOM     14  C   UNL     1       8.944   7.882   5.109  0.00  0.00    +0.256 C 
ENDROOT
BRANCH   8  13
ATOM     13  C   UNL     1      12.138   6.732   3.817  0.00  0.00    -0.017 A 
ATOM     17  C   UNL     1      13.383   7.334   3.644  0.00  0.00    +0.008 A 
ATOM     18  C   UNL     1      11.773   5.645   3.022  0.00  0.00    +0.008 A 
ATOM     19  C   UNL     1      14.264   6.850   2.677  0.00  0.00    +0.023 A 
ATOM     20  C   UNL     1      12.654   5.160   2.055  0.00  0.00    +0.023 A 
ATOM     21  C   UNL     1      13.900   5.763   1.883  0.00  0.00    +0.033 A 
BRANCH  21   6
ATOM      4  O   UNL     1      15.339   3.134   1.704  0.00  0.00    -0.275 OA
ATOM      6  N   UNL     1      14.781   5.280   0.916  0.00  0.00    -0.285 N 
ATOM     22  C   UNL     1      15.424   4.032   0.873  0.00  0.00    +0.217 C 
ATOM     27  H   UNL     1      14.974   5.919   0.148  0.00  0.00    +0.155 HD
BRANCH  22  23
ATOM     23  C   UNL     1      16.307   3.909  -0.364  0.00  0.00    +0.096 C 
BRANCH  23  24
ATOM     24  C   UNL     1      16.396   5.189  -1.191  0.00  0.00    +0.006 C 
ATOM     25  C   UNL     1      16.069   4.959  -2.660  0.00  0.00    +0.004 C 
ENDBRANCH  23  24
ENDBRANCH  22  23
ENDBRANCH  21   6
ENDBRANCH   8  13
BRANCH   5   9
ATOM      9  C   UNL     1      10.073   6.412   8.450  0.00  0.00    +0.111 C 
BRANCH   9  10
ATOM     10  C   UNL     1       9.264   5.126   8.653  0.00  0.00    +0.000 C 
ATOM     15  C   UNL     1       9.169   4.796  10.142  0.00  0.00    +0.009 C 
ATOM     16  C   UNL     1       9.878   3.947   7.894  0.00  0.00    +0.009 C 
ENDBRANCH   9  10
ENDBRANCH   5   9
BRANCH   7  11
ATOM     11  C   UNL     1      12.548   6.577   6.883  0.00  0.00    +0.181 C 
BRANCH  11   2
ATOM      2  O   UNL     1      12.828   7.949   7.073  0.00  0.00    -0.393 OA
ATOM     26  H   UNL     1      12.411   8.433   6.340  0.00  0.00    +0.209 HD
ENDBRANCH  11   2
ENDBRANCH   7  11
TORSDOF 8
ENDMDL
