REMARK  Name = 7143845
REMARK  7 active torsions:
REMARK  status: ('A' for Active; 'I' for Inactive)
REMARK    1  A    between atoms: S_1  and  N_7
REMARK    2  A    between atoms: S_1  and  C_21
REMARK    3  A    between atoms: S_2  and  C_32
REMARK    4  A    between atoms: S_2  and  C_35
REMARK    5  A    between atoms: N_9  and  C_29
REMARK    6  A    between atoms: C_19  and  C_22
REMARK    7  A    between atoms: C_33  and  C_34
REMARK                            x       y       z     vdW  Elec       q    Type
REMARK                         _______ _______ _______ _____ _____    ______ ____
ROOT
ATOM      5  O   UNL     1      -3.544   1.148  -1.526  0.00  0.00    -0.267 OA
ATOM      7  N   UNL     1       1.255   0.090  -0.690  0.00  0.00    -0.176 NA
ATOM      8  N   UNL     1      -1.593   1.395  -0.273  0.00  0.00    -0.311 N 
ATOM     10  C   UNL     1       0.546   2.420  -1.239  0.00  0.00    +0.025 C 
ATOM     11  C   UNL     1       0.507   1.653   1.094  0.00  0.00    +0.052 C 
ATOM     12  C   UNL     1       0.822   2.847   0.197  0.00  0.00    +0.017 C 
ATOM     13  C   UNL     1       1.440   1.232  -1.630  0.00  0.00    +0.114 C 
ATOM     14  C   UNL     1       1.442   0.483   0.739  0.00  0.00    +0.119 C 
ATOM     15  C   UNL     1      -0.947   2.104  -1.387  0.00  0.00    +0.130 C 
ATOM     16  C   UNL     1      -0.943   1.231   0.952  0.00  0.00    +0.026 A 
ATOM     17  C   UNL     1      -1.594   0.684   1.992  0.00  0.00    +0.022 A 
ATOM     18  C   UNL     1      -2.927   0.988  -0.472  0.00  0.00    +0.259 A 
ATOM     19  C   UNL     1      -3.619   0.345   0.701  0.00  0.00    +0.047 A 
ATOM     20  C   UNL     1      -2.950   0.231   1.857  0.00  0.00    +0.015 A 
ENDROOT
BRANCH  19  22
ATOM     22  C   UNL     1      -4.998  -0.159   0.590  0.00  0.00    -0.013 A 
ATOM     27  C   UNL     1      -6.074   0.678   0.889  0.00  0.00    +0.010 A 
ATOM     28  C   UNL     1      -5.231  -1.474   0.188  0.00  0.00    +0.010 A 
ATOM     30  C   UNL     1      -7.380   0.201   0.785  0.00  0.00    +0.015 A 
ATOM     31  C   UNL     1      -6.538  -1.952   0.084  0.00  0.00    +0.015 A 
ATOM     32  C   UNL     1      -7.612  -1.114   0.382  0.00  0.00    +0.008 A 
BRANCH  32   2
ATOM      2  S   UNL     1      -9.281  -1.725   0.251  0.00  0.00    -0.129 S 
ATOM     35  C   UNL     1      -9.989  -0.601  -0.986  0.00  0.00    +0.090 C 
ENDBRANCH  32   2
ENDBRANCH  19  22
BRANCH   7   1
ATOM      1  S   UNL     1       1.995  -1.381  -1.156  0.00  0.00    +0.061 S 
ATOM      3  O   UNL     1       1.869  -1.541  -2.589  0.00  0.00    -0.153 OA
ATOM      4  O   UNL     1       1.574  -2.428  -0.249  0.00  0.00    -0.153 OA
BRANCH   1  21
ATOM     21  C   UNL     1       3.683  -1.003  -0.802  0.00  0.00    +0.106 A 
ATOM     23  C   UNL     1       4.191  -1.284   0.456  0.00  0.00    +0.030 A 
ATOM     24  C   UNL     1       4.471  -0.433  -1.788  0.00  0.00    +0.030 A 
ATOM     25  C   UNL     1       5.525  -0.986   0.735  0.00  0.00    +0.025 A 
ATOM     26  C   UNL     1       5.804  -0.135  -1.509  0.00  0.00    +0.025 A 
ATOM     29  C   UNL     1       6.331  -0.412  -0.247  0.00  0.00    +0.033 A 
BRANCH  29   9
ATOM      6  O   UNL     1       7.936  -0.806   2.269  0.00  0.00    -0.276 OA
ATOM      9  N   UNL     1       7.665  -0.115   0.032  0.00  0.00    -0.286 N 
ATOM     33  C   UNL     1       8.366  -0.319   1.229  0.00  0.00    +0.214 C 
ATOM     34  C   UNL     1       9.799   0.139   1.123  0.00  0.00    +0.109 C 
ATOM     36  H   UNL     1       8.187   0.303  -0.736  0.00  0.00    +0.155 HD
ENDBRANCH  29   9
ENDBRANCH   1  21
ENDBRANCH   7   1
TORSDOF 5
