REMARK  Name = 51137512
REMARK  7 active torsions:
REMARK  status: ('A' for Active; 'I' for Inactive)
REMARK    1  A    between atoms: O_2  and  C_28
REMARK    2  A    between atoms: O_2  and  C_29
REMARK    3  A    between atoms: N_3  and  C_11
REMARK    4  A    between atoms: N_4  and  C_20
REMARK    5  A    between atoms: C_7  and  C_12
REMARK    6  A    between atoms: C_11  and  C_13
REMARK    7  A    between atoms: C_18  and  C_23
REMARK                            x       y       z     vdW  Elec       q    Type
REMARK                         _______ _______ _______ _____ _____    ______ ____
ROOT
ATOM      3  N   UNL     1      -1.761  -0.460   0.053  0.00  0.00    -0.297 NA
ATOM      7  C   UNL     1       0.053  -1.841   0.601  0.00  0.00    +0.092 C 
ATOM      8  C   UNL     1      -0.618  -1.124  -0.578  0.00  0.00    +0.097 C 
ATOM      9  C   UNL     1      -0.375  -1.037   1.841  0.00  0.00    +0.029 C 
ATOM     10  C   UNL     1      -1.233   0.098   1.298  0.00  0.00    +0.085 C 
ENDROOT
BRANCH   7  12
ATOM      1  O   UNL     1       2.270  -0.847   0.299  0.00  0.00    -0.420 OA
ATOM      5  N   UNL     1       2.276  -3.082   0.376  0.00  0.00    -0.112 NA
ATOM      6  N   UNL     1       3.580  -2.657   0.203  0.00  0.00    -0.107 NA
ATOM     12  C   UNL     1       1.546  -1.992   0.426  0.00  0.00    +0.222 A 
ATOM     18  C   UNL     1       3.528  -1.346   0.164  0.00  0.00    +0.248 A 
BRANCH  18  23
ATOM     23  C   UNL     1       4.574  -0.378   0.004  0.00  0.00    +0.039 A 
ATOM     24  C   UNL     1       5.897  -0.797  -0.141  0.00  0.00    +0.017 A 
ATOM     25  C   UNL     1       4.268   0.983  -0.007  0.00  0.00    +0.017 A 
ATOM     26  C   UNL     1       6.914   0.145  -0.296  0.00  0.00    +0.046 A 
ATOM     27  C   UNL     1       5.285   1.925  -0.163  0.00  0.00    +0.046 A 
ATOM     28  C   UNL     1       6.608   1.506  -0.307  0.00  0.00    +0.120 A 
BRANCH  28   2
ATOM      2  O   UNL     1       7.600   2.425  -0.462  0.00  0.00    -0.495 OA
ATOM     29  C   UNL     1       8.929   1.927  -0.608  0.00  0.00    +0.277 C 
ENDBRANCH  28   2
ENDBRANCH  18  23
ENDBRANCH   7  12
BRANCH   3  11
ATOM     11  C   UNL     1      -2.354   0.558  -0.802  0.00  0.00    +0.121 C 
BRANCH  11  13
ATOM      4  N   UNL     1      -5.455   2.019   0.533  0.00  0.00    -0.349 N 
ATOM     13  C   UNL     1      -3.747   0.920  -0.361  0.00  0.00    -0.008 A 
ATOM     14  C   UNL     1      -4.927   0.152  -0.568  0.00  0.00    +0.004 A 
ATOM     15  C   UNL     1      -4.104   2.062   0.319  0.00  0.00    +0.091 A 
ATOM     16  C   UNL     1      -5.984   0.864   0.003  0.00  0.00    +0.049 A 
ATOM     17  C   UNL     1      -5.198  -1.084  -1.187  0.00  0.00    +0.010 A 
ATOM     19  C   UNL     1      -7.304   0.400  -0.015  0.00  0.00    +0.026 A 
ATOM     20  C   UNL     1      -6.204   3.049   1.221  0.00  0.00    +0.149 C 
ATOM     21  C   UNL     1      -6.514  -1.561  -1.213  0.00  0.00    +0.001 A 
ATOM     22  C   UNL     1      -7.549  -0.828  -0.635  0.00  0.00    +0.002 A 
ENDBRANCH  11  13
ENDBRANCH   3  11
TORSDOF 5
