MODEL 1
REMARK VINA RESULT:      -6.8      0.000      0.000
REMARK  Name = 28960189
REMARK  11 active torsions:
REMARK  status: ('A' for Active; 'I' for Inactive)
REMARK    1  A    between atoms: O_2  and  C_23
REMARK    2  A    between atoms: N_6  and  C_17
REMARK    3  A    between atoms: N_6  and  C_24
REMARK    4  A    between atoms: N_6  and  C_25
REMARK    5  A    between atoms: N_7  and  C_26
REMARK    6  A    between atoms: C_8  and  C_13
REMARK    7  A    between atoms: C_9  and  C_15
REMARK    8  A    between atoms: C_13  and  C_17
REMARK    9  A    between atoms: C_14  and  C_16
REMARK   10  A    between atoms: C_15  and  C_23
REMARK   11  A    between atoms: C_24  and  C_26
REMARK                            x       y       z     vdW  Elec       q    Type
REMARK                         _______ _______ _______ _____ _____    ______ ____
ROOT
ATOM      1  O   UNL     1      -1.558  -9.890  12.309  0.00  0.00    -0.275 OA
ATOM      5  N   UNL     1      -2.770 -11.292  13.708  0.00  0.00    -0.301 N 
ATOM      8  C   UNL     1      -4.614 -11.706  15.322  0.00  0.00    +0.012 C 
ATOM      9  C   UNL     1      -3.565 -11.706  16.464  0.00  0.00    +0.006 C 
ATOM     10  C   UNL     1      -3.946 -12.123  14.000  0.00  0.00    +0.111 C 
ATOM     11  C   UNL     1      -2.330 -10.866  16.097  0.00  0.00    +0.023 C 
ATOM     12  C   UNL     1      -1.746 -11.296  14.753  0.00  0.00    +0.108 C 
ATOM     16  C   UNL     1      -2.567 -10.560  12.540  0.00  0.00    +0.219 C 
ENDROOT
BRANCH  16  14
ATOM     14  C   UNL     1      -3.664 -10.605  11.521  0.00  0.00    +0.075 C 
ATOM     18  C   UNL     1      -3.682  -9.304  10.717  0.00  0.00    +0.013 C 
ATOM     19  C   UNL     1      -3.460 -11.821  10.615  0.00  0.00    +0.013 C 
ATOM     20  C   UNL     1      -4.718  -9.351   9.599  0.00  0.00    +0.001 C 
ATOM     21  C   UNL     1      -4.495 -11.865   9.494  0.00  0.00    +0.001 C 
ATOM     22  C   UNL     1      -4.515 -10.564   8.694  0.00  0.00    +0.000 C 
ENDBRANCH  16  14
BRANCH   8  13
ATOM     13  C   UNL     1      -5.349 -10.371  15.151  0.00  0.00    +0.024 C 
BRANCH  13  17
ATOM     17  C   UNL     1      -6.820 -10.558  14.817  0.00  0.00    +0.105 C 
BRANCH  17   6
ATOM      6  N   UNL     1      -7.650 -10.237  15.953  0.00  0.00    -0.329 N 
BRANCH   6  25
ATOM     25  C   UNL     1      -7.660 -11.042  17.102  0.00  0.00    +0.030 A 
ATOM     29  C   UNL     1      -7.821 -12.423  16.985  0.00  0.00    +0.023 A 
ATOM     30  C   UNL     1      -7.510 -10.461  18.360  0.00  0.00    +0.023 A 
ATOM     33  C   UNL     1      -7.830 -13.223  18.128  0.00  0.00    +0.002 A 
ATOM     34  C   UNL     1      -7.520 -11.261  19.504  0.00  0.00    +0.002 A 
ATOM     35  C   UNL     1      -7.680 -12.642  19.387  0.00  0.00    +0.000 A 
ENDBRANCH   6  25
BRANCH   6  24
ATOM     24  C   UNL     1      -8.502  -9.048  15.887  0.00  0.00    +0.120 C 
BRANCH  24  26
ATOM     26  C   UNL     1      -9.599  -9.261  14.852  0.00  0.00    +0.103 C 
BRANCH  26   7
ATOM      4  O   UNL     1     -12.467  -6.450  16.071  0.00  0.00    -0.377 OA
ATOM      7  N   UNL     1     -10.520  -8.126  14.847  0.00  0.00    -0.297 NA
ATOM     27  C   UNL     1     -10.151  -7.151  15.882  0.00  0.00    +0.112 C 
ATOM     28  C   UNL     1     -11.903  -8.576  15.049  0.00  0.00    +0.112 C 
ATOM     31  C   UNL     1     -11.133  -5.982  15.865  0.00  0.00    +0.175 C 
ATOM     32  C   UNL     1     -12.844  -7.375  15.051  0.00  0.00    +0.175 C 
ENDBRANCH  26   7
ENDBRANCH  24  26
ENDBRANCH   6  24
ENDBRANCH  17   6
ENDBRANCH  13  17
ENDBRANCH   8  13
BRANCH   9  15
ATOM     15  C   UNL     1      -4.140 -11.258  17.808  0.00  0.00    +0.124 C 
BRANCH  15  23
ATOM      3  O   UNL     1      -3.420 -12.106  19.976  0.00  0.00    -0.251 OA
ATOM     23  C   UNL     1      -3.920 -12.292  18.878  0.00  0.00    +0.305 C 
BRANCH  23   2
ATOM      2  O   UNL     1      -4.365 -13.500  18.445  0.00  0.00    -0.481 OA
ATOM     36  H   UNL     1      -5.344 -13.553  18.454  0.00  0.00    +0.295 HD
ENDBRANCH  23   2
ENDBRANCH  15  23
ENDBRANCH   9  15
TORSDOF 11
ENDMDL
MODEL 2
REMARK VINA RESULT:      -6.3      2.139      3.655
REMARK  Name = 28960189
REMARK  11 active torsions:
REMARK  status: ('A' for Active; 'I' for Inactive)
REMARK    1  A    between atoms: O_2  and  C_23
REMARK    2  A    between atoms: N_6  and  C_17
REMARK    3  A    between atoms: N_6  and  C_24
REMARK    4  A    between atoms: N_6  and  C_25
REMARK    5  A    between atoms: N_7  and  C_26
REMARK    6  A    between atoms: C_8  and  C_13
REMARK    7  A    between atoms: C_9  and  C_15
REMARK    8  A    between atoms: C_13  and  C_17
REMARK    9  A    between atoms: C_14  and  C_16
REMARK   10  A    between atoms: C_15  and  C_23
REMARK   11  A    between atoms: C_24  and  C_26
REMARK                            x       y       z     vdW  Elec       q    Type
REMARK                         _______ _______ _______ _____ _____    ______ ____
ROOT
ATOM      1  O   UNL     1      -1.509 -10.063  12.355  0.00  0.00    -0.275 OA
ATOM      5  N   UNL     1      -2.864 -11.250  13.821  0.00  0.00    -0.301 N 
ATOM      8  C   UNL     1      -4.784 -11.390  15.393  0.00  0.00    +0.012 C 
ATOM      9  C   UNL     1      -3.774 -11.365  16.570  0.00  0.00    +0.006 C 
ATOM     10  C   UNL     1      -4.107 -11.967  14.137  0.00  0.00    +0.111 C 
ATOM     11  C   UNL     1      -2.469 -10.649  16.179  0.00  0.00    +0.023 C 
ATOM     12  C   UNL     1      -1.877 -11.235  14.900  0.00  0.00    +0.108 C 
ATOM     16  C   UNL     1      -2.571 -10.638  12.604  0.00  0.00    +0.219 C 
ENDROOT
BRANCH  16  14
ATOM     14  C   UNL     1      -3.636 -10.694  11.551  0.00  0.00    +0.075 C 
ATOM     18  C   UNL     1      -3.609  -9.413  10.715  0.00  0.00    +0.013 C 
ATOM     19  C   UNL     1      -3.421 -11.935  10.683  0.00  0.00    +0.013 C 
ATOM     20  C   UNL     1      -4.611  -9.475   9.565  0.00  0.00    +0.001 C 
ATOM     21  C   UNL     1      -4.420 -11.993   9.530  0.00  0.00    +0.001 C 
ATOM     22  C   UNL     1      -4.396 -10.713   8.698  0.00  0.00    +0.000 C 
ENDBRANCH  16  14
BRANCH   8  13
ATOM     13  C   UNL     1      -5.412 -10.027  15.082  0.00  0.00    +0.024 C 
BRANCH  13  17
ATOM     17  C   UNL     1      -6.829  -9.905  15.622  0.00  0.00    +0.105 C 
BRANCH  17   6
ATOM      6  N   UNL     1      -7.732 -10.762  14.892  0.00  0.00    -0.329 N 
BRANCH   6  25
ATOM     25  C   UNL     1      -7.736 -10.798  13.490  0.00  0.00    +0.030 A 
ATOM     29  C   UNL     1      -7.568 -12.011  12.823  0.00  0.00    +0.023 A 
ATOM     30  C   UNL     1      -7.907  -9.620  12.764  0.00  0.00    +0.023 A 
ATOM     33  C   UNL     1      -7.572 -12.046  11.428  0.00  0.00    +0.002 A 
ATOM     34  C   UNL     1      -7.911  -9.655  11.369  0.00  0.00    +0.002 A 
ATOM     35  C   UNL     1      -7.743 -10.869  10.701  0.00  0.00    +0.000 A 
ENDBRANCH   6  25
BRANCH   6  24
ATOM     24  C   UNL     1      -8.666 -11.600  15.647  0.00  0.00    +0.120 C 
BRANCH  24  26
ATOM     26  C   UNL     1      -9.825 -10.750  16.151  0.00  0.00    +0.103 C 
BRANCH  26   7
ATOM      4  O   UNL     1      -9.674 -10.729  20.346  0.00  0.00    -0.377 OA
ATOM      7  N   UNL     1     -10.109 -11.057  17.552  0.00  0.00    -0.297 NA
ATOM     27  C   UNL     1     -10.570  -9.858  18.265  0.00  0.00    +0.112 C 
ATOM     28  C   UNL     1      -8.921 -11.611  18.215  0.00  0.00    +0.112 C 
ATOM     31  C   UNL     1     -10.848 -10.200  19.727  0.00  0.00    +0.175 C 
ATOM     32  C   UNL     1      -9.238 -11.912  19.677  0.00  0.00    +0.175 C 
ENDBRANCH  26   7
ENDBRANCH  24  26
ENDBRANCH   6  24
ENDBRANCH  17   6
ENDBRANCH  13  17
ENDBRANCH   8  13
BRANCH   9  15
ATOM     15  C   UNL     1      -4.357 -10.763  17.848  0.00  0.00    +0.124 C 
BRANCH  15  23
ATOM      3  O   UNL     1      -5.679 -11.819  19.602  0.00  0.00    -0.251 OA
ATOM     23  C   UNL     1      -4.718 -11.827  18.848  0.00  0.00    +0.305 C 
BRANCH  23   2
ATOM      2  O   UNL     1      -3.805 -12.830  18.798  0.00  0.00    -0.481 OA
ATOM     36  H   UNL     1      -3.531 -13.119  19.694  0.00  0.00    +0.295 HD
ENDBRANCH  23   2
ENDBRANCH  15  23
ENDBRANCH   9  15
TORSDOF 11
ENDMDL
MODEL 3
REMARK VINA RESULT:      -6.2      1.424      2.748
REMARK  Name = 28960189
REMARK  11 active torsions:
REMARK  status: ('A' for Active; 'I' for Inactive)
REMARK    1  A    between atoms: O_2  and  C_23
REMARK    2  A    between atoms: N_6  and  C_17
REMARK    3  A    between atoms: N_6  and  C_24
REMARK    4  A    between atoms: N_6  and  C_25
REMARK    5  A    between atoms: N_7  and  C_26
REMARK    6  A    between atoms: C_8  and  C_13
REMARK    7  A    between atoms: C_9  and  C_15
REMARK    8  A    between atoms: C_13  and  C_17
REMARK    9  A    between atoms: C_14  and  C_16
REMARK   10  A    between atoms: C_15  and  C_23
REMARK   11  A    between atoms: C_24  and  C_26
REMARK                            x       y       z     vdW  Elec       q    Type
REMARK                         _______ _______ _______ _____ _____    ______ ____
ROOT
ATOM      1  O   UNL     1      -1.544  -9.924  12.332  0.00  0.00    -0.275 OA
ATOM      5  N   UNL     1      -2.784 -11.251  13.779  0.00  0.00    -0.301 N 
ATOM      8  C   UNL     1      -4.649 -11.576  15.390  0.00  0.00    +0.012 C 
ATOM      9  C   UNL     1      -3.612 -11.535  16.542  0.00  0.00    +0.006 C 
ATOM     10  C   UNL     1      -3.971 -12.058  14.094  0.00  0.00    +0.111 C 
ATOM     11  C   UNL     1      -2.365 -10.723  16.151  0.00  0.00    +0.023 C 
ATOM     12  C   UNL     1      -1.771 -11.219  14.834  0.00  0.00    +0.108 C 
ATOM     16  C   UNL     1      -2.562 -10.573  12.582  0.00  0.00    +0.219 C 
ENDROOT
BRANCH  16  14
ATOM     14  C   UNL     1      -3.649 -10.653  11.554  0.00  0.00    +0.075 C 
ATOM     18  C   UNL     1      -3.786  -9.310  10.835  0.00  0.00    +0.013 C 
ATOM     19  C   UNL     1      -3.333 -11.785  10.574  0.00  0.00    +0.013 C 
ATOM     20  C   UNL     1      -4.812  -9.380   9.708  0.00  0.00    +0.001 C 
ATOM     21  C   UNL     1      -4.357 -11.851   9.444  0.00  0.00    +0.001 C 
ATOM     22  C   UNL     1      -4.496 -10.509   8.729  0.00  0.00    +0.000 C 
ENDBRANCH  16  14
BRANCH   8  13
ATOM     13  C   UNL     1      -5.369 -10.243  15.152  0.00  0.00    +0.024 C 
BRANCH  13  17
ATOM     17  C   UNL     1      -6.816 -10.274  15.618  0.00  0.00    +0.105 C 
BRANCH  17   6
ATOM      6  N   UNL     1      -7.719 -10.231  14.493  0.00  0.00    -0.329 N 
BRANCH   6  25
ATOM     25  C   UNL     1      -7.640 -11.170  13.454  0.00  0.00    +0.030 A 
ATOM     29  C   UNL     1      -7.426 -10.744  12.143  0.00  0.00    +0.023 A 
ATOM     30  C   UNL     1      -7.775 -12.530  13.732  0.00  0.00    +0.023 A 
ATOM     33  C   UNL     1      -7.346 -11.678  11.110  0.00  0.00    +0.002 A 
ATOM     34  C   UNL     1      -7.695 -13.465  12.699  0.00  0.00    +0.002 A 
ATOM     35  C   UNL     1      -7.482 -13.038  11.388  0.00  0.00    +0.000 A 
ENDBRANCH   6  25
BRANCH   6  24
ATOM     24  C   UNL     1      -8.730  -9.172  14.445  0.00  0.00    +0.120 C 
BRANCH  24  26
ATOM     26  C   UNL     1      -9.989  -9.633  15.167  0.00  0.00    +0.103 C 
BRANCH  26   7
ATOM      4  O   UNL     1     -11.734  -5.821  14.995  0.00  0.00    -0.377 OA
ATOM      7  N   UNL     1     -10.868  -8.497  15.431  0.00  0.00    -0.297 NA
ATOM     27  C   UNL     1     -11.608  -8.117  14.220  0.00  0.00    +0.112 C 
ATOM     28  C   UNL     1     -10.101  -7.349  15.933  0.00  0.00    +0.112 C 
ATOM     31  C   UNL     1     -12.510  -6.921  14.518  0.00  0.00    +0.175 C 
ATOM     32  C   UNL     1     -11.037  -6.172  16.190  0.00  0.00    +0.175 C 
ENDBRANCH  26   7
ENDBRANCH  24  26
ENDBRANCH   6  24
ENDBRANCH  17   6
ENDBRANCH  13  17
ENDBRANCH   8  13
BRANCH   9  15
ATOM     15  C   UNL     1      -4.196 -11.023  17.858  0.00  0.00    +0.124 C 
BRANCH  15  23
ATOM      3  O   UNL     1      -3.348 -12.168  19.835  0.00  0.00    -0.251 OA
ATOM     23  C   UNL     1      -4.162 -12.079  18.929  0.00  0.00    +0.305 C 
BRANCH  23   2
ATOM      2  O   UNL     1      -5.188 -12.949  18.747  0.00  0.00    -0.481 OA
ATOM     36  H   UNL     1      -5.475 -13.357  19.591  0.00  0.00    +0.295 HD
ENDBRANCH  23   2
ENDBRANCH  15  23
ENDBRANCH   9  15
TORSDOF 11
ENDMDL
MODEL 4
REMARK VINA RESULT:      -6.2      2.513      7.142
REMARK  Name = 28960189
REMARK  11 active torsions:
REMARK  status: ('A' for Active; 'I' for Inactive)
REMARK    1  A    between atoms: O_2  and  C_23
REMARK    2  A    between atoms: N_6  and  C_17
REMARK    3  A    between atoms: N_6  and  C_24
REMARK    4  A    between atoms: N_6  and  C_25
REMARK    5  A    between atoms: N_7  and  C_26
REMARK    6  A    between atoms: C_8  and  C_13
REMARK    7  A    between atoms: C_9  and  C_15
REMARK    8  A    between atoms: C_13  and  C_17
REMARK    9  A    between atoms: C_14  and  C_16
REMARK   10  A    between atoms: C_15  and  C_23
REMARK   11  A    between atoms: C_24  and  C_26
REMARK                            x       y       z     vdW  Elec       q    Type
REMARK                         _______ _______ _______ _____ _____    ______ ____
ROOT
ATOM      1  O   UNL     1      -8.105 -11.482  19.920  0.00  0.00    -0.275 OA
ATOM      5  N   UNL     1      -6.822 -10.487  18.260  0.00  0.00    -0.301 N 
ATOM      8  C   UNL     1      -5.701 -10.534  16.042  0.00  0.00    +0.012 C 
ATOM      9  C   UNL     1      -4.347 -10.735  16.771  0.00  0.00    +0.006 C 
ATOM     10  C   UNL     1      -6.689  -9.801  16.967  0.00  0.00    +0.111 C 
ATOM     11  C   UNL     1      -4.538 -11.409  18.141  0.00  0.00    +0.023 C 
ATOM     12  C   UNL     1      -5.565 -10.663  18.989  0.00  0.00    +0.108 C 
ATOM     16  C   UNL     1      -8.018 -10.931  18.820  0.00  0.00    +0.219 C 
ENDROOT
BRANCH  16  14
ATOM     14  C   UNL     1      -9.259 -10.716  18.010  0.00  0.00    +0.075 C 
ATOM     18  C   UNL     1     -10.028 -12.032  17.875  0.00  0.00    +0.013 C 
ATOM     19  C   UNL     1     -10.113  -9.633  18.673  0.00  0.00    +0.013 C 
ATOM     20  C   UNL     1     -11.352 -11.834  17.143  0.00  0.00    +0.001 C 
ATOM     21  C   UNL     1     -11.440  -9.440  17.943  0.00  0.00    +0.001 C 
ATOM     22  C   UNL     1     -12.204 -10.754  17.806  0.00  0.00    +0.000 C 
ENDBRANCH  16  14
BRANCH   8  13
ATOM     13  C   UNL     1      -6.325 -11.833  15.518  0.00  0.00    +0.024 C 
BRANCH  13  17
ATOM     17  C   UNL     1      -6.319 -11.907  13.999  0.00  0.00    +0.105 C 
BRANCH  17   6
ATOM      6  N   UNL     1      -7.043 -10.797  13.427  0.00  0.00    -0.329 N 
BRANCH   6  25
ATOM     25  C   UNL     1      -8.417 -10.625  13.653  0.00  0.00    +0.030 A 
ATOM     29  C   UNL     1      -9.308 -11.652  13.342  0.00  0.00    +0.023 A 
ATOM     30  C   UNL     1      -8.890  -9.428  14.186  0.00  0.00    +0.023 A 
ATOM     33  C   UNL     1     -10.674 -11.481  13.567  0.00  0.00    +0.002 A 
ATOM     34  C   UNL     1     -10.257  -9.257  14.411  0.00  0.00    +0.002 A 
ATOM     35  C   UNL     1     -11.149 -10.284  14.100  0.00  0.00    +0.000 A 
ENDBRANCH   6  25
BRANCH   6  24
ATOM     24  C   UNL     1      -6.315  -9.842  12.589  0.00  0.00    +0.120 C 
BRANCH  24  26
ATOM     26  C   UNL     1      -4.841 -10.223  12.540  0.00  0.00    +0.103 C 
BRANCH  26   7
ATOM      4  O   UNL     1      -4.724  -9.867   8.360  0.00  0.00    -0.377 OA
ATOM      7  N   UNL     1      -4.350 -10.177  11.164  0.00  0.00    -0.297 NA
ATOM     27  C   UNL     1      -4.602  -8.860  10.564  0.00  0.00    +0.112 C 
ATOM     28  C   UNL     1      -4.976 -11.229  10.351  0.00  0.00    +0.112 C 
ATOM     31  C   UNL     1      -4.092  -8.839   9.126  0.00  0.00    +0.175 C 
ATOM     32  C   UNL     1      -4.456 -11.153   8.918  0.00  0.00    +0.175 C 
ENDBRANCH  26   7
ENDBRANCH  24  26
ENDBRANCH   6  24
ENDBRANCH  17   6
ENDBRANCH  13  17
ENDBRANCH   8  13
BRANCH   9  15
ATOM     15  C   UNL     1      -3.321 -11.497  15.934  0.00  0.00    +0.124 C 
BRANCH  15  23
ATOM      3  O   UNL     1      -1.694 -10.012  14.892  0.00  0.00    -0.251 OA
ATOM     23  C   UNL     1      -2.028 -10.738  15.816  0.00  0.00    +0.305 C 
BRANCH  23   2
ATOM      2  O   UNL     1      -1.256 -10.976  16.907  0.00  0.00    -0.481 OA
ATOM     36  H   UNL     1      -0.413 -11.416  16.670  0.00  0.00    +0.295 HD
ENDBRANCH  23   2
ENDBRANCH  15  23
ENDBRANCH   9  15
TORSDOF 11
ENDMDL
MODEL 5
REMARK VINA RESULT:      -6.1      2.686      7.215
REMARK  Name = 28960189
REMARK  11 active torsions:
REMARK  status: ('A' for Active; 'I' for Inactive)
REMARK    1  A    between atoms: O_2  and  C_23
REMARK    2  A    between atoms: N_6  and  C_17
REMARK    3  A    between atoms: N_6  and  C_24
REMARK    4  A    between atoms: N_6  and  C_25
REMARK    5  A    between atoms: N_7  and  C_26
REMARK    6  A    between atoms: C_8  and  C_13
REMARK    7  A    between atoms: C_9  and  C_15
REMARK    8  A    between atoms: C_13  and  C_17
REMARK    9  A    between atoms: C_14  and  C_16
REMARK   10  A    between atoms: C_15  and  C_23
REMARK   11  A    between atoms: C_24  and  C_26
REMARK                            x       y       z     vdW  Elec       q    Type
REMARK                         _______ _______ _______ _____ _____    ______ ____
ROOT
ATOM      1  O   UNL     1      -8.180 -11.310  19.552  0.00  0.00    -0.275 OA
ATOM      5  N   UNL     1      -6.731 -10.245  18.082  0.00  0.00    -0.301 N 
ATOM      8  C   UNL     1      -5.513 -10.125  15.919  0.00  0.00    +0.012 C 
ATOM      9  C   UNL     1      -4.220 -10.545  16.666  0.00  0.00    +0.006 C 
ATOM     10  C   UNL     1      -6.473  -9.420  16.894  0.00  0.00    +0.111 C 
ATOM     11  C   UNL     1      -4.539 -11.363  17.930  0.00  0.00    +0.023 C 
ATOM     12  C   UNL     1      -5.533 -10.632  18.828  0.00  0.00    +0.108 C 
ATOM     16  C   UNL     1      -7.989 -10.638  18.536  0.00  0.00    +0.219 C 
ENDROOT
BRANCH  16  14
ATOM     14  C   UNL     1      -9.164 -10.205  17.715  0.00  0.00    +0.075 C 
ATOM     18  C   UNL     1      -9.612 -11.348  16.802  0.00  0.00    +0.013 C 
ATOM     19  C   UNL     1     -10.292  -9.755  18.646  0.00  0.00    +0.013 C 
ATOM     20  C   UNL     1     -10.872 -10.981  16.023  0.00  0.00    +0.001 C 
ATOM     21  C   UNL     1     -11.553  -9.394  17.866  0.00  0.00    +0.001 C 
ATOM     22  C   UNL     1     -11.998 -10.534  16.953  0.00  0.00    +0.000 C 
ENDBRANCH  16  14
BRANCH   8  13
ATOM     13  C   UNL     1      -6.226 -11.282  15.210  0.00  0.00    +0.024 C 
BRANCH  13  17
ATOM     17  C   UNL     1      -7.025 -10.817  14.003  0.00  0.00    +0.105 C 
BRANCH  17   6
ATOM      6  N   UNL     1      -6.148 -10.424  12.925  0.00  0.00    -0.329 N 
BRANCH   6  25
ATOM     25  C   UNL     1      -5.088 -11.244  12.508  0.00  0.00    +0.030 A 
ATOM     29  C   UNL     1      -3.815 -10.702  12.331  0.00  0.00    +0.023 A 
ATOM     30  C   UNL     1      -5.309 -12.600  12.271  0.00  0.00    +0.023 A 
ATOM     33  C   UNL     1      -2.762 -11.517  11.917  0.00  0.00    +0.002 A 
ATOM     34  C   UNL     1      -4.255 -13.416  11.857  0.00  0.00    +0.002 A 
ATOM     35  C   UNL     1      -2.982 -12.874  11.680  0.00  0.00    +0.000 A 
ENDBRANCH   6  25
BRANCH   6  24
ATOM     24  C   UNL     1      -6.377  -9.135  12.269  0.00  0.00    +0.120 C 
BRANCH  24  26
ATOM     26  C   UNL     1      -7.407  -9.301  11.160  0.00  0.00    +0.103 C 
BRANCH  26   7
ATOM      4  O   UNL     1      -5.921  -9.589   7.245  0.00  0.00    -0.377 OA
ATOM      7  N   UNL     1      -6.773  -9.823   9.951  0.00  0.00    -0.297 NA
ATOM     27  C   UNL     1      -5.606  -9.009   9.581  0.00  0.00    +0.112 C 
ATOM     28  C   UNL     1      -7.730  -9.867   8.837  0.00  0.00    +0.112 C 
ATOM     31  C   UNL     1      -4.969  -9.566   8.311  0.00  0.00    +0.175 C 
ATOM     32  C   UNL     1      -7.042 -10.404   7.585  0.00  0.00    +0.175 C 
ENDBRANCH  26   7
ENDBRANCH  24  26
ENDBRANCH   6  24
ENDBRANCH  17   6
ENDBRANCH  13  17
ENDBRANCH   8  13
BRANCH   9  15
ATOM     15  C   UNL     1      -3.229 -11.293  15.776  0.00  0.00    +0.124 C 
BRANCH  15  23
ATOM      3  O   UNL     1      -1.476  -9.859  14.874  0.00  0.00    -0.251 OA
ATOM     23  C   UNL     1      -1.888 -10.611  15.744  0.00  0.00    +0.305 C 
BRANCH  23   2
ATOM      2  O   UNL     1      -1.174 -10.954  16.846  0.00  0.00    -0.481 OA
ATOM     36  H   UNL     1      -1.407 -11.850  17.169  0.00  0.00    +0.295 HD
ENDBRANCH  23   2
ENDBRANCH  15  23
ENDBRANCH   9  15
TORSDOF 11
ENDMDL
MODEL 6
REMARK VINA RESULT:      -6.1      2.202      6.540
REMARK  Name = 28960189
REMARK  11 active torsions:
REMARK  status: ('A' for Active; 'I' for Inactive)
REMARK    1  A    between atoms: O_2  and  C_23
REMARK    2  A    between atoms: N_6  and  C_17
REMARK    3  A    between atoms: N_6  and  C_24
REMARK    4  A    between atoms: N_6  and  C_25
REMARK    5  A    between atoms: N_7  and  C_26
REMARK    6  A    between atoms: C_8  and  C_13
REMARK    7  A    between atoms: C_9  and  C_15
REMARK    8  A    between atoms: C_13  and  C_17
REMARK    9  A    between atoms: C_14  and  C_16
REMARK   10  A    between atoms: C_15  and  C_23
REMARK   11  A    between atoms: C_24  and  C_26
REMARK                            x       y       z     vdW  Elec       q    Type
REMARK                         _______ _______ _______ _____ _____    ______ ____
ROOT
ATOM      1  O   UNL     1      -7.894 -11.439  19.774  0.00  0.00    -0.275 OA
ATOM      5  N   UNL     1      -6.653 -10.362  18.133  0.00  0.00    -0.301 N 
ATOM      8  C   UNL     1      -5.613 -10.287  15.877  0.00  0.00    +0.012 C 
ATOM      9  C   UNL     1      -4.237 -10.552  16.543  0.00  0.00    +0.006 C 
ATOM     10  C   UNL     1      -6.555  -9.599  16.881  0.00  0.00    +0.111 C 
ATOM     11  C   UNL     1      -4.391 -11.307  17.875  0.00  0.00    +0.023 C 
ATOM     12  C   UNL     1      -5.375 -10.600  18.803  0.00  0.00    +0.108 C 
ATOM     16  C   UNL     1      -7.836 -10.823  18.707  0.00  0.00    +0.219 C 
ENDROOT
BRANCH  16  14
ATOM     14  C   UNL     1      -9.101 -10.541  17.957  0.00  0.00    +0.075 C 
ATOM     18  C   UNL     1      -9.607 -11.821  17.289  0.00  0.00    +0.013 C 
ATOM     19  C   UNL     1     -10.141  -9.963  18.921  0.00  0.00    +0.013 C 
ATOM     20  C   UNL     1     -10.950 -11.599  16.600  0.00  0.00    +0.001 C 
ATOM     21  C   UNL     1     -11.485  -9.746  18.231  0.00  0.00    +0.001 C 
ATOM     22  C   UNL     1     -11.987 -11.023  17.561  0.00  0.00    +0.000 C 
ENDBRANCH  16  14
BRANCH   8  13
ATOM     13  C   UNL     1      -6.275 -11.543  15.297  0.00  0.00    +0.024 C 
BRANCH  13  17
ATOM     17  C   UNL     1      -5.926 -11.758  13.833  0.00  0.00    +0.105 C 
BRANCH  17   6
ATOM      6  N   UNL     1      -6.142 -10.551  13.070  0.00  0.00    -0.329 N 
BRANCH   6  25
ATOM     25  C   UNL     1      -5.184 -10.079  12.161  0.00  0.00    +0.030 A 
ATOM     29  C   UNL     1      -5.514  -9.064  11.263  0.00  0.00    +0.023 A 
ATOM     30  C   UNL     1      -3.901 -10.626  12.155  0.00  0.00    +0.023 A 
ATOM     33  C   UNL     1      -4.561  -8.595  10.360  0.00  0.00    +0.002 A 
ATOM     34  C   UNL     1      -2.947 -10.156  11.250  0.00  0.00    +0.002 A 
ATOM     35  C   UNL     1      -3.278  -9.141  10.353  0.00  0.00    +0.000 A 
ENDBRANCH   6  25
BRANCH   6  24
ATOM     24  C   UNL     1      -7.389  -9.810  13.268  0.00  0.00    +0.120 C 
BRANCH  24  26
ATOM     26  C   UNL     1      -8.573 -10.688  12.883  0.00  0.00    +0.103 C 
BRANCH  26   7
ATOM      4  O   UNL     1     -11.616  -7.931  13.751  0.00  0.00    -0.377 OA
ATOM      7  N   UNL     1      -9.819 -10.107  13.378  0.00  0.00    -0.297 NA
ATOM     27  C   UNL     1     -10.625  -9.578  12.270  0.00  0.00    +0.112 C 
ATOM     28  C   UNL     1      -9.546  -9.043  14.354  0.00  0.00    +0.112 C 
ATOM     31  C   UNL     1     -11.914  -8.966  12.812  0.00  0.00    +0.175 C 
ATOM     32  C   UNL     1     -10.860  -8.444  14.848  0.00  0.00    +0.175 C 
ENDBRANCH  26   7
ENDBRANCH  24  26
ENDBRANCH   6  24
ENDBRANCH  17   6
ENDBRANCH  13  17
ENDBRANCH   8  13
BRANCH   9  15
ATOM     15  C   UNL     1      -3.254 -11.275  15.624  0.00  0.00    +0.124 C 
BRANCH  15  23
ATOM      3  O   UNL     1      -1.478  -9.852  14.753  0.00  0.00    -0.251 OA
ATOM     23  C   UNL     1      -1.908 -10.604  15.614  0.00  0.00    +0.305 C 
BRANCH  23   2
ATOM      2  O   UNL     1      -1.212 -10.958  16.724  0.00  0.00    -0.481 OA
ATOM     36  H   UNL     1      -1.567 -11.776  17.133  0.00  0.00    +0.295 HD
ENDBRANCH  23   2
ENDBRANCH  15  23
ENDBRANCH   9  15
TORSDOF 11
ENDMDL
MODEL 7
REMARK VINA RESULT:      -6.1      2.078      7.116
REMARK  Name = 28960189
REMARK  11 active torsions:
REMARK  status: ('A' for Active; 'I' for Inactive)
REMARK    1  A    between atoms: O_2  and  C_23
REMARK    2  A    between atoms: N_6  and  C_17
REMARK    3  A    between atoms: N_6  and  C_24
REMARK    4  A    between atoms: N_6  and  C_25
REMARK    5  A    between atoms: N_7  and  C_26
REMARK    6  A    between atoms: C_8  and  C_13
REMARK    7  A    between atoms: C_9  and  C_15
REMARK    8  A    between atoms: C_13  and  C_17
REMARK    9  A    between atoms: C_14  and  C_16
REMARK   10  A    between atoms: C_15  and  C_23
REMARK   11  A    between atoms: C_24  and  C_26
REMARK                            x       y       z     vdW  Elec       q    Type
REMARK                         _______ _______ _______ _____ _____    ______ ____
ROOT
ATOM      1  O   UNL     1     -10.884 -11.117  17.693  0.00  0.00    -0.275 OA
ATOM      5  N   UNL     1      -8.683 -10.563  18.187  0.00  0.00    -0.301 N 
ATOM      8  C   UNL     1      -6.266 -10.492  17.612  0.00  0.00    +0.012 C 
ATOM      9  C   UNL     1      -6.038 -11.678  18.585  0.00  0.00    +0.006 C 
ATOM     10  C   UNL     1      -7.508  -9.693  18.046  0.00  0.00    +0.111 C 
ATOM     11  C   UNL     1      -7.308 -12.532  18.743  0.00  0.00    +0.023 C 
ATOM     12  C   UNL     1      -8.511 -11.673  19.124  0.00  0.00    +0.108 C 
ATOM     16  C   UNL     1      -9.903 -10.386  17.537  0.00  0.00    +0.219 C 
ENDROOT
BRANCH  16  14
ATOM     14  C   UNL     1      -9.998  -9.228  16.592  0.00  0.00    +0.075 C 
ATOM     18  C   UNL     1     -10.784  -9.636  15.345  0.00  0.00    +0.013 C 
ATOM     19  C   UNL     1     -10.654  -8.045  17.307  0.00  0.00    +0.013 C 
ATOM     20  C   UNL     1     -10.992  -8.454  14.403  0.00  0.00    +0.001 C 
ATOM     21  C   UNL     1     -10.867  -6.865  16.362  0.00  0.00    +0.001 C 
ATOM     22  C   UNL     1     -11.648  -7.274  15.116  0.00  0.00    +0.000 C 
ENDBRANCH  16  14
BRANCH   8  13
ATOM     13  C   UNL     1      -6.386 -10.909  16.141  0.00  0.00    +0.024 C 
BRANCH  13  17
ATOM     17  C   UNL     1      -5.634  -9.971  15.210  0.00  0.00    +0.105 C 
BRANCH  17   6
ATOM      6  N   UNL     1      -5.304 -10.633  13.970  0.00  0.00    -0.329 N 
BRANCH   6  25
ATOM     25  C   UNL     1      -4.069 -11.272  13.788  0.00  0.00    +0.030 A 
ATOM     29  C   UNL     1      -3.835 -12.022  12.635  0.00  0.00    +0.023 A 
ATOM     30  C   UNL     1      -3.076 -11.158  14.760  0.00  0.00    +0.023 A 
ATOM     33  C   UNL     1      -2.607 -12.657  12.454  0.00  0.00    +0.002 A 
ATOM     34  C   UNL     1      -1.847 -11.794  14.578  0.00  0.00    +0.002 A 
ATOM     35  C   UNL     1      -1.613 -12.543  13.426  0.00  0.00    +0.000 A 
ENDBRANCH   6  25
BRANCH   6  24
ATOM     24  C   UNL     1      -6.288 -10.620  12.886  0.00  0.00    +0.120 C 
BRANCH  24  26
ATOM     26  C   UNL     1      -6.427  -9.206  12.338  0.00  0.00    +0.103 C 
BRANCH  26   7
ATOM      4  O   UNL     1      -4.578 -10.114   8.681  0.00  0.00    -0.377 OA
ATOM      7  N   UNL     1      -6.051  -9.169  10.926  0.00  0.00    -0.297 NA
ATOM     27  C   UNL     1      -6.391 -10.435  10.262  0.00  0.00    +0.112 C 
ATOM     28  C   UNL     1      -4.616  -8.892  10.776  0.00  0.00    +0.112 C 
ATOM     31  C   UNL     1      -5.978 -10.376   8.793  0.00  0.00    +0.175 C 
ATOM     32  C   UNL     1      -4.244  -8.870   9.297  0.00  0.00    +0.175 C 
ENDBRANCH  26   7
ENDBRANCH  24  26
ENDBRANCH   6  24
ENDBRANCH  17   6
ENDBRANCH  13  17
ENDBRANCH   8  13
BRANCH   9  15
ATOM     15  C   UNL     1      -4.845 -12.552  18.198  0.00  0.00    +0.124 C 
BRANCH  15  23
ATOM      3  O   UNL     1      -3.367 -12.310  20.121  0.00  0.00    -0.251 OA
ATOM     23  C   UNL     1      -3.597 -12.144  18.933  0.00  0.00    +0.305 C 
BRANCH  23   2
ATOM      2  O   UNL     1      -2.733 -11.548  18.071  0.00  0.00    -0.481 OA
ATOM     36  H   UNL     1      -3.071 -10.683  17.756  0.00  0.00    +0.295 HD
ENDBRANCH  23   2
ENDBRANCH  15  23
ENDBRANCH   9  15
TORSDOF 11
ENDMDL
MODEL 8
REMARK VINA RESULT:      -6.0      2.238      8.051
REMARK  Name = 28960189
REMARK  11 active torsions:
REMARK  status: ('A' for Active; 'I' for Inactive)
REMARK    1  A    between atoms: O_2  and  C_23
REMARK    2  A    between atoms: N_6  and  C_17
REMARK    3  A    between atoms: N_6  and  C_24
REMARK    4  A    between atoms: N_6  and  C_25
REMARK    5  A    between atoms: N_7  and  C_26
REMARK    6  A    between atoms: C_8  and  C_13
REMARK    7  A    between atoms: C_9  and  C_15
REMARK    8  A    between atoms: C_13  and  C_17
REMARK    9  A    between atoms: C_14  and  C_16
REMARK   10  A    between atoms: C_15  and  C_23
REMARK   11  A    between atoms: C_24  and  C_26
REMARK                            x       y       z     vdW  Elec       q    Type
REMARK                         _______ _______ _______ _____ _____    ______ ____
ROOT
ATOM      1  O   UNL     1     -10.926 -10.655  17.913  0.00  0.00    -0.275 OA
ATOM      5  N   UNL     1      -8.659 -10.249  18.210  0.00  0.00    -0.301 N 
ATOM      8  C   UNL     1      -6.283 -10.521  17.533  0.00  0.00    +0.012 C 
ATOM      9  C   UNL     1      -6.108 -11.538  18.691  0.00  0.00    +0.006 C 
ATOM     10  C   UNL     1      -7.419  -9.538  17.869  0.00  0.00    +0.111 C 
ATOM     11  C   UNL     1      -7.440 -12.221  19.049  0.00  0.00    +0.023 C 
ATOM     12  C   UNL     1      -8.535 -11.193  19.321  0.00  0.00    +0.108 C 
ATOM     16  C   UNL     1      -9.893 -10.065  17.589  0.00  0.00    +0.219 C 
ENDROOT
BRANCH  16  14
ATOM     14  C   UNL     1      -9.935  -9.083  16.459  0.00  0.00    +0.075 C 
ATOM     18  C   UNL     1     -10.888  -9.583  15.371  0.00  0.00    +0.013 C 
ATOM     19  C   UNL     1     -10.364  -7.715  16.994  0.00  0.00    +0.013 C 
ATOM     20  C   UNL     1     -11.039  -8.562  14.247  0.00  0.00    +0.001 C 
ATOM     21  C   UNL     1     -10.520  -6.696  15.869  0.00  0.00    +0.001 C 
ATOM     22  C   UNL     1     -11.467  -7.197  14.781  0.00  0.00    +0.000 C 
ENDBRANCH  16  14
BRANCH   8  13
ATOM     13  C   UNL     1      -6.526 -11.171  16.166  0.00  0.00    +0.024 C 
BRANCH  13  17
ATOM     17  C   UNL     1      -5.846 -10.414  15.036  0.00  0.00    +0.105 C 
BRANCH  17   6
ATOM      6  N   UNL     1      -4.833 -11.228  14.408  0.00  0.00    -0.329 N 
BRANCH   6  25
ATOM     25  C   UNL     1      -4.108 -10.768  13.298  0.00  0.00    +0.030 A 
ATOM     29  C   UNL     1      -4.783 -10.294  12.172  0.00  0.00    +0.023 A 
ATOM     30  C   UNL     1      -2.715 -10.785  13.321  0.00  0.00    +0.023 A 
ATOM     33  C   UNL     1      -4.062  -9.837  11.069  0.00  0.00    +0.002 A 
ATOM     34  C   UNL     1      -1.993 -10.328  12.217  0.00  0.00    +0.002 A 
ATOM     35  C   UNL     1      -2.667  -9.854  11.092  0.00  0.00    +0.000 A 
ENDBRANCH   6  25
BRANCH   6  24
ATOM     24  C   UNL     1      -4.573 -12.564  14.947  0.00  0.00    +0.120 C 
BRANCH  24  26
ATOM     26  C   UNL     1      -4.909 -13.615  13.897  0.00  0.00    +0.103 C 
BRANCH  26   7
ATOM      4  O   UNL     1      -2.079 -16.299  15.445  0.00  0.00    -0.377 OA
ATOM      7  N   UNL     1      -4.119 -14.824  14.117  0.00  0.00    -0.297 NA
ATOM     27  C   UNL     1      -4.301 -15.324  15.487  0.00  0.00    +0.112 C 
ATOM     28  C   UNL     1      -2.695 -14.571  13.859  0.00  0.00    +0.112 C 
ATOM     31  C   UNL     1      -3.457 -16.579  15.696  0.00  0.00    +0.175 C 
ATOM     32  C   UNL     1      -1.890 -15.843  14.106  0.00  0.00    +0.175 C 
ENDBRANCH  26   7
ENDBRANCH  24  26
ENDBRANCH   6  24
ENDBRANCH  17   6
ENDBRANCH  13  17
ENDBRANCH   8  13
BRANCH   9  15
ATOM     15  C   UNL     1      -5.025 -12.581  18.416  0.00  0.00    +0.124 C 
BRANCH  15  23
ATOM      3  O   UNL     1      -3.272 -12.243  20.075  0.00  0.00    -0.251 OA
ATOM     23  C   UNL     1      -3.683 -12.136  18.930  0.00  0.00    +0.305 C 
BRANCH  23   2
ATOM      2  O   UNL     1      -2.967 -11.581  17.919  0.00  0.00    -0.481 OA
ATOM     36  H   UNL     1      -3.524 -11.012  17.347  0.00  0.00    +0.295 HD
ENDBRANCH  23   2
ENDBRANCH  15  23
ENDBRANCH   9  15
TORSDOF 11
ENDMDL
MODEL 9
REMARK VINA RESULT:      -6.0      1.778      3.614
REMARK  Name = 28960189
REMARK  11 active torsions:
REMARK  status: ('A' for Active; 'I' for Inactive)
REMARK    1  A    between atoms: O_2  and  C_23
REMARK    2  A    between atoms: N_6  and  C_17
REMARK    3  A    between atoms: N_6  and  C_24
REMARK    4  A    between atoms: N_6  and  C_25
REMARK    5  A    between atoms: N_7  and  C_26
REMARK    6  A    between atoms: C_8  and  C_13
REMARK    7  A    between atoms: C_9  and  C_15
REMARK    8  A    between atoms: C_13  and  C_17
REMARK    9  A    between atoms: C_14  and  C_16
REMARK   10  A    between atoms: C_15  and  C_23
REMARK   11  A    between atoms: C_24  and  C_26
REMARK                            x       y       z     vdW  Elec       q    Type
REMARK                         _______ _______ _______ _____ _____    ______ ____
ROOT
ATOM      1  O   UNL     1      -1.820  -9.770  12.345  0.00  0.00    -0.275 OA
ATOM      5  N   UNL     1      -2.952 -11.230  13.752  0.00  0.00    -0.301 N 
ATOM      8  C   UNL     1      -4.742 -11.726  15.403  0.00  0.00    +0.012 C 
ATOM      9  C   UNL     1      -3.665 -11.709  16.520  0.00  0.00    +0.006 C 
ATOM     10  C   UNL     1      -4.094 -12.102  14.059  0.00  0.00    +0.111 C 
ATOM     11  C   UNL     1      -2.466 -10.826  16.135  0.00  0.00    +0.023 C 
ATOM     12  C   UNL     1      -1.903 -11.217  14.771  0.00  0.00    +0.108 C 
ATOM     16  C   UNL     1      -2.802 -10.474  12.591  0.00  0.00    +0.219 C 
ENDROOT
BRANCH  16  14
ATOM     14  C   UNL     1      -3.921 -10.539  11.598  0.00  0.00    +0.075 C 
ATOM     18  C   UNL     1      -4.859  -9.346  11.792  0.00  0.00    +0.013 C 
ATOM     19  C   UNL     1      -3.340 -10.571  10.183  0.00  0.00    +0.013 C 
ATOM     20  C   UNL     1      -5.956  -9.318  10.732  0.00  0.00    +0.001 C 
ATOM     21  C   UNL     1      -4.439 -10.539   9.124  0.00  0.00    +0.001 C 
ATOM     22  C   UNL     1      -5.376  -9.350   9.320  0.00  0.00    +0.000 C 
ENDBRANCH  16  14
BRANCH   8  13
ATOM     13  C   UNL     1      -5.521 -10.412  15.271  0.00  0.00    +0.024 C 
BRANCH  13  17
ATOM     17  C   UNL     1      -6.900 -10.615  14.662  0.00  0.00    +0.105 C 
BRANCH  17   6
ATOM      6  N   UNL     1      -7.914 -10.660  15.689  0.00  0.00    -0.329 N 
BRANCH   6  25
ATOM     25  C   UNL     1      -8.781  -9.580  15.910  0.00  0.00    +0.030 A 
ATOM     29  C   UNL     1      -8.822  -8.963  17.160  0.00  0.00    +0.023 A 
ATOM     30  C   UNL     1      -9.602  -9.125  14.879  0.00  0.00    +0.023 A 
ATOM     33  C   UNL     1      -9.684  -7.889  17.379  0.00  0.00    +0.002 A 
ATOM     34  C   UNL     1     -10.465  -8.050  15.098  0.00  0.00    +0.002 A 
ATOM     35  C   UNL     1     -10.506  -7.433  16.348  0.00  0.00    +0.000 A 
ENDBRANCH   6  25
BRANCH   6  24
ATOM     24  C   UNL     1      -8.021 -11.865  16.515  0.00  0.00    +0.120 C 
BRANCH  24  26
ATOM     26  C   UNL     1      -9.426 -12.440  16.403  0.00  0.00    +0.103 C 
BRANCH  26   7
ATOM      4  O   UNL     1     -10.513 -12.092  20.442  0.00  0.00    -0.377 OA
ATOM      7  N   UNL     1      -9.956 -12.750  17.729  0.00  0.00    -0.297 NA
ATOM     27  C   UNL     1     -11.039 -11.824  18.088  0.00  0.00    +0.112 C 
ATOM     28  C   UNL     1      -8.893 -12.697  18.741  0.00  0.00    +0.112 C 
ATOM     31  C   UNL     1     -11.568 -12.160  19.480  0.00  0.00    +0.175 C 
ATOM     32  C   UNL     1      -9.471 -13.013  20.117  0.00  0.00    +0.175 C 
ENDBRANCH  26   7
ENDBRANCH  24  26
ENDBRANCH   6  24
ENDBRANCH  17   6
ENDBRANCH  13  17
ENDBRANCH   8  13
BRANCH   9  15
ATOM     15  C   UNL     1      -4.220 -11.300  17.883  0.00  0.00    +0.124 C 
BRANCH  15  23
ATOM      3  O   UNL     1      -3.381 -12.143  20.011  0.00  0.00    -0.251 OA
ATOM     23  C   UNL     1      -3.926 -12.335  18.935  0.00  0.00    +0.305 C 
BRANCH  23   2
ATOM      2  O   UNL     1      -4.362 -13.550  18.515  0.00  0.00    -0.481 OA
ATOM     36  H   UNL     1      -3.966 -14.280  19.037  0.00  0.00    +0.295 HD
ENDBRANCH  23   2
ENDBRANCH  15  23
ENDBRANCH   9  15
TORSDOF 11
ENDMDL
MODEL 10
REMARK VINA RESULT:      -5.9      2.652      4.986
REMARK  Name = 28960189
REMARK  11 active torsions:
REMARK  status: ('A' for Active; 'I' for Inactive)
REMARK    1  A    between atoms: O_2  and  C_23
REMARK    2  A    between atoms: N_6  and  C_17
REMARK    3  A    between atoms: N_6  and  C_24
REMARK    4  A    between atoms: N_6  and  C_25
REMARK    5  A    between atoms: N_7  and  C_26
REMARK    6  A    between atoms: C_8  and  C_13
REMARK    7  A    between atoms: C_9  and  C_15
REMARK    8  A    between atoms: C_13  and  C_17
REMARK    9  A    between atoms: C_14  and  C_16
REMARK   10  A    between atoms: C_15  and  C_23
REMARK   11  A    between atoms: C_24  and  C_26
REMARK                            x       y       z     vdW  Elec       q    Type
REMARK                         _______ _______ _______ _____ _____    ______ ____
ROOT
ATOM      1  O   UNL     1      -2.201 -10.768  16.708  0.00  0.00    -0.275 OA
ATOM      5  N   UNL     1      -4.250 -11.771  17.141  0.00  0.00    -0.301 N 
ATOM      8  C   UNL     1      -6.732 -11.816  17.007  0.00  0.00    +0.012 C 
ATOM      9  C   UNL     1      -6.783 -11.394  18.499  0.00  0.00    +0.006 C 
ATOM     10  C   UNL     1      -5.415 -12.561  16.720  0.00  0.00    +0.111 C 
ATOM     11  C   UNL     1      -5.521 -10.614  18.909  0.00  0.00    +0.023 C 
ATOM     12  C   UNL     1      -4.252 -11.384  18.552  0.00  0.00    +0.108 C 
ATOM     16  C   UNL     1      -3.181 -11.410  16.324  0.00  0.00    +0.219 C 
ENDROOT
BRANCH  16  14
ATOM     14  C   UNL     1      -3.255 -11.841  14.891  0.00  0.00    +0.075 C 
ATOM     18  C   UNL     1      -3.816 -10.706  14.034  0.00  0.00    +0.013 C 
ATOM     19  C   UNL     1      -1.863 -12.265  14.419  0.00  0.00    +0.013 C 
ATOM     20  C   UNL     1      -3.812 -11.068  12.552  0.00  0.00    +0.001 C 
ATOM     21  C   UNL     1      -1.859 -12.623  12.935  0.00  0.00    +0.001 C 
ATOM     22  C   UNL     1      -2.423 -11.490  12.080  0.00  0.00    +0.000 C 
ENDBRANCH  16  14
BRANCH   8  13
ATOM     13  C   UNL     1      -6.912 -10.653  16.025  0.00  0.00    +0.024 C 
BRANCH  13  17
ATOM     17  C   UNL     1      -7.735 -11.045  14.808  0.00  0.00    +0.105 C 
BRANCH  17   6
ATOM      6  N   UNL     1      -8.743 -10.050  14.527  0.00  0.00    -0.329 N 
BRANCH   6  25
ATOM     25  C   UNL     1      -9.613  -9.588  15.526  0.00  0.00    +0.030 A 
ATOM     29  C   UNL     1     -10.521 -10.464  16.121  0.00  0.00    +0.023 A 
ATOM     30  C   UNL     1      -9.569  -8.252  15.923  0.00  0.00    +0.023 A 
ATOM     33  C   UNL     1     -11.385 -10.003  17.114  0.00  0.00    +0.002 A 
ATOM     34  C   UNL     1     -10.434  -7.791  16.917  0.00  0.00    +0.002 A 
ATOM     35  C   UNL     1     -11.342  -8.667  17.512  0.00  0.00    +0.000 A 
ENDBRANCH   6  25
BRANCH   6  24
ATOM     24  C   UNL     1      -8.854  -9.530  13.163  0.00  0.00    +0.120 C 
BRANCH  24  26
ATOM     26  C   UNL     1      -7.463  -9.348  12.570  0.00  0.00    +0.103 C 
BRANCH  26   7
ATOM      4  O   UNL     1      -6.441 -10.516   8.670  0.00  0.00    -0.377 OA
ATOM      7  N   UNL     1      -7.501  -9.528  11.120  0.00  0.00    -0.297 NA
ATOM     27  C   UNL     1      -7.571 -10.954  10.773  0.00  0.00    +0.112 C 
ATOM     28  C   UNL     1      -6.327  -8.913  10.487  0.00  0.00    +0.112 C 
ATOM     31  C   UNL     1      -7.598 -11.117   9.255  0.00  0.00    +0.175 C 
ATOM     32  C   UNL     1      -6.383  -9.123   8.977  0.00  0.00    +0.175 C 
ENDBRANCH  26   7
ENDBRANCH  24  26
ENDBRANCH   6  24
ENDBRANCH  17   6
ENDBRANCH  13  17
ENDBRANCH   8  13
BRANCH   9  15
ATOM     15  C   UNL     1      -8.043 -10.608  18.858  0.00  0.00    +0.124 C 
BRANCH  15  23
ATOM      3  O   UNL     1      -9.033 -12.626  19.800  0.00  0.00    -0.251 OA
ATOM     23  C   UNL     1      -8.965 -11.408  19.737  0.00  0.00    +0.305 C 
BRANCH  23   2
ATOM      2  O   UNL     1      -9.736 -10.569  20.475  0.00  0.00    -0.481 OA
ATOM     36  H   UNL     1     -10.049 -10.993  21.302  0.00  0.00    +0.295 HD
ENDBRANCH  23   2
ENDBRANCH  15  23
ENDBRANCH   9  15
TORSDOF 11
ENDMDL
