MODEL 1
REMARK VINA RESULT:      -6.4      0.000      0.000
REMARK  Name = 26745538
REMARK  5 active torsions:
REMARK  status: ('A' for Active; 'I' for Inactive)
REMARK    1  A    between atoms: O_2  and  C_13
REMARK    2  A    between atoms: O_2  and  C_20
REMARK    3  A    between atoms: N_6  and  C_16
REMARK    4  A    between atoms: C_8  and  C_13
REMARK    5  A    between atoms: C_14  and  C_17
REMARK                            x       y       z     vdW  Elec       q    Type
REMARK                         _______ _______ _______ _____ _____    ______ ____
ROOT
ATOM      3  O   UNL     1      13.795   6.210  20.837  0.00  0.00    -0.270 OA
ATOM      5  N   UNL     1      14.056   8.261  19.728  0.00  0.00    -0.278 N 
ATOM      6  N   UNL     1      14.930  11.776  18.773  0.00  0.00    -0.336 N 
ATOM      7  N   UNL     1      12.837  12.245  19.398  0.00  0.00    -0.240 NA
ATOM      8  C   UNL     1      12.590   8.470  19.604  0.00  0.00    +0.191 C 
ATOM      9  C   UNL     1      12.112   9.890  19.975  0.00  0.00    +0.091 C 
ATOM     10  C   UNL     1      14.979   9.251  19.101  0.00  0.00    +0.164 C 
ATOM     11  C   UNL     1      14.359  10.589  19.130  0.00  0.00    +0.059 A 
ATOM     12  C   UNL     1      13.077  10.904  19.504  0.00  0.00    +0.066 A 
ATOM     14  C   UNL     1      14.506   7.062  20.307  0.00  0.00    +0.248 C 
ATOM     15  C   UNL     1      13.974  12.743  18.953  0.00  0.00    +0.199 A 
ATOM     16  C   UNL     1      16.273  11.990  18.294  0.00  0.00    +0.150 C 
ENDROOT
BRANCH  14  17
ATOM      1  F   UNL     1      19.999   5.981  20.213  0.00  0.00    -0.205 F 
ATOM     17  C   UNL     1      15.948   6.778  20.282  0.00  0.00    +0.037 A 
ATOM     18  C   UNL     1      16.761   7.206  21.332  0.00  0.00    +0.016 A 
ATOM     19  C   UNL     1      16.504   6.081  19.209  0.00  0.00    +0.016 A 
ATOM     21  C   UNL     1      18.129   6.937  21.309  0.00  0.00    +0.039 A 
ATOM     22  C   UNL     1      17.872   5.812  19.186  0.00  0.00    +0.039 A 
ATOM     23  C   UNL     1      18.685   6.241  20.235  0.00  0.00    +0.123 A 
ENDBRANCH  14  17
BRANCH   8  13
ATOM      4  O   UNL     1      13.019   7.591  17.401  0.00  0.00    -0.249 OA
ATOM     13  C   UNL     1      12.239   8.106  18.190  0.00  0.00    +0.328 C 
BRANCH  13   2
ATOM      2  O   UNL     1      10.940   8.437  17.943  0.00  0.00    -0.467 OA
ATOM     20  C   UNL     1      10.613   8.662  16.568  0.00  0.00    +0.280 C 
ENDBRANCH  13   2
ENDBRANCH   8  13
TORSDOF 3
ENDMDL
MODEL 2
REMARK VINA RESULT:      -6.3      2.457      3.245
REMARK  Name = 26745538
REMARK  5 active torsions:
REMARK  status: ('A' for Active; 'I' for Inactive)
REMARK    1  A    between atoms: O_2  and  C_13
REMARK    2  A    between atoms: O_2  and  C_20
REMARK    3  A    between atoms: N_6  and  C_16
REMARK    4  A    between atoms: C_8  and  C_13
REMARK    5  A    between atoms: C_14  and  C_17
REMARK                            x       y       z     vdW  Elec       q    Type
REMARK                         _______ _______ _______ _____ _____    ______ ____
ROOT
ATOM      3  O   UNL     1      15.963   5.950  19.360  0.00  0.00    -0.270 OA
ATOM      5  N   UNL     1      14.398   7.502  20.167  0.00  0.00    -0.278 N 
ATOM      6  N   UNL     1      12.173   9.621  22.309  0.00  0.00    -0.336 N 
ATOM      7  N   UNL     1      10.598   8.123  21.794  0.00  0.00    -0.240 NA
ATOM      8  C   UNL     1      13.275   6.877  19.419  0.00  0.00    +0.191 C 
ATOM      9  C   UNL     1      11.987   6.680  20.246  0.00  0.00    +0.091 C 
ATOM     10  C   UNL     1      14.138   8.747  20.945  0.00  0.00    +0.164 C 
ATOM     11  C   UNL     1      12.754   8.732  21.453  0.00  0.00    +0.059 A 
ATOM     12  C   UNL     1      11.767   7.828  21.149  0.00  0.00    +0.066 A 
ATOM     14  C   UNL     1      15.687   6.971  19.989  0.00  0.00    +0.248 C 
ATOM     15  C   UNL     1      10.876   9.211  22.484  0.00  0.00    +0.199 A 
ATOM     16  C   UNL     1      12.787  10.775  22.918  0.00  0.00    +0.150 C 
ENDROOT
BRANCH  14  17
ATOM      1  F   UNL     1      20.006   9.688  22.293  0.00  0.00    -0.205 F 
ATOM     17  C   UNL     1      16.820   7.684  20.594  0.00  0.00    +0.037 A 
ATOM     18  C   UNL     1      17.825   6.970  21.249  0.00  0.00    +0.016 A 
ATOM     19  C   UNL     1      16.893   9.075  20.514  0.00  0.00    +0.016 A 
ATOM     21  C   UNL     1      18.901   7.647  21.823  0.00  0.00    +0.039 A 
ATOM     22  C   UNL     1      17.969   9.752  21.088  0.00  0.00    +0.039 A 
ATOM     23  C   UNL     1      18.973   9.037  21.743  0.00  0.00    +0.123 A 
ENDBRANCH  14  17
BRANCH   8  13
ATOM      4  O   UNL     1      13.825   8.611  17.838  0.00  0.00    -0.249 OA
ATOM     13  C   UNL     1      13.048   7.745  18.215  0.00  0.00    +0.328 C 
BRANCH  13   2
ATOM      2  O   UNL     1      11.862   7.411  17.630  0.00  0.00    -0.467 OA
ATOM     20  C   UNL     1      11.112   8.506  17.094  0.00  0.00    +0.280 C 
ENDBRANCH  13   2
ENDBRANCH   8  13
TORSDOF 3
ENDMDL
MODEL 3
REMARK VINA RESULT:      -6.2      3.489      5.735
REMARK  Name = 26745538
REMARK  5 active torsions:
REMARK  status: ('A' for Active; 'I' for Inactive)
REMARK    1  A    between atoms: O_2  and  C_13
REMARK    2  A    between atoms: O_2  and  C_20
REMARK    3  A    between atoms: N_6  and  C_16
REMARK    4  A    between atoms: C_8  and  C_13
REMARK    5  A    between atoms: C_14  and  C_17
REMARK                            x       y       z     vdW  Elec       q    Type
REMARK                         _______ _______ _______ _____ _____    ______ ____
ROOT
ATOM      3  O   UNL     1      11.677   8.479  22.653  0.00  0.00    -0.270 OA
ATOM      5  N   UNL     1      12.929   8.806  20.695  0.00  0.00    -0.278 N 
ATOM      6  N   UNL     1      14.131   9.797  17.289  0.00  0.00    -0.336 N 
ATOM      7  N   UNL     1      13.536   7.726  16.704  0.00  0.00    -0.240 NA
ATOM      8  C   UNL     1      13.063   7.347  20.444  0.00  0.00    +0.191 C 
ATOM      9  C   UNL     1      12.793   6.922  18.985  0.00  0.00    +0.091 C 
ATOM     10  C   UNL     1      13.626   9.759  19.785  0.00  0.00    +0.164 C 
ATOM     11  C   UNL     1      13.691   9.188  18.427  0.00  0.00    +0.059 A 
ATOM     12  C   UNL     1      13.336   7.919  18.042  0.00  0.00    +0.066 A 
ATOM     14  C   UNL     1      12.268   9.217  21.866  0.00  0.00    +0.248 C 
ATOM     15  C   UNL     1      14.018   8.877  16.279  0.00  0.00    +0.199 A 
ATOM     16  C   UNL     1      14.628  11.145  17.157  0.00  0.00    +0.150 C 
ENDROOT
BRANCH  14  17
ATOM      1  F   UNL     1      12.301  14.667  23.145  0.00  0.00    -0.205 F 
ATOM     17  C   UNL     1      12.277  10.647  22.201  0.00  0.00    +0.037 A 
ATOM     18  C   UNL     1      13.269  11.162  23.036  0.00  0.00    +0.016 A 
ATOM     19  C   UNL     1      11.293  11.492  21.686  0.00  0.00    +0.016 A 
ATOM     21  C   UNL     1      13.278  12.519  23.355  0.00  0.00    +0.039 A 
ATOM     22  C   UNL     1      11.301  12.849  22.005  0.00  0.00    +0.039 A 
ATOM     23  C   UNL     1      12.293  13.363  22.840  0.00  0.00    +0.123 A 
ENDBRANCH  14  17
BRANCH   8  13
ATOM      4  O   UNL     1      14.940   7.328  21.957  0.00  0.00    -0.249 OA
ATOM     13  C   UNL     1      14.448   6.977  20.894  0.00  0.00    +0.328 C 
BRANCH  13   2
ATOM      2  O   UNL     1      15.045   6.204  19.943  0.00  0.00    -0.467 OA
ATOM     20  C   UNL     1      16.413   6.516  19.665  0.00  0.00    +0.280 C 
ENDBRANCH  13   2
ENDBRANCH   8  13
TORSDOF 3
ENDMDL
MODEL 4
REMARK VINA RESULT:      -6.0     26.914     28.342
REMARK  Name = 26745538
REMARK  5 active torsions:
REMARK  status: ('A' for Active; 'I' for Inactive)
REMARK    1  A    between atoms: O_2  and  C_13
REMARK    2  A    between atoms: O_2  and  C_20
REMARK    3  A    between atoms: N_6  and  C_16
REMARK    4  A    between atoms: C_8  and  C_13
REMARK    5  A    between atoms: C_14  and  C_17
REMARK                            x       y       z     vdW  Elec       q    Type
REMARK                         _______ _______ _______ _____ _____    ______ ____
ROOT
ATOM      3  O   UNL     1      -1.414 -10.837  12.019  0.00  0.00    -0.270 OA
ATOM      5  N   UNL     1      -3.402 -10.881  13.264  0.00  0.00    -0.278 N 
ATOM      6  N   UNL     1      -6.586 -10.012  15.036  0.00  0.00    -0.336 N 
ATOM      7  N   UNL     1      -5.304  -9.932  16.863  0.00  0.00    -0.240 NA
ATOM      8  C   UNL     1      -2.714 -11.357  14.493  0.00  0.00    +0.191 C 
ATOM      9  C   UNL     1      -3.119 -10.612  15.782  0.00  0.00    +0.091 C 
ATOM     10  C   UNL     1      -4.886 -10.735  13.282  0.00  0.00    +0.164 C 
ATOM     11  C   UNL     1      -5.328 -10.361  14.639  0.00  0.00    +0.059 A 
ATOM     12  C   UNL     1      -4.564 -10.309  15.777  0.00  0.00    +0.066 A 
ATOM     14  C   UNL     1      -2.637 -10.729  12.095  0.00  0.00    +0.248 C 
ATOM     15  C   UNL     1      -6.519  -9.762  16.383  0.00  0.00    +0.199 A 
ATOM     16  C   UNL     1      -7.768  -9.922  14.213  0.00  0.00    +0.150 C 
ENDROOT
BRANCH  14  17
ATOM      1  F   UNL     1      -5.312  -9.546   7.321  0.00  0.00    -0.205 F 
ATOM     17  C   UNL     1      -3.339 -10.419  10.842  0.00  0.00    +0.037 A 
ATOM     18  C   UNL     1      -3.431  -9.097  10.403  0.00  0.00    +0.016 A 
ATOM     19  C   UNL     1      -3.914 -11.444  10.092  0.00  0.00    +0.016 A 
ATOM     21  C   UNL     1      -4.097  -8.803   9.214  0.00  0.00    +0.039 A 
ATOM     22  C   UNL     1      -4.581 -11.150   8.903  0.00  0.00    +0.039 A 
ATOM     23  C   UNL     1      -4.673  -9.829   8.464  0.00  0.00    +0.123 A 
ENDBRANCH  14  17
BRANCH   8  13
ATOM      4  O   UNL     1      -3.982 -13.310  15.118  0.00  0.00    -0.249 OA
ATOM     13  C   UNL     1      -2.995 -12.831  14.578  0.00  0.00    +0.328 C 
BRANCH  13   2
ATOM      2  O   UNL     1      -1.990 -13.522  13.969  0.00  0.00    -0.467 OA
ATOM     20  C   UNL     1      -2.392 -14.363  12.883  0.00  0.00    +0.280 C 
ENDBRANCH  13   2
ENDBRANCH   8  13
TORSDOF 3
ENDMDL
MODEL 5
REMARK VINA RESULT:      -5.7     26.987     28.894
REMARK  Name = 26745538
REMARK  5 active torsions:
REMARK  status: ('A' for Active; 'I' for Inactive)
REMARK    1  A    between atoms: O_2  and  C_13
REMARK    2  A    between atoms: O_2  and  C_20
REMARK    3  A    between atoms: N_6  and  C_16
REMARK    4  A    between atoms: C_8  and  C_13
REMARK    5  A    between atoms: C_14  and  C_17
REMARK                            x       y       z     vdW  Elec       q    Type
REMARK                         _______ _______ _______ _____ _____    ______ ____
ROOT
ATOM      3  O   UNL     1      -2.097 -10.225  16.267  0.00  0.00    -0.270 OA
ATOM      5  N   UNL     1      -3.088 -12.024  15.132  0.00  0.00    -0.278 N 
ATOM      6  N   UNL     1      -4.469 -15.361  14.141  0.00  0.00    -0.336 N 
ATOM      7  N   UNL     1      -2.511 -15.631  13.101  0.00  0.00    -0.240 NA
ATOM      8  C   UNL     1      -2.089 -11.982  14.032  0.00  0.00    +0.191 C 
ATOM      9  C   UNL     1      -1.525 -13.360  13.629  0.00  0.00    +0.091 C 
ATOM     10  C   UNL     1      -4.219 -12.991  15.040  0.00  0.00    +0.164 C 
ATOM     11  C   UNL     1      -3.776 -14.200  14.320  0.00  0.00    +0.059 A 
ATOM     12  C   UNL     1      -2.583 -14.389  13.670  0.00  0.00    +0.066 A 
ATOM     14  C   UNL     1      -3.003 -11.048  16.140  0.00  0.00    +0.248 C 
ATOM     15  C   UNL     1      -3.666 -16.191  13.402  0.00  0.00    +0.199 A 
ATOM     16  C   UNL     1      -5.793 -15.672  14.624  0.00  0.00    +0.150 C 
ENDROOT
BRANCH  14  17
ATOM      1  F   UNL     1      -7.111 -10.800  19.935  0.00  0.00    -0.205 F 
ATOM     17  C   UNL     1      -4.081 -10.983  17.136  0.00  0.00    +0.037 A 
ATOM     18  C   UNL     1      -5.229 -10.234  16.873  0.00  0.00    +0.016 A 
ATOM     19  C   UNL     1      -3.958 -11.670  18.344  0.00  0.00    +0.016 A 
ATOM     21  C   UNL     1      -6.252 -10.172  17.819  0.00  0.00    +0.039 A 
ATOM     22  C   UNL     1      -4.981 -11.608  19.289  0.00  0.00    +0.039 A 
ATOM     23  C   UNL     1      -6.128 -10.858  19.027  0.00  0.00    +0.123 A 
ENDBRANCH  14  17
BRANCH   8  13
ATOM      4  O   UNL     1      -3.538 -10.349  13.010  0.00  0.00    -0.249 OA
ATOM     13  C   UNL     1      -2.768 -11.290  12.884  0.00  0.00    +0.328 C 
BRANCH  13   2
ATOM      2  O   UNL     1      -2.389 -11.874  11.712  0.00  0.00    -0.467 OA
ATOM     20  C   UNL     1      -3.416 -11.990  10.722  0.00  0.00    +0.280 C 
ENDBRANCH  13   2
ENDBRANCH   8  13
TORSDOF 3
ENDMDL
MODEL 6
REMARK VINA RESULT:      -5.7     13.070     15.327
REMARK  Name = 26745538
REMARK  5 active torsions:
REMARK  status: ('A' for Active; 'I' for Inactive)
REMARK    1  A    between atoms: O_2  and  C_13
REMARK    2  A    between atoms: O_2  and  C_20
REMARK    3  A    between atoms: N_6  and  C_16
REMARK    4  A    between atoms: C_8  and  C_13
REMARK    5  A    between atoms: C_14  and  C_17
REMARK                            x       y       z     vdW  Elec       q    Type
REMARK                         _______ _______ _______ _____ _____    ______ ____
ROOT
ATOM      3  O   UNL     1       8.278   6.197   4.779  0.00  0.00    -0.270 OA
ATOM      5  N   UNL     1      10.594   6.568   4.730  0.00  0.00    -0.278 N 
ATOM      6  N   UNL     1      14.066   7.866   5.269  0.00  0.00    -0.336 N 
ATOM      7  N   UNL     1      13.730   8.964   3.353  0.00  0.00    -0.240 NA
ATOM      8  C   UNL     1      10.600   6.830   3.266  0.00  0.00    +0.191 C 
ATOM      9  C   UNL     1      11.419   8.067   2.842  0.00  0.00    +0.091 C 
ATOM     10  C   UNL     1      11.893   6.552   5.462  0.00  0.00    +0.164 C 
ATOM     11  C   UNL     1      12.830   7.497   4.826  0.00  0.00    +0.059 A 
ATOM     12  C   UNL     1      12.650   8.180   3.649  0.00  0.00    +0.066 A 
ATOM     14  C   UNL     1       9.377   6.204   5.331  0.00  0.00    +0.248 C 
ATOM     15  C   UNL     1      14.567   8.751   4.349  0.00  0.00    +0.199 A 
ATOM     16  C   UNL     1      14.734   7.420   6.468  0.00  0.00    +0.150 C 
ENDROOT
BRANCH  14  17
ATOM      1  F   UNL     1       9.453   4.607  10.696  0.00  0.00    -0.205 F 
ATOM     17  C   UNL     1       9.397   5.785   6.739  0.00  0.00    +0.037 A 
ATOM     18  C   UNL     1       9.069   6.696   7.743  0.00  0.00    +0.016 A 
ATOM     19  C   UNL     1       9.745   4.475   7.073  0.00  0.00    +0.016 A 
ATOM     21  C   UNL     1       9.088   6.299   9.079  0.00  0.00    +0.039 A 
ATOM     22  C   UNL     1       9.764   4.078   8.410  0.00  0.00    +0.039 A 
ATOM     23  C   UNL     1       9.436   4.990   9.413  0.00  0.00    +0.123 A 
ENDBRANCH  14  17
BRANCH   8  13
ATOM      4  O   UNL     1      11.071   4.469   3.155  0.00  0.00    -0.249 OA
ATOM     13  C   UNL     1      11.104   5.569   2.624  0.00  0.00    +0.328 C 
BRANCH  13   2
ATOM      2  O   UNL     1      11.588   5.854   1.381  0.00  0.00    -0.467 OA
ATOM     20  C   UNL     1      11.722   4.733   0.502  0.00  0.00    +0.280 C 
ENDBRANCH  13   2
ENDBRANCH   8  13
TORSDOF 3
ENDMDL
MODEL 7
REMARK VINA RESULT:      -5.6     25.823     27.420
REMARK  Name = 26745538
REMARK  5 active torsions:
REMARK  status: ('A' for Active; 'I' for Inactive)
REMARK    1  A    between atoms: O_2  and  C_13
REMARK    2  A    between atoms: O_2  and  C_20
REMARK    3  A    between atoms: N_6  and  C_16
REMARK    4  A    between atoms: C_8  and  C_13
REMARK    5  A    between atoms: C_14  and  C_17
REMARK                            x       y       z     vdW  Elec       q    Type
REMARK                         _______ _______ _______ _____ _____    ______ ____
ROOT
ATOM      3  O   UNL     1      -9.745   9.112  19.340  0.00  0.00    -0.270 OA
ATOM      5  N   UNL     1     -11.397   9.040  17.676  0.00  0.00    -0.278 N 
ATOM      6  N   UNL     1     -13.974   7.976  15.175  0.00  0.00    -0.336 N 
ATOM      7  N   UNL     1     -12.320   8.187  13.690  0.00  0.00    -0.240 NA
ATOM      8  C   UNL     1     -10.519   9.689  16.666  0.00  0.00    +0.191 C 
ATOM      9  C   UNL     1     -10.531   9.012  15.279  0.00  0.00    +0.091 C 
ATOM     10  C   UNL     1     -12.810   8.735  17.309  0.00  0.00    +0.164 C 
ATOM     11  C   UNL     1     -12.890   8.427  15.869  0.00  0.00    +0.059 A 
ATOM     12  C   UNL     1     -11.892   8.553  14.936  0.00  0.00    +0.066 A 
ATOM     14  C   UNL     1     -10.897   8.877  18.979  0.00  0.00    +0.248 C 
ATOM     15  C   UNL     1     -13.580   7.846  13.867  0.00  0.00    +0.199 A 
ATOM     16  C   UNL     1     -15.288   7.689  15.697  0.00  0.00    +0.150 C 
ENDROOT
BRANCH  14  17
ATOM      1  F   UNL     1     -14.394   7.021  22.938  0.00  0.00    -0.205 F 
ATOM     17  C   UNL     1     -11.815   8.390  20.018  0.00  0.00    +0.037 A 
ATOM     18  C   UNL     1     -11.916   7.022  20.274  0.00  0.00    +0.016 A 
ATOM     19  C   UNL     1     -12.586   9.295  20.749  0.00  0.00    +0.016 A 
ATOM     21  C   UNL     1     -12.787   6.560  21.260  0.00  0.00    +0.039 A 
ATOM     22  C   UNL     1     -13.457   8.832  21.735  0.00  0.00    +0.039 A 
ATOM     23  C   UNL     1     -13.558   7.464  21.990  0.00  0.00    +0.123 A 
ENDBRANCH  14  17
BRANCH   8  13
ATOM      4  O   UNL     1     -11.734  11.566  15.766  0.00  0.00    -0.249 OA
ATOM     13  C   UNL     1     -10.957  11.124  16.600  0.00  0.00    +0.328 C 
BRANCH  13   2
ATOM      2  O   UNL     1     -10.356  11.830  17.601  0.00  0.00    -0.467 OA
ATOM     20  C   UNL     1     -11.241  12.574  18.445  0.00  0.00    +0.280 C 
ENDBRANCH  13   2
ENDBRANCH   8  13
TORSDOF 3
ENDMDL
MODEL 8
REMARK VINA RESULT:      -5.6     18.170     20.595
REMARK  Name = 26745538
REMARK  5 active torsions:
REMARK  status: ('A' for Active; 'I' for Inactive)
REMARK    1  A    between atoms: O_2  and  C_13
REMARK    2  A    between atoms: O_2  and  C_20
REMARK    3  A    between atoms: N_6  and  C_16
REMARK    4  A    between atoms: C_8  and  C_13
REMARK    5  A    between atoms: C_14  and  C_17
REMARK                            x       y       z     vdW  Elec       q    Type
REMARK                         _______ _______ _______ _____ _____    ______ ____
ROOT
ATOM      3  O   UNL     1      13.634   2.947   1.654  0.00  0.00    -0.270 OA
ATOM      5  N   UNL     1      12.355   3.853  -0.092  0.00  0.00    -0.278 N 
ATOM      6  N   UNL     1       9.589   4.875  -2.402  0.00  0.00    -0.336 N 
ATOM      7  N   UNL     1      10.255   3.135  -3.634  0.00  0.00    -0.240 NA
ATOM      8  C   UNL     1      13.102   3.101  -1.134  0.00  0.00    +0.191 C 
ATOM      9  C   UNL     1      12.211   2.422  -2.195  0.00  0.00    +0.091 C 
ATOM     10  C   UNL     1      11.303   4.820  -0.519  0.00  0.00    +0.164 C 
ATOM     11  C   UNL     1      10.672   4.345  -1.765  0.00  0.00    +0.059 A 
ATOM     12  C   UNL     1      11.064   3.284  -2.542  0.00  0.00    +0.066 A 
ATOM     14  C   UNL     1      12.774   3.725   1.243  0.00  0.00    +0.248 C 
ATOM     15  C   UNL     1       9.377   4.112  -3.521  0.00  0.00    +0.199 A 
ATOM     16  C   UNL     1       8.810   6.019  -1.995  0.00  0.00    +0.150 C 
ENDROOT
BRANCH  14  17
ATOM      1  F   UNL     1      10.386   7.018   5.090  0.00  0.00    -0.205 F 
ATOM     17  C   UNL     1      12.147   4.589   2.253  0.00  0.00    +0.037 A 
ATOM     18  C   UNL     1      11.040   4.134   2.971  0.00  0.00    +0.016 A 
ATOM     19  C   UNL     1      12.657   5.865   2.494  0.00  0.00    +0.016 A 
ATOM     21  C   UNL     1      10.445   4.954   3.929  0.00  0.00    +0.039 A 
ATOM     22  C   UNL     1      12.062   6.686   3.452  0.00  0.00    +0.039 A 
ATOM     23  C   UNL     1      10.956   6.230   4.169  0.00  0.00    +0.123 A 
ENDBRANCH  14  17
BRANCH   8  13
ATOM      4  O   UNL     1      14.129   4.321  -2.942  0.00  0.00    -0.249 OA
ATOM     13  C   UNL     1      14.060   4.084  -1.745  0.00  0.00    +0.328 C 
BRANCH  13   2
ATOM      2  O   UNL     1      14.818   4.651  -0.763  0.00  0.00    -0.467 OA
ATOM     20  C   UNL     1      16.145   4.131  -0.632  0.00  0.00    +0.280 C 
ENDBRANCH  13   2
ENDBRANCH   8  13
TORSDOF 3
ENDMDL
MODEL 9
REMARK VINA RESULT:      -5.5     14.111     16.478
REMARK  Name = 26745538
REMARK  5 active torsions:
REMARK  status: ('A' for Active; 'I' for Inactive)
REMARK    1  A    between atoms: O_2  and  C_13
REMARK    2  A    between atoms: O_2  and  C_20
REMARK    3  A    between atoms: N_6  and  C_16
REMARK    4  A    between atoms: C_8  and  C_13
REMARK    5  A    between atoms: C_14  and  C_17
REMARK                            x       y       z     vdW  Elec       q    Type
REMARK                         _______ _______ _______ _____ _____    ______ ____
ROOT
ATOM      3  O   UNL     1       9.796   5.583   1.323  0.00  0.00    -0.270 OA
ATOM      5  N   UNL     1      10.380   6.307   3.477  0.00  0.00    -0.278 N 
ATOM      6  N   UNL     1      11.354   6.514   7.087  0.00  0.00    -0.336 N 
ATOM      7  N   UNL     1       9.173   6.834   7.443  0.00  0.00    -0.240 NA
ATOM      8  C   UNL     1       9.102   7.044   3.661  0.00  0.00    +0.191 C 
ATOM      9  C   UNL     1       8.422   6.814   5.026  0.00  0.00    +0.091 C 
ATOM     10  C   UNL     1      11.418   6.390   4.544  0.00  0.00    +0.164 C 
ATOM     11  C   UNL     1      10.763   6.534   5.858  0.00  0.00    +0.059 A 
ATOM     12  C   UNL     1       9.428   6.736   6.104  0.00  0.00    +0.066 A 
ATOM     14  C   UNL     1      10.610   5.682   2.239  0.00  0.00    +0.248 C 
ATOM     15  C   UNL     1      10.355   6.698   8.009  0.00  0.00    +0.199 A 
ATOM     16  C   UNL     1      12.756   6.338   7.379  0.00  0.00    +0.150 C 
ENDROOT
BRANCH  14  17
ATOM      1  F   UNL     1      15.657   3.446   1.306  0.00  0.00    -0.205 F 
ATOM     17  C   UNL     1      11.934   5.095   1.994  0.00  0.00    +0.037 A 
ATOM     18  C   UNL     1      13.038   5.924   1.785  0.00  0.00    +0.016 A 
ATOM     19  C   UNL     1      12.091   3.709   1.970  0.00  0.00    +0.016 A 
ATOM     21  C   UNL     1      14.294   5.367   1.552  0.00  0.00    +0.039 A 
ATOM     22  C   UNL     1      13.347   3.152   1.737  0.00  0.00    +0.039 A 
ATOM     23  C   UNL     1      14.450   3.981   1.528  0.00  0.00    +0.123 A 
ENDBRANCH  14  17
BRANCH   8  13
ATOM      4  O   UNL     1      10.307   8.886   2.676  0.00  0.00    -0.249 OA
ATOM     13  C   UNL     1       9.424   8.493   3.425  0.00  0.00    +0.328 C 
BRANCH  13   2
ATOM      2  O   UNL     1       8.588   9.271   4.169  0.00  0.00    -0.467 OA
ATOM     20  C   UNL     1       9.150  10.498   4.645  0.00  0.00    +0.280 C 
ENDBRANCH  13   2
ENDBRANCH   8  13
TORSDOF 3
ENDMDL
MODEL 10
REMARK VINA RESULT:      -5.3     12.944     16.143
REMARK  Name = 26745538
REMARK  5 active torsions:
REMARK  status: ('A' for Active; 'I' for Inactive)
REMARK    1  A    between atoms: O_2  and  C_13
REMARK    2  A    between atoms: O_2  and  C_20
REMARK    3  A    between atoms: N_6  and  C_16
REMARK    4  A    between atoms: C_8  and  C_13
REMARK    5  A    between atoms: C_14  and  C_17
REMARK                            x       y       z     vdW  Elec       q    Type
REMARK                         _______ _______ _______ _____ _____    ______ ____
ROOT
ATOM      3  O   UNL     1      17.252  -5.581  22.624  0.00  0.00    -0.270 OA
ATOM      5  N   UNL     1      19.285  -5.513  23.793  0.00  0.00    -0.278 N 
ATOM      6  N   UNL     1      22.753  -4.751  24.986  0.00  0.00    -0.336 N 
ATOM      7  N   UNL     1      23.320  -6.601  23.870  0.00  0.00    -0.240 NA
ATOM      8  C   UNL     1      19.561  -6.954  23.554  0.00  0.00    +0.191 C 
ATOM      9  C   UNL     1      21.002  -7.262  23.098  0.00  0.00    +0.091 C 
ATOM     10  C   UNL     1      20.229  -4.732  24.643  0.00  0.00    +0.164 C 
ATOM     11  C   UNL     1      21.595  -5.266  24.482  0.00  0.00    +0.059 A 
ATOM     12  C   UNL     1      21.969  -6.401  23.807  0.00  0.00    +0.066 A 
ATOM     14  C   UNL     1      18.069  -4.987  23.326  0.00  0.00    +0.248 C 
ATOM     15  C   UNL     1      23.763  -5.589  24.590  0.00  0.00    +0.199 A 
ATOM     16  C   UNL     1      22.904  -3.559  25.785  0.00  0.00    +0.150 C 
ENDROOT
BRANCH  14  17
ATOM      1  F   UNL     1      16.736   0.259  24.758  0.00  0.00    -0.205 F 
ATOM     17  C   UNL     1      17.719  -3.610  23.702  0.00  0.00    +0.037 A 
ATOM     18  C   UNL     1      17.983  -2.558  22.823  0.00  0.00    +0.016 A 
ATOM     19  C   UNL     1      17.123  -3.353  24.937  0.00  0.00    +0.016 A 
ATOM     21  C   UNL     1      17.651  -1.252  23.180  0.00  0.00    +0.039 A 
ATOM     22  C   UNL     1      16.791  -2.046  25.294  0.00  0.00    +0.039 A 
ATOM     23  C   UNL     1      17.056  -0.995  24.415  0.00  0.00    +0.123 A 
ENDBRANCH  14  17
BRANCH   8  13
ATOM      4  O   UNL     1      20.027  -8.014  25.668  0.00  0.00    -0.249 OA
ATOM     13  C   UNL     1      19.208  -7.659  24.833  0.00  0.00    +0.328 C 
BRANCH  13   2
ATOM      2  O   UNL     1      17.857  -7.831  24.900  0.00  0.00    -0.467 OA
ATOM     20  C   UNL     1      17.240  -7.385  26.112  0.00  0.00    +0.280 C 
ENDBRANCH  13   2
ENDBRANCH   8  13
TORSDOF 3
ENDMDL
