MODEL 1
REMARK VINA RESULT:      -8.5      0.000      0.000
REMARK  Name = 7674050
REMARK  5 active torsions:
REMARK  status: ('A' for Active; 'I' for Inactive)
REMARK    1  A    between atoms: S_1  and  N_8
REMARK    2  A    between atoms: S_1  and  C_22
REMARK    3  A    between atoms: N_10  and  C_18
REMARK    4  A    between atoms: C_13  and  C_17
REMARK    5  A    between atoms: C_21  and  C_25
REMARK                            x       y       z     vdW  Elec       q    Type
REMARK                         _______ _______ _______ _____ _____    ______ ____
ROOT
ATOM      6  O   UNL     1      17.685   6.160  19.282  0.00  0.00    -0.270 OA
ATOM      8  N   UNL     1      13.231   8.064  20.775  0.00  0.00    -0.162 NA
ATOM      9  N   UNL     1      15.922   7.040  20.544  0.00  0.00    -0.294 N 
ATOM     13  C   UNL     1      13.718   7.522  19.475  0.00  0.00    +0.183 C 
ATOM     14  C   UNL     1      14.890   6.558  19.626  0.00  0.00    +0.138 C 
ATOM     15  C   UNL     1      13.963   7.575  21.972  0.00  0.00    +0.129 C 
ATOM     16  C   UNL     1      15.459   7.742  21.747  0.00  0.00    +0.125 C 
ATOM     21  C   UNL     1      17.264   6.746  20.279  0.00  0.00    +0.248 C 
ENDROOT
BRANCH  21  25
ATOM     12  N   UNL     1      19.900   6.549  22.943  0.00  0.00    -0.263 NA
ATOM     25  C   UNL     1      18.270   7.165  21.268  0.00  0.00    +0.055 A 
ATOM     30  C   UNL     1      18.552   8.510  21.479  0.00  0.00    +0.016 A 
ATOM     31  C   UNL     1      18.966   6.231  22.020  0.00  0.00    +0.123 A 
ATOM     33  C   UNL     1      19.507   8.876  22.420  0.00  0.00    +0.020 A 
ATOM     34  C   UNL     1      20.148   7.867  23.120  0.00  0.00    +0.111 A 
ENDBRANCH  21  25
BRANCH  13  17
ATOM      3  O   UNL     1      15.120   9.375  18.947  0.00  0.00    -0.274 OA
ATOM     10  N   UNL     1      13.189   9.029  17.695  0.00  0.00    -0.303 N 
ATOM     17  C   UNL     1      14.105   8.735  18.690  0.00  0.00    +0.234 C 
ATOM     35  H   UNL     1      12.398   8.407  17.552  0.00  0.00    +0.149 HD
BRANCH  10  18
ATOM      7  O   UNL     1      14.041   8.580  15.138  0.00  0.00    -0.274 OA
ATOM     11  N   UNL     1      14.883  10.698  14.983  0.00  0.00    -0.314 N 
ATOM     18  C   UNL     1      13.320  10.160  16.814  0.00  0.00    +0.159 C 
ATOM     19  C   UNL     1      13.899  11.358  17.553  0.00  0.00    +0.033 C 
ATOM     20  C   UNL     1      14.190  12.476  16.564  0.00  0.00    +0.021 C 
ATOM     23  C   UNL     1      14.133   9.719  15.601  0.00  0.00    +0.233 C 
ATOM     24  C   UNL     1      15.213  11.990  15.554  0.00  0.00    +0.104 C 
ATOM     36  H   UNL     1      15.383  10.429  14.140  0.00  0.00    +0.149 HD
ENDBRANCH  10  18
ENDBRANCH  13  17
BRANCH   8   1
ATOM      1  S   UNL     1      11.542   8.251  20.948  0.00  0.00    +0.062 S 
ATOM      4  O   UNL     1      11.066   7.338  21.966  0.00  0.00    -0.153 OA
ATOM      5  O   UNL     1      10.934   8.282  19.634  0.00  0.00    -0.153 OA
BRANCH   1  22
ATOM      2  F   UNL     1      11.330  13.702  23.179  0.00  0.00    -0.205 F 
ATOM     22  C   UNL     1      11.478   9.883  21.617  0.00  0.00    +0.106 A 
ATOM     26  C   UNL     1      11.999  10.955  20.890  0.00  0.00    +0.031 A 
ATOM     27  C   UNL     1      10.907  10.102  22.870  0.00  0.00    +0.031 A 
ATOM     28  C   UNL     1      11.948  12.245  21.419  0.00  0.00    +0.040 A 
ATOM     29  C   UNL     1      10.856  11.393  23.398  0.00  0.00    +0.040 A 
ATOM     32  C   UNL     1      11.378  12.464  22.672  0.00  0.00    +0.124 A 
ENDBRANCH   1  22
ENDBRANCH   8   1
TORSDOF 5
ENDMDL
MODEL 2
REMARK VINA RESULT:      -8.0      1.476      2.106
REMARK  Name = 7674050
REMARK  5 active torsions:
REMARK  status: ('A' for Active; 'I' for Inactive)
REMARK    1  A    between atoms: S_1  and  N_8
REMARK    2  A    between atoms: S_1  and  C_22
REMARK    3  A    between atoms: N_10  and  C_18
REMARK    4  A    between atoms: C_13  and  C_17
REMARK    5  A    between atoms: C_21  and  C_25
REMARK                            x       y       z     vdW  Elec       q    Type
REMARK                         _______ _______ _______ _____ _____    ______ ____
ROOT
ATOM      6  O   UNL     1      17.816   6.227  19.279  0.00  0.00    -0.270 OA
ATOM      8  N   UNL     1      13.261   8.050  20.550  0.00  0.00    -0.162 NA
ATOM      9  N   UNL     1      15.991   7.113  20.444  0.00  0.00    -0.294 N 
ATOM     13  C   UNL     1      13.800   7.453  19.296  0.00  0.00    +0.183 C 
ATOM     14  C   UNL     1      15.001   6.542  19.531  0.00  0.00    +0.138 C 
ATOM     15  C   UNL     1      13.977   7.657  21.791  0.00  0.00    +0.129 C 
ATOM     16  C   UNL     1      15.472   7.865  21.593  0.00  0.00    +0.125 C 
ATOM     21  C   UNL     1      17.349   6.853  20.230  0.00  0.00    +0.248 C 
ENDROOT
BRANCH  21  25
ATOM     12  N   UNL     1      19.351   9.260  22.300  0.00  0.00    -0.263 NA
ATOM     25  C   UNL     1      18.312   7.364  21.218  0.00  0.00    +0.055 A 
ATOM     30  C   UNL     1      19.080   6.496  21.987  0.00  0.00    +0.016 A 
ATOM     31  C   UNL     1      18.485   8.726  21.411  0.00  0.00    +0.123 A 
ATOM     33  C   UNL     1      19.981   7.008  22.913  0.00  0.00    +0.020 A 
ATOM     34  C   UNL     1      20.079   8.385  23.031  0.00  0.00    +0.111 A 
ENDBRANCH  21  25
BRANCH  13  17
ATOM      3  O   UNL     1      14.255   8.551  17.229  0.00  0.00    -0.274 OA
ATOM     10  N   UNL     1      14.400   9.767  19.209  0.00  0.00    -0.303 N 
ATOM     17  C   UNL     1      14.166   8.632  18.451  0.00  0.00    +0.234 C 
ATOM     35  H   UNL     1      14.265   9.725  20.215  0.00  0.00    +0.149 HD
BRANCH  10  18
ATOM      7  O   UNL     1      16.363  11.199  20.459  0.00  0.00    -0.274 OA
ATOM     11  N   UNL     1      15.552  13.160  19.616  0.00  0.00    -0.314 N 
ATOM     18  C   UNL     1      14.790  11.028  18.637  0.00  0.00    +0.159 C 
ATOM     19  C   UNL     1      13.575  11.790  18.124  0.00  0.00    +0.033 C 
ATOM     20  C   UNL     1      13.993  13.185  17.689  0.00  0.00    +0.021 C 
ATOM     23  C   UNL     1      15.610  11.783  19.678  0.00  0.00    +0.233 C 
ATOM     24  C   UNL     1      14.561  13.928  18.884  0.00  0.00    +0.104 C 
ATOM     36  H   UNL     1      16.139  13.674  20.267  0.00  0.00    +0.149 HD
ENDBRANCH  10  18
ENDBRANCH  13  17
BRANCH   8   1
ATOM      1  S   UNL     1      11.562   8.185  20.670  0.00  0.00    +0.062 S 
ATOM      4  O   UNL     1      11.058   7.106  21.493  0.00  0.00    -0.153 OA
ATOM      5  O   UNL     1      11.014   8.436  19.353  0.00  0.00    -0.153 OA
BRANCH   1  22
ATOM      2  F   UNL     1      11.141  13.170  23.788  0.00  0.00    -0.205 F 
ATOM     22  C   UNL     1      11.436   9.678  21.605  0.00  0.00    +0.106 A 
ATOM     26  C   UNL     1      11.829  10.890  21.037  0.00  0.00    +0.031 A 
ATOM     27  C   UNL     1      10.942   9.645  22.909  0.00  0.00    +0.031 A 
ATOM     28  C   UNL     1      11.729  12.070  21.776  0.00  0.00    +0.040 A 
ATOM     29  C   UNL     1      10.842  10.825  23.646  0.00  0.00    +0.040 A 
ATOM     32  C   UNL     1      11.237  12.037  23.080  0.00  0.00    +0.124 A 
ENDBRANCH   1  22
ENDBRANCH   8   1
TORSDOF 5
ENDMDL
MODEL 3
REMARK VINA RESULT:      -7.1     14.409     19.041
REMARK  Name = 7674050
REMARK  5 active torsions:
REMARK  status: ('A' for Active; 'I' for Inactive)
REMARK    1  A    between atoms: S_1  and  N_8
REMARK    2  A    between atoms: S_1  and  C_22
REMARK    3  A    between atoms: N_10  and  C_18
REMARK    4  A    between atoms: C_13  and  C_17
REMARK    5  A    between atoms: C_21  and  C_25
REMARK                            x       y       z     vdW  Elec       q    Type
REMARK                         _______ _______ _______ _____ _____    ______ ____
ROOT
ATOM      6  O   UNL     1      13.221   3.199   1.720  0.00  0.00    -0.270 OA
ATOM      8  N   UNL     1      14.193   8.172   1.782  0.00  0.00    -0.162 NA
ATOM      9  N   UNL     1      13.595   5.427   1.113  0.00  0.00    -0.294 N 
ATOM     13  C   UNL     1      14.207   7.123   2.840  0.00  0.00    +0.183 C 
ATOM     14  C   UNL     1      14.414   5.716   2.290  0.00  0.00    +0.138 C 
ATOM     15  C   UNL     1      14.384   7.669   0.397  0.00  0.00    +0.129 C 
ATOM     16  C   UNL     1      13.421   6.517   0.146  0.00  0.00    +0.125 C 
ATOM     21  C   UNL     1      13.094   4.133   0.930  0.00  0.00    +0.248 C 
ENDROOT
BRANCH  21  25
ATOM     12  N   UNL     1      10.274   3.961  -1.542  0.00  0.00    -0.263 NA
ATOM     25  C   UNL     1      12.351   3.851  -0.308  0.00  0.00    +0.055 A 
ATOM     30  C   UNL     1      12.968   3.233  -1.391  0.00  0.00    +0.016 A 
ATOM     31  C   UNL     1      11.013   4.192  -0.433  0.00  0.00    +0.123 A 
ATOM     33  C   UNL     1      12.241   2.980  -2.548  0.00  0.00    +0.020 A 
ATOM     34  C   UNL     1      10.909   3.360  -2.573  0.00  0.00    +0.111 A 
ENDBRANCH  21  25
BRANCH  13  17
ATOM      3  O   UNL     1      11.972   7.932   3.027  0.00  0.00    -0.274 OA
ATOM     10  N   UNL     1      12.820   6.561   4.706  0.00  0.00    -0.303 N 
ATOM     17  C   UNL     1      12.876   7.256   3.510  0.00  0.00    +0.234 C 
ATOM     35  H   UNL     1      13.622   6.007   4.993  0.00  0.00    +0.149 HD
BRANCH  10  18
ATOM      7  O   UNL     1      13.181   6.889   7.394  0.00  0.00    -0.274 OA
ATOM     11  N   UNL     1      11.256   5.746   7.852  0.00  0.00    -0.314 N 
ATOM     18  C   UNL     1      11.657   6.547   5.554  0.00  0.00    +0.159 C 
ATOM     19  C   UNL     1      10.665   5.486   5.097  0.00  0.00    +0.033 C 
ATOM     20  C   UNL     1       9.535   5.374   6.108  0.00  0.00    +0.021 C 
ATOM     23  C   UNL     1      12.129   6.385   6.995  0.00  0.00    +0.233 C 
ATOM     24  C   UNL     1      10.110   4.954   7.448  0.00  0.00    +0.104 C 
ATOM     36  H   UNL     1      11.535   5.683   8.827  0.00  0.00    +0.149 HD
ENDBRANCH  10  18
ENDBRANCH  13  17
BRANCH   8   1
ATOM      1  S   UNL     1      14.955   9.655   2.157  0.00  0.00    +0.062 S 
ATOM      4  O   UNL     1      14.148  10.371   3.123  0.00  0.00    -0.153 OA
ATOM      5  O   UNL     1      15.382  10.290   0.927  0.00  0.00    -0.153 OA
BRANCH   1  22
ATOM      2  F   UNL     1      19.757   7.676   4.942  0.00  0.00    -0.205 F 
ATOM     22  C   UNL     1      16.394   9.062   2.991  0.00  0.00    +0.106 A 
ATOM     26  C   UNL     1      16.440   9.062   4.385  0.00  0.00    +0.031 A 
ATOM     27  C   UNL     1      17.483   8.593   2.256  0.00  0.00    +0.031 A 
ATOM     28  C   UNL     1      17.577   8.593   5.044  0.00  0.00    +0.040 A 
ATOM     29  C   UNL     1      18.619   8.124   2.915  0.00  0.00    +0.040 A 
ATOM     32  C   UNL     1      18.666   8.125   4.309  0.00  0.00    +0.124 A 
ENDBRANCH   1  22
ENDBRANCH   8   1
TORSDOF 5
ENDMDL
MODEL 4
REMARK VINA RESULT:      -7.1     13.700     15.938
REMARK  Name = 7674050
REMARK  5 active torsions:
REMARK  status: ('A' for Active; 'I' for Inactive)
REMARK    1  A    between atoms: S_1  and  N_8
REMARK    2  A    between atoms: S_1  and  C_22
REMARK    3  A    between atoms: N_10  and  C_18
REMARK    4  A    between atoms: C_13  and  C_17
REMARK    5  A    between atoms: C_21  and  C_25
REMARK                            x       y       z     vdW  Elec       q    Type
REMARK                         _______ _______ _______ _____ _____    ______ ____
ROOT
ATOM      6  O   UNL     1      15.930   8.250   6.009  0.00  0.00    -0.270 OA
ATOM      8  N   UNL     1      10.925   8.126   5.227  0.00  0.00    -0.162 NA
ATOM      9  N   UNL     1      13.659   8.793   5.876  0.00  0.00    -0.294 N 
ATOM     13  C   UNL     1      11.993   7.093   5.122  0.00  0.00    +0.183 C 
ATOM     14  C   UNL     1      13.216   7.403   5.979  0.00  0.00    +0.138 C 
ATOM     15  C   UNL     1      11.234   9.259   6.138  0.00  0.00    +0.129 C 
ATOM     16  C   UNL     1      12.609   9.815   5.795  0.00  0.00    +0.125 C 
ATOM     21  C   UNL     1      15.027   9.082   5.941  0.00  0.00    +0.248 C 
ENDROOT
BRANCH  21  25
ATOM     12  N   UNL     1      16.176  12.420   4.666  0.00  0.00    -0.263 NA
ATOM     25  C   UNL     1      15.434  10.496   5.928  0.00  0.00    +0.055 A 
ATOM     30  C   UNL     1      15.470  11.243   7.100  0.00  0.00    +0.016 A 
ATOM     31  C   UNL     1      15.794  11.126   4.746  0.00  0.00    +0.123 A 
ATOM     33  C   UNL     1      15.857  12.577   7.057  0.00  0.00    +0.020 A 
ATOM     34  C   UNL     1      16.198  13.114   5.825  0.00  0.00    +0.111 A 
ENDBRANCH  21  25
BRANCH  13  17
ATOM      3  O   UNL     1      12.072   8.003   2.920  0.00  0.00    -0.274 OA
ATOM     10  N   UNL     1      12.953   5.881   3.296  0.00  0.00    -0.303 N 
ATOM     17  C   UNL     1      12.339   7.066   3.666  0.00  0.00    +0.234 C 
ATOM     35  H   UNL     1      13.153   5.185   4.009  0.00  0.00    +0.149 HD
BRANCH  10  18
ATOM      7  O   UNL     1      12.137   3.530   2.168  0.00  0.00    -0.274 OA
ATOM     11  N   UNL     1      13.939   3.510   0.764  0.00  0.00    -0.314 N 
ATOM     18  C   UNL     1      13.364   5.597   1.947  0.00  0.00    +0.159 C 
ATOM     19  C   UNL     1      14.806   6.030   1.717  0.00  0.00    +0.033 C 
ATOM     20  C   UNL     1      15.267   5.560   0.347  0.00  0.00    +0.021 C 
ATOM     23  C   UNL     1      13.104   4.119   1.678  0.00  0.00    +0.233 C 
ATOM     24  C   UNL     1      15.204   4.045   0.295  0.00  0.00    +0.104 C 
ATOM     36  H   UNL     1      13.739   2.541   0.534  0.00  0.00    +0.149 HD
ENDBRANCH  10  18
ENDBRANCH  13  17
BRANCH   8   1
ATOM      1  S   UNL     1       9.310   7.566   5.242  0.00  0.00    +0.062 S 
ATOM      4  O   UNL     1       9.089   6.729   4.082  0.00  0.00    -0.153 OA
ATOM      5  O   UNL     1       8.429   8.677   5.537  0.00  0.00    -0.153 OA
BRANCH   1  22
ATOM      2  F   UNL     1       9.474   4.065   9.981  0.00  0.00    -0.205 F 
ATOM     22  C   UNL     1       9.359   6.518   6.662  0.00  0.00    +0.106 A 
ATOM     26  C   UNL     1       9.755   5.187   6.531  0.00  0.00    +0.031 A 
ATOM     27  C   UNL     1       9.003   7.021   7.913  0.00  0.00    +0.031 A 
ATOM     28  C   UNL     1       9.793   4.358   7.653  0.00  0.00    +0.040 A 
ATOM     29  C   UNL     1       9.042   6.192   9.035  0.00  0.00    +0.040 A 
ATOM     32  C   UNL     1       9.437   4.861   8.904  0.00  0.00    +0.124 A 
ENDBRANCH   1  22
ENDBRANCH   8   1
TORSDOF 5
ENDMDL
MODEL 5
REMARK VINA RESULT:      -7.1     14.203     18.362
REMARK  Name = 7674050
REMARK  5 active torsions:
REMARK  status: ('A' for Active; 'I' for Inactive)
REMARK    1  A    between atoms: S_1  and  N_8
REMARK    2  A    between atoms: S_1  and  C_22
REMARK    3  A    between atoms: N_10  and  C_18
REMARK    4  A    between atoms: C_13  and  C_17
REMARK    5  A    between atoms: C_21  and  C_25
REMARK                            x       y       z     vdW  Elec       q    Type
REMARK                         _______ _______ _______ _____ _____    ______ ____
ROOT
ATOM      6  O   UNL     1      12.581   7.387   6.739  0.00  0.00    -0.270 OA
ATOM      8  N   UNL     1      10.595   5.903   2.318  0.00  0.00    -0.162 NA
ATOM      9  N   UNL     1      11.370   6.273   5.076  0.00  0.00    -0.294 N 
ATOM     13  C   UNL     1      11.639   6.904   2.676  0.00  0.00    +0.183 C 
ATOM     14  C   UNL     1      12.313   6.620   4.014  0.00  0.00    +0.138 C 
ATOM     15  C   UNL     1      10.400   4.817   3.314  0.00  0.00    +0.129 C 
ATOM     16  C   UNL     1      10.228   5.432   4.697  0.00  0.00    +0.125 C 
ATOM     21  C   UNL     1      11.636   6.683   6.387  0.00  0.00    +0.248 C 
ENDROOT
BRANCH  21  25
ATOM     12  N   UNL     1      10.110   4.577   9.094  0.00  0.00    -0.263 NA
ATOM     25  C   UNL     1      10.716   6.241   7.448  0.00  0.00    +0.055 A 
ATOM     30  C   UNL     1       9.619   7.012   7.814  0.00  0.00    +0.016 A 
ATOM     31  C   UNL     1      10.915   5.041   8.112  0.00  0.00    +0.123 A 
ATOM     33  C   UNL     1       8.768   6.569   8.820  0.00  0.00    +0.020 A 
ATOM     34  C   UNL     1       9.054   5.355   9.423  0.00  0.00    +0.111 A 
ENDBRANCH  21  25
BRANCH  13  17
ATOM      3  O   UNL     1      11.500   9.282   2.769  0.00  0.00    -0.274 OA
ATOM     10  N   UNL     1       9.534   8.041   2.658  0.00  0.00    -0.303 N 
ATOM     17  C   UNL     1      10.907   8.209   2.700  0.00  0.00    +0.234 C 
ATOM     35  H   UNL     1       9.154   7.103   2.569  0.00  0.00    +0.149 HD
BRANCH  10  18
ATOM      7  O   UNL     1       8.298   8.612   5.027  0.00  0.00    -0.274 OA
ATOM     11  N   UNL     1       6.518   9.544   3.942  0.00  0.00    -0.314 N 
ATOM     18  C   UNL     1       8.605   9.140   2.692  0.00  0.00    +0.159 C 
ATOM     19  C   UNL     1       7.760   9.175   1.426  0.00  0.00    +0.033 C 
ATOM     20  C   UNL     1       6.675  10.231   1.566  0.00  0.00    +0.021 C 
ATOM     23  C   UNL     1       7.798   9.033   3.982  0.00  0.00    +0.233 C 
ATOM     24  C   UNL     1       5.779   9.869   2.736  0.00  0.00    +0.104 C 
ATOM     36  H   UNL     1       5.991   9.531   4.811  0.00  0.00    +0.149 HD
ENDBRANCH  10  18
ENDBRANCH  13  17
BRANCH   8   1
ATOM      1  S   UNL     1      10.496   5.445   0.675  0.00  0.00    +0.062 S 
ATOM      4  O   UNL     1      10.214   6.617  -0.127  0.00  0.00    -0.153 OA
ATOM      5  O   UNL     1       9.679   4.255   0.566  0.00  0.00    -0.153 OA
BRANCH   1  22
ATOM      2  F   UNL     1      16.099   3.901  -0.308  0.00  0.00    -0.205 F 
ATOM     22  C   UNL     1      12.174   4.982   0.381  0.00  0.00    +0.106 A 
ATOM     26  C   UNL     1      12.957   5.724  -0.504  0.00  0.00    +0.031 A 
ATOM     27  C   UNL     1      12.717   3.876   1.034  0.00  0.00    +0.031 A 
ATOM     28  C   UNL     1      14.283   5.358  -0.736  0.00  0.00    +0.040 A 
ATOM     29  C   UNL     1      14.043   3.510   0.802  0.00  0.00    +0.040 A 
ATOM     32  C   UNL     1      14.826   4.252  -0.084  0.00  0.00    +0.124 A 
ENDBRANCH   1  22
ENDBRANCH   8   1
TORSDOF 5
ENDMDL
MODEL 6
REMARK VINA RESULT:      -7.0     28.034     29.786
REMARK  Name = 7674050
REMARK  5 active torsions:
REMARK  status: ('A' for Active; 'I' for Inactive)
REMARK    1  A    between atoms: S_1  and  N_8
REMARK    2  A    between atoms: S_1  and  C_22
REMARK    3  A    between atoms: N_10  and  C_18
REMARK    4  A    between atoms: C_13  and  C_17
REMARK    5  A    between atoms: C_21  and  C_25
REMARK                            x       y       z     vdW  Elec       q    Type
REMARK                         _______ _______ _______ _____ _____    ______ ____
ROOT
ATOM      6  O   UNL     1      -2.583 -10.850  16.751  0.00  0.00    -0.270 OA
ATOM      8  N   UNL     1      -4.062 -13.581  12.746  0.00  0.00    -0.162 NA
ATOM      9  N   UNL     1      -3.811 -12.148  15.242  0.00  0.00    -0.294 N 
ATOM     13  C   UNL     1      -2.755 -12.981  13.137  0.00  0.00    +0.183 C 
ATOM     14  C   UNL     1      -2.623 -12.755  14.640  0.00  0.00    +0.138 C 
ATOM     15  C   UNL     1      -4.991 -13.851  13.873  0.00  0.00    +0.129 C 
ATOM     16  C   UNL     1      -5.111 -12.600  14.733  0.00  0.00    +0.125 C 
ATOM     21  C   UNL     1      -3.656 -11.248  16.302  0.00  0.00    +0.248 C 
ENDROOT
BRANCH  21  25
ATOM     12  N   UNL     1      -6.835  -9.321  16.819  0.00  0.00    -0.263 NA
ATOM     25  C   UNL     1      -4.872 -10.727  16.945  0.00  0.00    +0.055 A 
ATOM     30  C   UNL     1      -5.223 -11.111  18.235  0.00  0.00    +0.016 A 
ATOM     31  C   UNL     1      -5.705  -9.836  16.286  0.00  0.00    +0.123 A 
ATOM     33  C   UNL     1      -6.378 -10.603  18.817  0.00  0.00    +0.020 A 
ATOM     34  C   UNL     1      -7.144  -9.719  18.074  0.00  0.00    +0.111 A 
ENDBRANCH  21  25
BRANCH  13  17
ATOM      3  O   UNL     1      -1.634 -11.159  12.087  0.00  0.00    -0.274 OA
ATOM     10  N   UNL     1      -3.961 -11.193  12.103  0.00  0.00    -0.303 N 
ATOM     17  C   UNL     1      -2.700 -11.690  12.384  0.00  0.00    +0.234 C 
ATOM     35  H   UNL     1      -4.777 -11.736  12.370  0.00  0.00    +0.149 HD
BRANCH  10  18
ATOM      7  O   UNL     1      -6.169  -9.721  12.754  0.00  0.00    -0.274 OA
ATOM     11  N   UNL     1      -6.217  -8.764  10.681  0.00  0.00    -0.314 N 
ATOM     18  C   UNL     1      -4.181  -9.953  11.406  0.00  0.00    +0.159 C 
ATOM     19  C   UNL     1      -3.832 -10.090   9.931  0.00  0.00    +0.033 C 
ATOM     20  C   UNL     1      -4.238  -8.826   9.190  0.00  0.00    +0.021 C 
ATOM     23  C   UNL     1      -5.616  -9.512  11.673  0.00  0.00    +0.233 C 
ATOM     24  C   UNL     1      -5.739  -8.638   9.317  0.00  0.00    +0.104 C 
ATOM     36  H   UNL     1      -7.152  -8.417  10.872  0.00  0.00    +0.149 HD
ENDBRANCH  10  18
ENDBRANCH  13  17
BRANCH   8   1
ATOM      1  S   UNL     1      -4.031 -14.748  11.498  0.00  0.00    +0.062 S 
ATOM      4  O   UNL     1      -4.905 -15.845  11.854  0.00  0.00    -0.153 OA
ATOM      5  O   UNL     1      -2.657 -14.987  11.110  0.00  0.00    -0.153 OA
BRANCH   1  22
ATOM      2  F   UNL     1      -6.637 -11.705   7.175  0.00  0.00    -0.205 F 
ATOM     22  C   UNL     1      -4.811 -13.836  10.203  0.00  0.00    +0.106 A 
ATOM     26  C   UNL     1      -6.060 -13.252  10.417  0.00  0.00    +0.031 A 
ATOM     27  C   UNL     1      -4.179 -13.699   8.967  0.00  0.00    +0.031 A 
ATOM     28  C   UNL     1      -6.677 -12.533   9.393  0.00  0.00    +0.040 A 
ATOM     29  C   UNL     1      -4.796 -12.978   7.944  0.00  0.00    +0.040 A 
ATOM     32  C   UNL     1      -6.045 -12.396   8.157  0.00  0.00    +0.124 A 
ENDBRANCH   1  22
ENDBRANCH   8   1
TORSDOF 5
ENDMDL
MODEL 7
REMARK VINA RESULT:      -6.8     27.944     29.828
REMARK  Name = 7674050
REMARK  5 active torsions:
REMARK  status: ('A' for Active; 'I' for Inactive)
REMARK    1  A    between atoms: S_1  and  N_8
REMARK    2  A    between atoms: S_1  and  C_22
REMARK    3  A    between atoms: N_10  and  C_18
REMARK    4  A    between atoms: C_13  and  C_17
REMARK    5  A    between atoms: C_21  and  C_25
REMARK                            x       y       z     vdW  Elec       q    Type
REMARK                         _______ _______ _______ _____ _____    ______ ____
ROOT
ATOM      6  O   UNL     1      -3.480 -13.583  12.961  0.00  0.00    -0.270 OA
ATOM      8  N   UNL     1      -5.780 -11.407  16.918  0.00  0.00    -0.162 NA
ATOM      9  N   UNL     1      -4.196 -12.071  14.596  0.00  0.00    -0.294 N 
ATOM     13  C   UNL     1      -5.757 -12.804  16.401  0.00  0.00    +0.183 C 
ATOM     14  C   UNL     1      -4.520 -13.117  15.566  0.00  0.00    +0.138 C 
ATOM     15  C   UNL     1      -4.608 -10.577  16.536  0.00  0.00    +0.129 C 
ATOM     16  C   UNL     1      -4.389 -10.683  15.033  0.00  0.00    +0.125 C 
ATOM     21  C   UNL     1      -3.655 -12.432  13.357  0.00  0.00    +0.248 C 
ENDROOT
BRANCH  21  25
ATOM     12  N   UNL     1      -3.871  -9.764  10.726  0.00  0.00    -0.263 NA
ATOM     25  C   UNL     1      -3.254 -11.353  12.440  0.00  0.00    +0.055 A 
ATOM     30  C   UNL     1      -1.941 -10.897  12.398  0.00  0.00    +0.016 A 
ATOM     31  C   UNL     1      -4.173 -10.758  11.590  0.00  0.00    +0.123 A 
ATOM     33  C   UNL     1      -1.592  -9.876  11.523  0.00  0.00    +0.020 A 
ATOM     34  C   UNL     1      -2.585  -9.348  10.714  0.00  0.00    +0.111 A 
ENDBRANCH  21  25
BRANCH  13  17
ATOM      3  O   UNL     1      -7.487 -14.008  15.287  0.00  0.00    -0.274 OA
ATOM     10  N   UNL     1      -7.511 -11.681  15.224  0.00  0.00    -0.303 N 
ATOM     17  C   UNL     1      -7.008 -12.918  15.588  0.00  0.00    +0.234 C 
ATOM     35  H   UNL     1      -7.047 -10.841  15.560  0.00  0.00    +0.149 HD
BRANCH  10  18
ATOM      7  O   UNL     1      -7.537  -9.687  13.356  0.00  0.00    -0.274 OA
ATOM     11  N   UNL     1      -9.815  -9.547  13.451  0.00  0.00    -0.314 N 
ATOM     18  C   UNL     1      -8.694 -11.518  14.421  0.00  0.00    +0.159 C 
ATOM     19  C   UNL     1      -9.950 -11.721  15.258  0.00  0.00    +0.033 C 
ATOM     20  C   UNL     1     -11.176 -11.372  14.430  0.00  0.00    +0.021 C 
ATOM     23  C   UNL     1      -8.612 -10.159  13.734  0.00  0.00    +0.233 C 
ATOM     24  C   UNL     1     -11.099  -9.912  14.021  0.00  0.00    +0.104 C 
ATOM     36  H   UNL     1      -9.774  -8.668  12.942  0.00  0.00    +0.149 HD
ENDBRANCH  10  18
ENDBRANCH  13  17
BRANCH   8   1
ATOM      1  S   UNL     1      -6.379 -11.181  18.503  0.00  0.00    +0.062 S 
ATOM      4  O   UNL     1      -5.488 -10.297  19.224  0.00  0.00    -0.153 OA
ATOM      5  O   UNL     1      -6.757 -12.466  19.051  0.00  0.00    -0.153 OA
BRANCH   1  22
ATOM      2  F   UNL     1     -11.316  -8.186  17.321  0.00  0.00    -0.205 F 
ATOM     22  C   UNL     1      -7.858 -10.284  18.149  0.00  0.00    +0.106 A 
ATOM     26  C   UNL     1      -7.814  -9.173  17.307  0.00  0.00    +0.031 A 
ATOM     27  C   UNL     1      -9.070 -10.687  18.711  0.00  0.00    +0.031 A 
ATOM     28  C   UNL     1      -8.983  -8.464  17.028  0.00  0.00    +0.040 A 
ATOM     29  C   UNL     1     -10.238  -9.979  18.430  0.00  0.00    +0.040 A 
ATOM     32  C   UNL     1     -10.195  -8.866  17.589  0.00  0.00    +0.124 A 
ENDBRANCH   1  22
ENDBRANCH   8   1
TORSDOF 5
ENDMDL
MODEL 8
REMARK VINA RESULT:      -6.7     14.004     17.139
REMARK  Name = 7674050
REMARK  5 active torsions:
REMARK  status: ('A' for Active; 'I' for Inactive)
REMARK    1  A    between atoms: S_1  and  N_8
REMARK    2  A    between atoms: S_1  and  C_22
REMARK    3  A    between atoms: N_10  and  C_18
REMARK    4  A    between atoms: C_13  and  C_17
REMARK    5  A    between atoms: C_21  and  C_25
REMARK                            x       y       z     vdW  Elec       q    Type
REMARK                         _______ _______ _______ _____ _____    ______ ____
ROOT
ATOM      6  O   UNL     1       9.000   6.108   4.719  0.00  0.00    -0.270 OA
ATOM      8  N   UNL     1      13.008   9.208   4.764  0.00  0.00    -0.162 NA
ATOM      9  N   UNL     1      10.725   7.547   5.371  0.00  0.00    -0.294 N 
ATOM     13  C   UNL     1      12.233   8.569   3.664  0.00  0.00    +0.183 C 
ATOM     14  C   UNL     1      10.808   8.202   4.066  0.00  0.00    +0.138 C 
ATOM     15  C   UNL     1      12.266   9.375   6.041  0.00  0.00    +0.129 C 
ATOM     16  C   UNL     1      11.620   8.049   6.420  0.00  0.00    +0.125 C 
ATOM     21  C   UNL     1       9.764   6.550   5.575  0.00  0.00    +0.248 C 
ENDROOT
BRANCH  21  25
ATOM     12  N   UNL     1      10.029   4.114   8.417  0.00  0.00    -0.263 NA
ATOM     25  C   UNL     1       9.644   5.976   6.924  0.00  0.00    +0.055 A 
ATOM     30  C   UNL     1       9.061   6.695   7.962  0.00  0.00    +0.016 A 
ATOM     31  C   UNL     1      10.108   4.699   7.202  0.00  0.00    +0.123 A 
ATOM     33  C   UNL     1       8.962   6.126   9.226  0.00  0.00    +0.020 A 
ATOM     34  C   UNL     1       9.457   4.844   9.401  0.00  0.00    +0.111 A 
ENDBRANCH  21  25
BRANCH  13  17
ATOM      3  O   UNL     1      13.939   6.943   4.021  0.00  0.00    -0.274 OA
ATOM     10  N   UNL     1      12.629   6.801   2.102  0.00  0.00    -0.303 N 
ATOM     17  C   UNL     1      13.030   7.354   3.306  0.00  0.00    +0.234 C 
ATOM     35  H   UNL     1      11.840   7.209   1.610  0.00  0.00    +0.149 HD
BRANCH  10  18
ATOM      7  O   UNL     1      13.449   6.937  -0.501  0.00  0.00    -0.274 OA
ATOM     11  N   UNL     1      13.243   4.675  -0.745  0.00  0.00    -0.314 N 
ATOM     18  C   UNL     1      13.251   5.639   1.525  0.00  0.00    +0.159 C 
ATOM     19  C   UNL     1      12.552   4.366   1.982  0.00  0.00    +0.033 C 
ATOM     20  C   UNL     1      13.115   3.175   1.223  0.00  0.00    +0.021 C 
ATOM     23  C   UNL     1      13.285   5.827   0.012  0.00  0.00    +0.233 C 
ATOM     24  C   UNL     1      12.854   3.364  -0.260  0.00  0.00    +0.104 C 
ATOM     36  H   UNL     1      13.323   4.785  -1.752  0.00  0.00    +0.149 HD
ENDBRANCH  10  18
ENDBRANCH  13  17
BRANCH   8   1
ATOM      1  S   UNL     1      14.055  10.487   4.328  0.00  0.00    +0.062 S 
ATOM      4  O   UNL     1      13.982  11.523   5.337  0.00  0.00    -0.153 OA
ATOM      5  O   UNL     1      13.861  10.798   2.927  0.00  0.00    -0.153 OA
BRANCH   1  22
ATOM      2  F   UNL     1      19.267   7.793   4.890  0.00  0.00    -0.205 F 
ATOM     22  C   UNL     1      15.616   9.680   4.496  0.00  0.00    +0.106 A 
ATOM     26  C   UNL     1      16.088   9.332   5.762  0.00  0.00    +0.031 A 
ATOM     27  C   UNL     1      16.377   9.390   3.363  0.00  0.00    +0.031 A 
ATOM     28  C   UNL     1      17.322   8.695   5.894  0.00  0.00    +0.040 A 
ATOM     29  C   UNL     1      17.610   8.752   3.496  0.00  0.00    +0.040 A 
ATOM     32  C   UNL     1      18.083   8.405   4.762  0.00  0.00    +0.124 A 
ENDBRANCH   1  22
ENDBRANCH   8   1
TORSDOF 5
ENDMDL
MODEL 9
REMARK VINA RESULT:      -6.7     29.571     32.196
REMARK  Name = 7674050
REMARK  5 active torsions:
REMARK  status: ('A' for Active; 'I' for Inactive)
REMARK    1  A    between atoms: S_1  and  N_8
REMARK    2  A    between atoms: S_1  and  C_22
REMARK    3  A    between atoms: N_10  and  C_18
REMARK    4  A    between atoms: C_13  and  C_17
REMARK    5  A    between atoms: C_21  and  C_25
REMARK                            x       y       z     vdW  Elec       q    Type
REMARK                         _______ _______ _______ _____ _____    ______ ____
ROOT
ATOM      6  O   UNL     1     -12.610 -10.280  15.869  0.00  0.00    -0.270 OA
ATOM      8  N   UNL     1      -8.314 -10.600  18.538  0.00  0.00    -0.162 NA
ATOM      9  N   UNL     1     -10.456  -9.941  16.716  0.00  0.00    -0.294 N 
ATOM     13  C   UNL     1      -9.552 -11.428  18.507  0.00  0.00    +0.183 C 
ATOM     14  C   UNL     1     -10.317 -11.318  17.192  0.00  0.00    +0.138 C 
ATOM     15  C   UNL     1      -8.046  -9.825  17.299  0.00  0.00    +0.129 C 
ATOM     16  C   UNL     1      -9.300  -9.057  16.907  0.00  0.00    +0.125 C 
ATOM     21  C   UNL     1     -11.625  -9.565  16.046  0.00  0.00    +0.248 C 
ENDROOT
BRANCH  21  25
ATOM     12  N   UNL     1     -11.996  -6.757  13.583  0.00  0.00    -0.263 NA
ATOM     25  C   UNL     1     -11.697  -8.201  15.499  0.00  0.00    +0.055 A 
ATOM     30  C   UNL     1     -11.542  -7.089  16.320  0.00  0.00    +0.016 A 
ATOM     31  C   UNL     1     -11.919  -7.982  14.148  0.00  0.00    +0.123 A 
ATOM     33  C   UNL     1     -11.615  -5.813  15.776  0.00  0.00    +0.020 A 
ATOM     34  C   UNL     1     -11.842  -5.701  14.413  0.00  0.00    +0.111 A 
ENDBRANCH  21  25
BRANCH  13  17
ATOM      3  O   UNL     1      -9.850 -10.349  20.612  0.00  0.00    -0.274 OA
ATOM     10  N   UNL     1     -11.714 -11.196  19.505  0.00  0.00    -0.303 N 
ATOM     17  C   UNL     1     -10.366 -10.921  19.656  0.00  0.00    +0.234 C 
ATOM     35  H   UNL     1     -12.033 -11.649  18.653  0.00  0.00    +0.149 HD
BRANCH  10  18
ATOM      7  O   UNL     1     -12.551 -13.111  21.265  0.00  0.00    -0.274 OA
ATOM     11  N   UNL     1     -14.564 -12.066  21.537  0.00  0.00    -0.314 N 
ATOM     18  C   UNL     1     -12.706 -10.833  20.482  0.00  0.00    +0.159 C 
ATOM     19  C   UNL     1     -13.762  -9.923  19.871  0.00  0.00    +0.033 C 
ATOM     20  C   UNL     1     -14.885  -9.700  20.872  0.00  0.00    +0.021 C 
ATOM     23  C   UNL     1     -13.260 -12.118  21.089  0.00  0.00    +0.233 C 
ATOM     24  C   UNL     1     -15.528 -11.035  21.201  0.00  0.00    +0.104 C 
ATOM     36  H   UNL     1     -14.925 -12.898  21.995  0.00  0.00    +0.149 HD
ENDBRANCH  10  18
ENDBRANCH  13  17
BRANCH   8   1
ATOM      1  S   UNL     1      -6.951 -11.280  19.312  0.00  0.00    +0.062 S 
ATOM      4  O   UNL     1      -7.296 -12.596  19.808  0.00  0.00    -0.153 OA
ATOM      5  O   UNL     1      -6.360 -10.288  20.185  0.00  0.00    -0.153 OA
BRANCH   1  22
ATOM      2  F   UNL     1      -3.377 -11.986  14.678  0.00  0.00    -0.205 F 
ATOM     22  C   UNL     1      -5.880 -11.491  17.924  0.00  0.00    +0.106 A 
ATOM     26  C   UNL     1      -6.096 -12.541  17.031  0.00  0.00    +0.031 A 
ATOM     27  C   UNL     1      -4.820 -10.608  17.721  0.00  0.00    +0.031 A 
ATOM     28  C   UNL     1      -5.249 -12.708  15.935  0.00  0.00    +0.040 A 
ATOM     29  C   UNL     1      -3.975 -10.775  16.623  0.00  0.00    +0.040 A 
ATOM     32  C   UNL     1      -4.189 -11.825  15.731  0.00  0.00    +0.124 A 
ENDBRANCH   1  22
ENDBRANCH   8   1
TORSDOF 5
ENDMDL
MODEL 10
REMARK VINA RESULT:      -6.7     29.353     31.353
REMARK  Name = 7674050
REMARK  5 active torsions:
REMARK  status: ('A' for Active; 'I' for Inactive)
REMARK    1  A    between atoms: S_1  and  N_8
REMARK    2  A    between atoms: S_1  and  C_22
REMARK    3  A    between atoms: N_10  and  C_18
REMARK    4  A    between atoms: C_13  and  C_17
REMARK    5  A    between atoms: C_21  and  C_25
REMARK                            x       y       z     vdW  Elec       q    Type
REMARK                         _______ _______ _______ _____ _____    ______ ____
ROOT
ATOM      6  O   UNL     1      -6.249 -13.409   3.836  0.00  0.00    -0.270 OA
ATOM      8  N   UNL     1      -5.164 -12.459   8.695  0.00  0.00    -0.162 NA
ATOM      9  N   UNL     1      -5.201 -13.270   5.923  0.00  0.00    -0.294 N 
ATOM     13  C   UNL     1      -6.392 -12.264   7.873  0.00  0.00    +0.183 C 
ATOM     14  C   UNL     1      -6.460 -13.191   6.664  0.00  0.00    +0.138 C 
ATOM     15  C   UNL     1      -4.237 -13.508   8.198  0.00  0.00    +0.129 C 
ATOM     16  C   UNL     1      -3.967 -13.278   6.718  0.00  0.00    +0.125 C 
ATOM     21  C   UNL     1      -5.235 -13.412   4.531  0.00  0.00    +0.248 C 
ENDROOT
BRANCH  21  25
ATOM     12  N   UNL     1      -2.097 -12.579   2.648  0.00  0.00    -0.263 NA
ATOM     25  C   UNL     1      -3.955 -13.582   3.825  0.00  0.00    +0.055 A 
ATOM     30  C   UNL     1      -3.389 -14.841   3.658  0.00  0.00    +0.016 A 
ATOM     31  C   UNL     1      -3.275 -12.492   3.305  0.00  0.00    +0.123 A 
ATOM     33  C   UNL     1      -2.179 -14.971   2.987  0.00  0.00    +0.020 A 
ATOM     34  C   UNL     1      -1.578 -13.819   2.505  0.00  0.00    +0.111 A 
ENDBRANCH  21  25
BRANCH  13  17
ATOM      3  O   UNL     1      -5.354 -10.355   6.892  0.00  0.00    -0.274 OA
ATOM     10  N   UNL     1      -7.484 -10.137   7.807  0.00  0.00    -0.303 N 
ATOM     17  C   UNL     1      -6.336 -10.828   7.458  0.00  0.00    +0.234 C 
ATOM     35  H   UNL     1      -8.249 -10.641   8.246  0.00  0.00    +0.149 HD
BRANCH  10  18
ATOM      7  O   UNL     1      -7.647  -8.429   9.933  0.00  0.00    -0.274 OA
ATOM     11  N   UNL     1      -8.883  -6.940   8.718  0.00  0.00    -0.314 N 
ATOM     18  C   UNL     1      -7.670  -8.735   7.539  0.00  0.00    +0.159 C 
ATOM     19  C   UNL     1      -8.644  -8.528   6.387  0.00  0.00    +0.033 C 
ATOM     20  C   UNL     1      -8.956  -7.047   6.243  0.00  0.00    +0.021 C 
ATOM     23  C   UNL     1      -8.086  -8.059   8.841  0.00  0.00    +0.233 C 
ATOM     24  C   UNL     1      -9.606  -6.550   7.522  0.00  0.00    +0.104 C 
ATOM     36  H   UNL     1      -9.119  -6.448   9.576  0.00  0.00    +0.149 HD
ENDBRANCH  10  18
ENDBRANCH  13  17
BRANCH   8   1
ATOM      1  S   UNL     1      -5.347 -12.355  10.390  0.00  0.00    +0.062 S 
ATOM      4  O   UNL     1      -5.136 -13.664  10.971  0.00  0.00    -0.153 OA
ATOM      5  O   UNL     1      -6.541 -11.592  10.690  0.00  0.00    -0.153 OA
BRANCH   1  22
ATOM      2  F   UNL     1      -0.675  -9.022  11.732  0.00  0.00    -0.205 F 
ATOM     22  C   UNL     1      -3.948 -11.356  10.792  0.00  0.00    +0.106 A 
ATOM     26  C   UNL     1      -3.034 -11.790  11.753  0.00  0.00    +0.031 A 
ATOM     27  C   UNL     1      -3.755 -10.134  10.148  0.00  0.00    +0.031 A 
ATOM     28  C   UNL     1      -1.929 -11.001  12.070  0.00  0.00    +0.040 A 
ATOM     29  C   UNL     1      -2.648  -9.345  10.465  0.00  0.00    +0.040 A 
ATOM     32  C   UNL     1      -1.736  -9.779  11.427  0.00  0.00    +0.124 A 
ENDBRANCH   1  22
ENDBRANCH   8   1
TORSDOF 5
ENDMDL
