MODEL 1
REMARK VINA RESULT:      -6.7      0.000      0.000
REMARK  Name = 11867059
REMARK  12 active torsions:
REMARK  status: ('A' for Active; 'I' for Inactive)
REMARK    1  A    between atoms: O_2  and  C_15
REMARK    2  A    between atoms: O_3  and  C_20
REMARK    3  A    between atoms: O_6  and  C_29
REMARK    4  A    between atoms: O_6  and  C_35
REMARK    5  A    between atoms: N_8  and  C_26
REMARK    6  A    between atoms: C_10  and  C_18
REMARK    7  A    between atoms: C_12  and  C_20
REMARK    8  A    between atoms: C_12  and  C_21
REMARK    9  A    between atoms: C_13  and  C_23
REMARK   10  A    between atoms: C_23  and  C_24
REMARK   11  A    between atoms: C_26  and  C_28
REMARK   12  A    between atoms: C_27  and  C_29
REMARK                            x       y       z     vdW  Elec       q    Type
REMARK                         _______ _______ _______ _____ _____    ______ ____
ROOT
ATOM      1  S   UNL     1      17.974   6.548  20.648  0.00  0.00    -0.057 S 
ATOM      5  O   UNL     1      20.563   9.287  23.393  0.00  0.00    -0.273 OA
ATOM      7  N   UNL     1      18.021   8.786  21.943  0.00  0.00    -0.229 NA
ATOM      9  N   UNL     1      20.000   7.416  22.068  0.00  0.00    -0.263 N 
ATOM     10  C   UNL     1      14.608   9.626  20.357  0.00  0.00    -0.019 C 
ATOM     11  C   UNL     1      14.175   8.094  20.288  0.00  0.00    +0.011 C 
ATOM     12  C   UNL     1      12.808   7.768  19.572  0.00  0.00    +0.021 C 
ATOM     13  C   UNL     1      15.745   9.766  21.471  0.00  0.00    +0.054 C 
ATOM     14  C   UNL     1      13.391  10.486  20.789  0.00  0.00    +0.010 C 
ATOM     15  C   UNL     1      11.715   8.748  20.084  0.00  0.00    +0.123 C 
ATOM     16  C   UNL     1      15.355   7.190  19.828  0.00  0.00    +0.049 C 
ATOM     17  C   UNL     1      12.127  10.213  19.987  0.00  0.00    +0.032 C 
ATOM     18  C   UNL     1      15.141  10.161  19.006  0.00  0.00    +0.012 C 
ATOM     19  C   UNL     1      16.793   8.694  21.314  0.00  0.00    +0.058 A 
ATOM     21  C   UNL     1      12.361   6.331  19.963  0.00  0.00    +0.016 C 
ATOM     22  C   UNL     1      16.590   7.538  20.588  0.00  0.00    +0.015 A 
ATOM     25  C   UNL     1      18.728   7.715  21.655  0.00  0.00    +0.165 A 
ATOM     27  C   UNL     1      20.827   8.198  22.894  0.00  0.00    +0.244 C 
ATOM     39  H   UNL     1      20.364   6.528  21.729  0.00  0.00    +0.157 HD
ENDROOT
BRANCH  15   2
ATOM      2  O   UNL     1      10.497   8.566  19.362  0.00  0.00    -0.391 OA
ATOM     36  H   UNL     1      10.616   8.955  18.479  0.00  0.00    +0.210 HD
ENDBRANCH  15   2
BRANCH  12  20
ATOM     20  C   UNL     1      12.876   7.777  18.028  0.00  0.00    +0.165 C 
BRANCH  20   3
ATOM      3  O   UNL     1      11.882   6.899  17.548  0.00  0.00    -0.394 OA
ATOM     37  H   UNL     1      12.256   6.003  17.561  0.00  0.00    +0.209 HD
ENDBRANCH  20   3
ENDBRANCH  12  20
BRANCH  13  23
ATOM     23  C   UNL     1      16.377  11.161  21.564  0.00  0.00    +0.106 C 
BRANCH  23  24
ATOM      4  O   UNL     1      16.625  12.867  23.262  0.00  0.00    -0.276 OA
ATOM      8  N   UNL     1      15.151  11.105  23.614  0.00  0.00    -0.311 N 
ATOM     24  C   UNL     1      16.089  11.827  22.889  0.00  0.00    +0.214 C 
ATOM     38  H   UNL     1      14.780  10.243  23.223  0.00  0.00    +0.149 HD
BRANCH   8  26
ATOM     26  C   UNL     1      14.686  11.503  24.921  0.00  0.00    +0.139 C 
BRANCH  26  28
ATOM     28  C   UNL     1      13.258  11.970  24.893  0.00  0.00    -0.030 A 
ATOM     30  C   UNL     1      12.841  12.992  25.745  0.00  0.00    +0.005 A 
ATOM     31  C   UNL     1      12.350  11.382  24.013  0.00  0.00    +0.005 A 
ATOM     32  C   UNL     1      11.515  13.426  25.718  0.00  0.00    +0.000 A 
ATOM     33  C   UNL     1      11.024  11.815  23.986  0.00  0.00    +0.000 A 
ATOM     34  C   UNL     1      10.607  12.837  24.838  0.00  0.00    +0.000 A 
ENDBRANCH  26  28
ENDBRANCH   8  26
ENDBRANCH  23  24
ENDBRANCH  13  23
BRANCH  27  29
ATOM     29  C   UNL     1      22.168   7.526  23.126  0.00  0.00    +0.255 C 
BRANCH  29   6
ATOM      6  O   UNL     1      22.227   6.278  22.468  0.00  0.00    -0.374 OA
ATOM     35  C   UNL     1      22.575   5.223  23.360  0.00  0.00    +0.194 C 
ENDBRANCH  29   6
ENDBRANCH  27  29
TORSDOF 9
ENDMDL
MODEL 2
REMARK VINA RESULT:      -6.2     28.167     31.449
REMARK  Name = 11867059
REMARK  12 active torsions:
REMARK  status: ('A' for Active; 'I' for Inactive)
REMARK    1  A    between atoms: O_2  and  C_15
REMARK    2  A    between atoms: O_3  and  C_20
REMARK    3  A    between atoms: O_6  and  C_29
REMARK    4  A    between atoms: O_6  and  C_35
REMARK    5  A    between atoms: N_8  and  C_26
REMARK    6  A    between atoms: C_10  and  C_18
REMARK    7  A    between atoms: C_12  and  C_20
REMARK    8  A    between atoms: C_12  and  C_21
REMARK    9  A    between atoms: C_13  and  C_23
REMARK   10  A    between atoms: C_23  and  C_24
REMARK   11  A    between atoms: C_26  and  C_28
REMARK   12  A    between atoms: C_27  and  C_29
REMARK                            x       y       z     vdW  Elec       q    Type
REMARK                         _______ _______ _______ _____ _____    ______ ____
ROOT
ATOM      1  S   UNL     1      -7.111 -10.459  11.300  0.00  0.00    -0.057 S 
ATOM      5  O   UNL     1     -11.127  -9.029  13.190  0.00  0.00    -0.273 OA
ATOM      7  N   UNL     1      -8.301  -9.877  13.521  0.00  0.00    -0.229 NA
ATOM      9  N   UNL     1      -9.602  -9.666  11.504  0.00  0.00    -0.263 N 
ATOM     10  C   UNL     1      -5.151 -11.104  15.378  0.00  0.00    -0.019 C 
ATOM     11  C   UNL     1      -4.185 -10.668  14.189  0.00  0.00    +0.011 C 
ATOM     12  C   UNL     1      -2.660 -11.047  14.329  0.00  0.00    +0.021 C 
ATOM     13  C   UNL     1      -6.502 -10.261  15.249  0.00  0.00    +0.054 C 
ATOM     14  C   UNL     1      -4.486 -10.757  16.736  0.00  0.00    +0.010 C 
ATOM     15  C   UNL     1      -2.169 -10.677  15.757  0.00  0.00    +0.123 C 
ATOM     16  C   UNL     1      -4.794 -11.023  12.801  0.00  0.00    +0.049 C 
ATOM     17  C   UNL     1      -3.051 -11.248  16.863  0.00  0.00    +0.032 C 
ATOM     18  C   UNL     1      -5.483 -12.616  15.359  0.00  0.00    +0.012 C 
ATOM     19  C   UNL     1      -7.008 -10.262  13.829  0.00  0.00    +0.058 A 
ATOM     21  C   UNL     1      -1.832 -10.201  13.322  0.00  0.00    +0.016 C 
ATOM     22  C   UNL     1      -6.220 -10.589  12.745  0.00  0.00    +0.015 A 
ATOM     25  C   UNL     1      -8.469  -9.951  12.219  0.00  0.00    +0.165 A 
ATOM     27  C   UNL     1     -10.838  -9.232  12.016  0.00  0.00    +0.244 C 
ATOM     39  H   UNL     1      -9.517  -9.789  10.498  0.00  0.00    +0.157 HD
ENDROOT
BRANCH  15   2
ATOM      2  O   UNL     1      -0.830 -11.126  15.962  0.00  0.00    -0.391 OA
ATOM     36  H   UNL     1      -0.784 -12.055  15.680  0.00  0.00    +0.210 HD
ENDBRANCH  15   2
BRANCH  12  20
ATOM     20  C   UNL     1      -2.334 -12.521  14.000  0.00  0.00    +0.165 C 
BRANCH  20   3
ATOM      3  O   UNL     1      -1.115 -12.546  13.293  0.00  0.00    -0.394 OA
ATOM     37  H   UNL     1      -1.187 -11.902  12.568  0.00  0.00    +0.209 HD
ENDBRANCH  20   3
ENDBRANCH  12  20
BRANCH  13  23
ATOM     23  C   UNL     1      -7.603 -10.665  16.238  0.00  0.00    +0.106 C 
BRANCH  23  24
ATOM      4  O   UNL     1      -7.458  -9.172  18.137  0.00  0.00    -0.276 OA
ATOM      8  N   UNL     1      -9.167  -8.893  16.586  0.00  0.00    -0.311 N 
ATOM     24  C   UNL     1      -8.037  -9.508  17.107  0.00  0.00    +0.214 C 
ATOM     38  H   UNL     1      -9.583  -9.261  15.735  0.00  0.00    +0.149 HD
BRANCH   8  26
ATOM     26  C   UNL     1      -9.807  -7.758  17.209  0.00  0.00    +0.139 C 
BRANCH  26  28
ATOM     28  C   UNL     1     -10.989  -7.274  16.419  0.00  0.00    -0.030 A 
ATOM     30  C   UNL     1     -10.860  -6.171  15.576  0.00  0.00    +0.005 A 
ATOM     31  C   UNL     1     -12.215  -7.930  16.526  0.00  0.00    +0.005 A 
ATOM     32  C   UNL     1     -11.958  -5.722  14.841  0.00  0.00    +0.000 A 
ATOM     33  C   UNL     1     -13.313  -7.482  15.792  0.00  0.00    +0.000 A 
ATOM     34  C   UNL     1     -13.184  -6.378  14.949  0.00  0.00    +0.000 A 
ENDBRANCH  26  28
ENDBRANCH   8  26
ENDBRANCH  23  24
ENDBRANCH  13  23
BRANCH  27  29
ATOM     29  C   UNL     1     -11.851  -9.022  10.906  0.00  0.00    +0.255 C 
BRANCH  29   6
ATOM      6  O   UNL     1     -11.223  -8.550   9.732  0.00  0.00    -0.374 OA
ATOM     35  C   UNL     1     -11.501  -7.172   9.499  0.00  0.00    +0.194 C 
ENDBRANCH  29   6
ENDBRANCH  27  29
TORSDOF 9
ENDMDL
MODEL 3
REMARK VINA RESULT:      -6.2     25.720     29.193
REMARK  Name = 11867059
REMARK  12 active torsions:
REMARK  status: ('A' for Active; 'I' for Inactive)
REMARK    1  A    between atoms: O_2  and  C_15
REMARK    2  A    between atoms: O_3  and  C_20
REMARK    3  A    between atoms: O_6  and  C_29
REMARK    4  A    between atoms: O_6  and  C_35
REMARK    5  A    between atoms: N_8  and  C_26
REMARK    6  A    between atoms: C_10  and  C_18
REMARK    7  A    between atoms: C_12  and  C_20
REMARK    8  A    between atoms: C_12  and  C_21
REMARK    9  A    between atoms: C_13  and  C_23
REMARK   10  A    between atoms: C_23  and  C_24
REMARK   11  A    between atoms: C_26  and  C_28
REMARK   12  A    between atoms: C_27  and  C_29
REMARK                            x       y       z     vdW  Elec       q    Type
REMARK                         _______ _______ _______ _____ _____    ______ ____
ROOT
ATOM      1  S   UNL     1      20.359  -6.250   0.227  0.00  0.00    -0.057 S 
ATOM      5  O   UNL     1      17.487  -8.186  -2.896  0.00  0.00    -0.273 OA
ATOM      7  N   UNL     1      19.224  -8.457  -0.504  0.00  0.00    -0.229 NA
ATOM      9  N   UNL     1      18.744  -6.499  -1.825  0.00  0.00    -0.263 N 
ATOM     10  C   UNL     1      21.302 -10.266   2.195  0.00  0.00    -0.019 C 
ATOM     11  C   UNL     1      21.324  -8.989   3.146  0.00  0.00    +0.011 C 
ATOM     12  C   UNL     1      22.191  -9.089   4.460  0.00  0.00    +0.021 C 
ATOM     13  C   UNL     1      20.060 -10.119   1.201  0.00  0.00    +0.054 C 
ATOM     14  C   UNL     1      21.095 -11.543   3.051  0.00  0.00    +0.010 C 
ATOM     15  C   UNL     1      21.897 -10.442   5.166  0.00  0.00    +0.123 C 
ATOM     16  C   UNL     1      21.560  -7.680   2.337  0.00  0.00    +0.049 C 
ATOM     17  C   UNL     1      22.037 -11.646   4.242  0.00  0.00    +0.032 C 
ATOM     18  C   UNL     1      22.604 -10.425   1.372  0.00  0.00    +0.012 C 
ATOM     19  C   UNL     1      20.003  -8.735   0.605  0.00  0.00    +0.058 A 
ATOM     21  C   UNL     1      21.766  -7.955   5.435  0.00  0.00    +0.016 C 
ATOM     22  C   UNL     1      20.669  -7.653   1.142  0.00  0.00    +0.015 A 
ATOM     25  C   UNL     1      19.342  -7.180  -0.797  0.00  0.00    +0.165 A 
ATOM     27  C   UNL     1      17.872  -7.026  -2.793  0.00  0.00    +0.244 C 
ATOM     39  H   UNL     1      18.971  -5.508  -1.872  0.00  0.00    +0.157 HD
ENDROOT
BRANCH  15   2
ATOM      2  O   UNL     1      22.759 -10.623   6.288  0.00  0.00    -0.391 OA
ATOM     36  H   UNL     1      22.290 -11.176   6.936  0.00  0.00    +0.210 HD
ENDBRANCH  15   2
BRANCH  12  20
ATOM     20  C   UNL     1      23.709  -8.901   4.241  0.00  0.00    +0.165 C 
BRANCH  20   3
ATOM      3  O   UNL     1      24.218  -8.181   5.341  0.00  0.00    -0.394 OA
ATOM     37  H   UNL     1      24.109  -8.740   6.129  0.00  0.00    +0.209 HD
ENDBRANCH  20   3
ENDBRANCH  12  20
BRANCH  13  23
ATOM     23  C   UNL     1      19.979 -11.202   0.117  0.00  0.00    +0.106 C 
BRANCH  23  24
ATOM      4  O   UNL     1      18.744 -13.271   0.338  0.00  0.00    -0.276 OA
ATOM      8  N   UNL     1      17.594 -11.253   0.256  0.00  0.00    -0.311 N 
ATOM     24  C   UNL     1      18.733 -12.046   0.251  0.00  0.00    +0.214 C 
ATOM     38  H   UNL     1      17.692 -10.245   0.157  0.00  0.00    +0.149 HD
BRANCH   8  26
ATOM     26  C   UNL     1      16.258 -11.789   0.368  0.00  0.00    +0.139 C 
BRANCH  26  28
ATOM     28  C   UNL     1      15.913 -12.148   1.784  0.00  0.00    -0.030 A 
ATOM     30  C   UNL     1      15.252 -13.345   2.060  0.00  0.00    +0.005 A 
ATOM     31  C   UNL     1      16.255 -11.285   2.826  0.00  0.00    +0.005 A 
ATOM     32  C   UNL     1      14.933 -13.680   3.376  0.00  0.00    +0.000 A 
ATOM     33  C   UNL     1      15.934 -11.619   4.142  0.00  0.00    +0.000 A 
ATOM     34  C   UNL     1      15.274 -12.816   4.417  0.00  0.00    +0.000 A 
ENDBRANCH  26  28
ENDBRANCH   8  26
ENDBRANCH  23  24
ENDBRANCH  13  23
BRANCH  27  29
ATOM     29  C   UNL     1      17.418  -5.954  -3.767  0.00  0.00    +0.255 C 
BRANCH  29   6
ATOM      6  O   UNL     1      16.426  -5.133  -3.188  0.00  0.00    -0.374 OA
ATOM     35  C   UNL     1      15.151  -5.334  -3.792  0.00  0.00    +0.194 C 
ENDBRANCH  29   6
ENDBRANCH  27  29
TORSDOF 9
ENDMDL
MODEL 4
REMARK VINA RESULT:      -6.1     16.479     20.444
REMARK  Name = 11867059
REMARK  12 active torsions:
REMARK  status: ('A' for Active; 'I' for Inactive)
REMARK    1  A    between atoms: O_2  and  C_15
REMARK    2  A    between atoms: O_3  and  C_20
REMARK    3  A    between atoms: O_6  and  C_29
REMARK    4  A    between atoms: O_6  and  C_35
REMARK    5  A    between atoms: N_8  and  C_26
REMARK    6  A    between atoms: C_10  and  C_18
REMARK    7  A    between atoms: C_12  and  C_20
REMARK    8  A    between atoms: C_12  and  C_21
REMARK    9  A    between atoms: C_13  and  C_23
REMARK   10  A    between atoms: C_23  and  C_24
REMARK   11  A    between atoms: C_26  and  C_28
REMARK   12  A    between atoms: C_27  and  C_29
REMARK                            x       y       z     vdW  Elec       q    Type
REMARK                         _______ _______ _______ _____ _____    ______ ____
ROOT
ATOM      1  S   UNL     1      15.063   8.034   6.085  0.00  0.00    -0.057 S 
ATOM      5  O   UNL     1      12.723   6.514   2.349  0.00  0.00    -0.273 OA
ATOM      7  N   UNL     1      15.231   7.558   3.549  0.00  0.00    -0.229 NA
ATOM      9  N   UNL     1      13.110   7.109   4.601  0.00  0.00    -0.263 N 
ATOM     10  C   UNL     1      18.757   9.117   3.620  0.00  0.00    -0.019 C 
ATOM     11  C   UNL     1      19.019   8.649   5.120  0.00  0.00    +0.011 C 
ATOM     12  C   UNL     1      20.360   9.131   5.797  0.00  0.00    +0.021 C 
ATOM     13  C   UNL     1      17.614   8.185   3.006  0.00  0.00    +0.054 C 
ATOM     14  C   UNL     1      20.050   8.919   2.786  0.00  0.00    +0.010 C 
ATOM     15  C   UNL     1      21.541   8.905   4.812  0.00  0.00    +0.123 C 
ATOM     16  C   UNL     1      17.758   8.856   6.009  0.00  0.00    +0.049 C 
ATOM     17  C   UNL     1      21.296   9.505   3.432  0.00  0.00    +0.032 C 
ATOM     18  C   UNL     1      18.323  10.600   3.520  0.00  0.00    +0.012 C 
ATOM     19  C   UNL     1      16.457   8.043   3.963  0.00  0.00    +0.058 A 
ATOM     21  C   UNL     1      20.633   8.260   7.056  0.00  0.00    +0.016 C 
ATOM     22  C   UNL     1      16.550   8.332   5.309  0.00  0.00    +0.015 A 
ATOM     25  C   UNL     1      14.417   7.518   4.581  0.00  0.00    +0.165 A 
ATOM     27  C   UNL     1      12.353   6.641   3.512  0.00  0.00    +0.244 C 
ATOM     39  H   UNL     1      12.659   7.158   5.512  0.00  0.00    +0.157 HD
ENDROOT
BRANCH  15   2
ATOM      2  O   UNL     1      22.749   9.449   5.341  0.00  0.00    -0.391 OA
ATOM     36  H   UNL     1      22.510  10.196   5.915  0.00  0.00    +0.210 HD
ENDBRANCH  15   2
BRANCH  12  20
ATOM     20  C   UNL     1      20.334  10.592   6.300  0.00  0.00    +0.165 C 
BRANCH  20   3
ATOM      3  O   UNL     1      21.095  10.653   7.486  0.00  0.00    -0.394 OA
ATOM     37  H   UNL     1      20.660  11.291   8.076  0.00  0.00    +0.209 HD
ENDBRANCH  20   3
ENDBRANCH  12  20
BRANCH  13  23
ATOM     23  C   UNL     1      17.138   8.598   1.607  0.00  0.00    +0.106 C 
BRANCH  23  24
ATOM      4  O   UNL     1      18.273   7.506  -0.229  0.00  0.00    -0.276 OA
ATOM      8  N   UNL     1      16.389   6.516   0.705  0.00  0.00    -0.311 N 
ATOM     24  C   UNL     1      17.357   7.504   0.588  0.00  0.00    +0.214 C 
ATOM     38  H   UNL     1      15.658   6.619   1.404  0.00  0.00    +0.149 HD
BRANCH   8  26
ATOM     26  C   UNL     1      16.346   5.348  -0.143  0.00  0.00    +0.139 C 
BRANCH  26  28
ATOM     28  C   UNL     1      15.111   4.527   0.091  0.00  0.00    -0.030 A 
ATOM     30  C   UNL     1      14.239   4.261  -0.964  0.00  0.00    +0.005 A 
ATOM     31  C   UNL     1      14.837   4.028   1.365  0.00  0.00    +0.005 A 
ATOM     32  C   UNL     1      13.092   3.496  -0.746  0.00  0.00    +0.000 A 
ATOM     33  C   UNL     1      13.690   3.265   1.583  0.00  0.00    +0.000 A 
ATOM     34  C   UNL     1      12.818   2.999   0.528  0.00  0.00    +0.000 A 
ENDBRANCH  26  28
ENDBRANCH   8  26
ENDBRANCH  23  24
ENDBRANCH  13  23
BRANCH  27  29
ATOM     29  C   UNL     1      10.940   6.283   3.935  0.00  0.00    +0.255 C 
BRANCH  29   6
ATOM      6  O   UNL     1      10.952   5.398   5.035  0.00  0.00    -0.374 OA
ATOM     35  C   UNL     1       9.635   5.047   5.448  0.00  0.00    +0.194 C 
ENDBRANCH  29   6
ENDBRANCH  27  29
TORSDOF 9
ENDMDL
MODEL 5
REMARK VINA RESULT:      -6.1     27.904     31.147
REMARK  Name = 11867059
REMARK  12 active torsions:
REMARK  status: ('A' for Active; 'I' for Inactive)
REMARK    1  A    between atoms: O_2  and  C_15
REMARK    2  A    between atoms: O_3  and  C_20
REMARK    3  A    between atoms: O_6  and  C_29
REMARK    4  A    between atoms: O_6  and  C_35
REMARK    5  A    between atoms: N_8  and  C_26
REMARK    6  A    between atoms: C_10  and  C_18
REMARK    7  A    between atoms: C_12  and  C_20
REMARK    8  A    between atoms: C_12  and  C_21
REMARK    9  A    between atoms: C_13  and  C_23
REMARK   10  A    between atoms: C_23  and  C_24
REMARK   11  A    between atoms: C_26  and  C_28
REMARK   12  A    between atoms: C_27  and  C_29
REMARK                            x       y       z     vdW  Elec       q    Type
REMARK                         _______ _______ _______ _____ _____    ______ ____
ROOT
ATOM      1  S   UNL     1      -4.573  -9.252   9.618  0.00  0.00    -0.057 S 
ATOM      5  O   UNL     1      -8.894  -7.609   9.010  0.00  0.00    -0.273 OA
ATOM      7  N   UNL     1      -6.858  -8.869  10.766  0.00  0.00    -0.229 NA
ATOM      9  N   UNL     1      -6.667  -8.175   8.466  0.00  0.00    -0.263 N 
ATOM     10  C   UNL     1      -5.495 -10.778  13.827  0.00  0.00    -0.019 C 
ATOM     11  C   UNL     1      -4.000 -10.297  13.560  0.00  0.00    +0.011 C 
ATOM     12  C   UNL     1      -2.878 -10.894  14.493  0.00  0.00    +0.021 C 
ATOM     13  C   UNL     1      -6.480  -9.752  13.099  0.00  0.00    +0.054 C 
ATOM     14  C   UNL     1      -5.785 -10.739  15.350  0.00  0.00    +0.010 C 
ATOM     15  C   UNL     1      -3.349 -10.819  15.973  0.00  0.00    +0.123 C 
ATOM     16  C   UNL     1      -3.648 -10.348  12.044  0.00  0.00    +0.049 C 
ATOM     17  C   UNL     1      -4.728 -11.431  16.197  0.00  0.00    +0.032 C 
ATOM     18  C   UNL     1      -5.767 -12.211  13.306  0.00  0.00    +0.012 C 
ATOM     19  C   UNL     1      -6.022  -9.465  11.692  0.00  0.00    +0.058 A 
ATOM     21  C   UNL     1      -1.598 -10.020  14.370  0.00  0.00    +0.016 C 
ATOM     22  C   UNL     1      -4.742  -9.724  11.246  0.00  0.00    +0.015 A 
ATOM     25  C   UNL     1      -6.203  -8.716   9.636  0.00  0.00    +0.165 A 
ATOM     27  C   UNL     1      -7.954  -7.664   8.223  0.00  0.00    +0.244 C 
ATOM     39  H   UNL     1      -5.991  -8.151   7.706  0.00  0.00    +0.157 HD
ENDROOT
BRANCH  15   2
ATOM      2  O   UNL     1      -2.414 -11.469  16.833  0.00  0.00    -0.391 OA
ATOM     36  H   UNL     1      -2.916 -12.042  17.436  0.00  0.00    +0.210 HD
ENDBRANCH  15   2
BRANCH  12  20
ATOM     20  C   UNL     1      -2.438 -12.330  14.128  0.00  0.00    +0.165 C 
BRANCH  20   3
ATOM      3  O   UNL     1      -1.059 -12.442  14.403  0.00  0.00    -0.394 OA
ATOM     37  H   UNL     1      -0.589 -12.382  13.555  0.00  0.00    +0.209 HD
ENDBRANCH  20   3
ENDBRANCH  12  20
BRANCH  13  23
ATOM     23  C   UNL     1      -7.960 -10.154  13.137  0.00  0.00    +0.106 C 
BRANCH  23  24
ATOM      4  O   UNL     1      -8.705  -8.805  15.002  0.00  0.00    -0.276 OA
ATOM      8  N   UNL     1      -8.969 -11.112  15.080  0.00  0.00    -0.311 N 
ATOM     24  C   UNL     1      -8.578  -9.916  14.495  0.00  0.00    +0.214 C 
ATOM     38  H   UNL     1      -8.800 -11.984  14.584  0.00  0.00    +0.149 HD
BRANCH   8  26
ATOM     26  C   UNL     1      -9.587 -11.191  16.383  0.00  0.00    +0.139 C 
BRANCH  26  28
ATOM     28  C   UNL     1      -8.577 -11.404  17.473  0.00  0.00    -0.030 A 
ATOM     30  C   UNL     1      -8.132 -12.692  17.770  0.00  0.00    +0.005 A 
ATOM     31  C   UNL     1      -8.081 -10.314  18.187  0.00  0.00    +0.005 A 
ATOM     32  C   UNL     1      -7.192 -12.890  18.782  0.00  0.00    +0.000 A 
ATOM     33  C   UNL     1      -7.142 -10.511  19.200  0.00  0.00    +0.000 A 
ATOM     34  C   UNL     1      -6.697 -11.799  19.497  0.00  0.00    +0.000 A 
ENDBRANCH  26  28
ENDBRANCH   8  26
ENDBRANCH  23  24
ENDBRANCH  13  23
BRANCH  27  29
ATOM     29  C   UNL     1      -8.084  -7.151   6.801  0.00  0.00    +0.255 C 
BRANCH  29   6
ATOM      6  O   UNL     1      -8.351  -8.210   5.905  0.00  0.00    -0.374 OA
ATOM     35  C   UNL     1      -7.322  -8.352   4.930  0.00  0.00    +0.194 C 
ENDBRANCH  29   6
ENDBRANCH  27  29
TORSDOF 9
ENDMDL
MODEL 6
REMARK VINA RESULT:      -5.9      2.303      5.028
REMARK  Name = 11867059
REMARK  12 active torsions:
REMARK  status: ('A' for Active; 'I' for Inactive)
REMARK    1  A    between atoms: O_2  and  C_15
REMARK    2  A    between atoms: O_3  and  C_20
REMARK    3  A    between atoms: O_6  and  C_29
REMARK    4  A    between atoms: O_6  and  C_35
REMARK    5  A    between atoms: N_8  and  C_26
REMARK    6  A    between atoms: C_10  and  C_18
REMARK    7  A    between atoms: C_12  and  C_20
REMARK    8  A    between atoms: C_12  and  C_21
REMARK    9  A    between atoms: C_13  and  C_23
REMARK   10  A    between atoms: C_23  and  C_24
REMARK   11  A    between atoms: C_26  and  C_28
REMARK   12  A    between atoms: C_27  and  C_29
REMARK                            x       y       z     vdW  Elec       q    Type
REMARK                         _______ _______ _______ _____ _____    ______ ____
ROOT
ATOM      1  S   UNL     1      16.898   5.875  19.791  0.00  0.00    -0.057 S 
ATOM      5  O   UNL     1      21.131   7.353  21.074  0.00  0.00    -0.273 OA
ATOM      7  N   UNL     1      18.205   7.823  20.880  0.00  0.00    -0.229 NA
ATOM      9  N   UNL     1      19.492   5.912  20.171  0.00  0.00    -0.263 N 
ATOM     10  C   UNL     1      14.919   9.841  20.907  0.00  0.00    -0.019 C 
ATOM     11  C   UNL     1      14.025   8.533  21.071  0.00  0.00    +0.011 C 
ATOM     12  C   UNL     1      12.460   8.725  21.026  0.00  0.00    +0.021 C 
ATOM     13  C   UNL     1      16.394   9.497  21.415  0.00  0.00    +0.054 C 
ATOM     14  C   UNL     1      14.346  10.973  21.800  0.00  0.00    +0.010 C 
ATOM     15  C   UNL     1      12.064   9.922  21.935  0.00  0.00    +0.123 C 
ATOM     16  C   UNL     1      14.542   7.375  20.169  0.00  0.00    +0.049 C 
ATOM     17  C   UNL     1      12.850  11.193  21.632  0.00  0.00    +0.032 C 
ATOM     18  C   UNL     1      14.982  10.347  19.445  0.00  0.00    +0.012 C 
ATOM     19  C   UNL     1      16.870   8.184  20.847  0.00  0.00    +0.058 A 
ATOM     21  C   UNL     1      11.777   7.455  21.608  0.00  0.00    +0.016 C 
ATOM     22  C   UNL     1      16.020   7.239  20.310  0.00  0.00    +0.015 A 
ATOM     25  C   UNL     1      18.337   6.630  20.342  0.00  0.00    +0.165 A 
ATOM     27  C   UNL     1      20.792   6.303  20.538  0.00  0.00    +0.244 C 
ATOM     39  H   UNL     1      19.371   5.003  19.731  0.00  0.00    +0.157 HD
ENDROOT
BRANCH  15   2
ATOM      2  O   UNL     1      10.671  10.205  21.816  0.00  0.00    -0.391 OA
ATOM     36  H   UNL     1      10.567  11.171  21.792  0.00  0.00    +0.210 HD
ENDBRANCH  15   2
BRANCH  12  20
ATOM     20  C   UNL     1      11.877   8.896  19.605  0.00  0.00    +0.165 C 
BRANCH  20   3
ATOM      3  O   UNL     1      10.554   8.410  19.621  0.00  0.00    -0.394 OA
ATOM     37  H   UNL     1      10.104   8.817  20.380  0.00  0.00    +0.209 HD
ENDBRANCH  20   3
ENDBRANCH  12  20
BRANCH  13  23
ATOM     23  C   UNL     1      17.423  10.613  21.189  0.00  0.00    +0.106 C 
BRANCH  23  24
ATOM      4  O   UNL     1      17.767  11.969  23.163  0.00  0.00    -0.276 OA
ATOM      8  N   UNL     1      19.179  10.169  22.747  0.00  0.00    -0.311 N 
ATOM     24  C   UNL     1      18.114  11.015  22.471  0.00  0.00    +0.214 C 
ATOM     38  H   UNL     1      19.396   9.418  22.098  0.00  0.00    +0.149 HD
BRANCH   8  26
ATOM     26  C   UNL     1      20.024  10.317  23.909  0.00  0.00    +0.139 C 
BRANCH  26  28
ATOM     28  C   UNL     1      20.938   9.140  24.094  0.00  0.00    -0.030 A 
ATOM     30  C   UNL     1      22.319   9.308  24.003  0.00  0.00    +0.005 A 
ATOM     31  C   UNL     1      20.405   7.878  24.359  0.00  0.00    +0.005 A 
ATOM     32  C   UNL     1      23.169   8.214  24.176  0.00  0.00    +0.000 A 
ATOM     33  C   UNL     1      21.253   6.785  24.531  0.00  0.00    +0.000 A 
ATOM     34  C   UNL     1      22.635   6.953  24.440  0.00  0.00    +0.000 A 
ENDBRANCH  26  28
ENDBRANCH   8  26
ENDBRANCH  23  24
ENDBRANCH  13  23
BRANCH  27  29
ATOM     29  C   UNL     1      21.809   5.233  20.184  0.00  0.00    +0.255 C 
BRANCH  29   6
ATOM      6  O   UNL     1      22.421   4.715  21.347  0.00  0.00    -0.374 OA
ATOM     35  C   UNL     1      21.942   3.411  21.663  0.00  0.00    +0.194 C 
ENDBRANCH  29   6
ENDBRANCH  27  29
TORSDOF 9
ENDMDL
MODEL 7
REMARK VINA RESULT:      -5.9     28.456     31.523
REMARK  Name = 11867059
REMARK  12 active torsions:
REMARK  status: ('A' for Active; 'I' for Inactive)
REMARK    1  A    between atoms: O_2  and  C_15
REMARK    2  A    between atoms: O_3  and  C_20
REMARK    3  A    between atoms: O_6  and  C_29
REMARK    4  A    between atoms: O_6  and  C_35
REMARK    5  A    between atoms: N_8  and  C_26
REMARK    6  A    between atoms: C_10  and  C_18
REMARK    7  A    between atoms: C_12  and  C_20
REMARK    8  A    between atoms: C_12  and  C_21
REMARK    9  A    between atoms: C_13  and  C_23
REMARK   10  A    between atoms: C_23  and  C_24
REMARK   11  A    between atoms: C_26  and  C_28
REMARK   12  A    between atoms: C_27  and  C_29
REMARK                            x       y       z     vdW  Elec       q    Type
REMARK                         _______ _______ _______ _____ _____    ______ ____
ROOT
ATOM      1  S   UNL     1      -8.939 -10.110  13.217  0.00  0.00    -0.057 S 
ATOM      5  O   UNL     1      -4.833  -8.944  11.337  0.00  0.00    -0.273 OA
ATOM      7  N   UNL     1      -6.392  -9.974  13.645  0.00  0.00    -0.229 NA
ATOM      9  N   UNL     1      -7.168  -9.263  11.478  0.00  0.00    -0.263 N 
ATOM     10  C   UNL     1      -7.086 -10.971  17.306  0.00  0.00    -0.019 C 
ATOM     11  C   UNL     1      -8.362 -11.838  16.910  0.00  0.00    +0.011 C 
ATOM     12  C   UNL     1      -9.204 -12.454  18.092  0.00  0.00    +0.021 C 
ATOM     13  C   UNL     1      -6.164 -10.830  16.008  0.00  0.00    +0.054 C 
ATOM     14  C   UNL     1      -6.278 -11.714  18.402  0.00  0.00    +0.010 C 
ATOM     15  C   UNL     1      -8.240 -13.115  19.118  0.00  0.00    +0.123 C 
ATOM     16  C   UNL     1      -9.226 -11.120  15.832  0.00  0.00    +0.049 C 
ATOM     17  C   UNL     1      -7.121 -12.186  19.577  0.00  0.00    +0.032 C 
ATOM     18  C   UNL     1      -7.456  -9.562  17.831  0.00  0.00    +0.012 C 
ATOM     19  C   UNL     1      -6.983 -10.455  14.799  0.00  0.00    +0.058 A 
ATOM     21  C   UNL     1     -10.122 -13.576  17.530  0.00  0.00    +0.016 C 
ATOM     22  C   UNL     1      -8.353 -10.611  14.735  0.00  0.00    +0.015 A 
ATOM     25  C   UNL     1      -7.327  -9.750  12.749  0.00  0.00    +0.165 A 
ATOM     27  C   UNL     1      -5.961  -8.897  10.857  0.00  0.00    +0.244 C 
ATOM     39  H   UNL     1      -8.029  -9.166  10.945  0.00  0.00    +0.157 HD
ENDROOT
BRANCH  15   2
ATOM      2  O   UNL     1      -8.959 -13.568  20.264  0.00  0.00    -0.391 OA
ATOM     36  H   UNL     1      -9.163 -12.791  20.811  0.00  0.00    +0.210 HD
ENDBRANCH  15   2
BRANCH  12  20
ATOM     20  C   UNL     1     -10.152 -11.454  18.793  0.00  0.00    +0.165 C 
BRANCH  20   3
ATOM      3  O   UNL     1     -11.277 -12.172  19.247  0.00  0.00    -0.394 OA
ATOM     37  H   UNL     1     -11.740 -12.512  18.463  0.00  0.00    +0.209 HD
ENDBRANCH  20   3
ENDBRANCH  12  20
BRANCH  13  23
ATOM     23  C   UNL     1      -4.958  -9.897  16.181  0.00  0.00    +0.106 C 
BRANCH  23  24
ATOM      4  O   UNL     1      -3.043 -11.302  16.643  0.00  0.00    -0.276 OA
ATOM      8  N   UNL     1      -3.254 -10.302  14.556  0.00  0.00    -0.311 N 
ATOM     24  C   UNL     1      -3.655 -10.588  15.853  0.00  0.00    +0.214 C 
ATOM     38  H   UNL     1      -3.824  -9.681  13.987  0.00  0.00    +0.149 HD
BRANCH   8  26
ATOM     26  C   UNL     1      -2.042 -10.824  13.970  0.00  0.00    +0.139 C 
BRANCH  26  28
ATOM     28  C   UNL     1      -2.280 -12.113  13.238  0.00  0.00    -0.030 A 
ATOM     30  C   UNL     1      -3.066 -12.126  12.086  0.00  0.00    +0.005 A 
ATOM     31  C   UNL     1      -1.712 -13.297  13.707  0.00  0.00    +0.005 A 
ATOM     32  C   UNL     1      -3.286 -13.324  11.404  0.00  0.00    +0.000 A 
ATOM     33  C   UNL     1      -1.933 -14.495  13.027  0.00  0.00    +0.000 A 
ATOM     34  C   UNL     1      -2.719 -14.508  11.875  0.00  0.00    +0.000 A 
ENDBRANCH  26  28
ENDBRANCH   8  26
ENDBRANCH  23  24
ENDBRANCH  13  23
BRANCH  27  29
ATOM     29  C   UNL     1      -6.196  -8.402   9.442  0.00  0.00    +0.255 C 
BRANCH  29   6
ATOM      6  O   UNL     1      -6.363  -9.485   8.550  0.00  0.00    -0.374 OA
ATOM     35  C   UNL     1      -5.143  -9.829   7.899  0.00  0.00    +0.194 C 
ENDBRANCH  29   6
ENDBRANCH  27  29
TORSDOF 9
ENDMDL
MODEL 8
REMARK VINA RESULT:      -5.9     29.667     32.978
REMARK  Name = 11867059
REMARK  12 active torsions:
REMARK  status: ('A' for Active; 'I' for Inactive)
REMARK    1  A    between atoms: O_2  and  C_15
REMARK    2  A    between atoms: O_3  and  C_20
REMARK    3  A    between atoms: O_6  and  C_29
REMARK    4  A    between atoms: O_6  and  C_35
REMARK    5  A    between atoms: N_8  and  C_26
REMARK    6  A    between atoms: C_10  and  C_18
REMARK    7  A    between atoms: C_12  and  C_20
REMARK    8  A    between atoms: C_12  and  C_21
REMARK    9  A    between atoms: C_13  and  C_23
REMARK   10  A    between atoms: C_23  and  C_24
REMARK   11  A    between atoms: C_26  and  C_28
REMARK   12  A    between atoms: C_27  and  C_29
REMARK                            x       y       z     vdW  Elec       q    Type
REMARK                         _______ _______ _______ _____ _____    ______ ____
ROOT
ATOM      1  S   UNL     1     -10.277 -12.971  19.931  0.00  0.00    -0.057 S 
ATOM      5  O   UNL     1     -13.655  -9.858  19.128  0.00  0.00    -0.273 OA
ATOM      7  N   UNL     1     -10.861 -10.769  18.706  0.00  0.00    -0.229 NA
ATOM      9  N   UNL     1     -12.615 -11.785  20.010  0.00  0.00    -0.263 N 
ATOM     10  C   UNL     1      -7.151 -10.505  17.686  0.00  0.00    -0.019 C 
ATOM     11  C   UNL     1      -6.969 -12.087  17.644  0.00  0.00    +0.011 C 
ATOM     12  C   UNL     1      -5.514 -12.633  17.374  0.00  0.00    +0.021 C 
ATOM     13  C   UNL     1      -8.708 -10.184  17.527  0.00  0.00    +0.054 C 
ATOM     14  C   UNL     1      -6.396  -9.867  16.491  0.00  0.00    +0.010 C 
ATOM     15  C   UNL     1      -4.889 -11.858  16.181  0.00  0.00    +0.123 C 
ATOM     16  C   UNL     1      -7.685 -12.774  18.843  0.00  0.00    +0.049 C 
ATOM     17  C   UNL     1      -4.958 -10.343  16.345  0.00  0.00    +0.032 C 
ATOM     18  C   UNL     1      -6.627  -9.874  18.999  0.00  0.00    +0.012 C 
ATOM     19  C   UNL     1      -9.538 -11.062  18.429  0.00  0.00    +0.058 A 
ATOM     21  C   UNL     1      -5.604 -14.129  16.958  0.00  0.00    +0.016 C 
ATOM     22  C   UNL     1      -9.065 -12.228  18.994  0.00  0.00    +0.015 A 
ATOM     25  C   UNL     1     -11.348 -11.702  19.495  0.00  0.00    +0.165 A 
ATOM     27  C   UNL     1     -13.672 -10.882  19.804  0.00  0.00    +0.244 C 
ATOM     39  H   UNL     1     -12.785 -12.595  20.601  0.00  0.00    +0.157 HD
ENDROOT
BRANCH  15   2
ATOM      2  O   UNL     1      -3.526 -12.236  15.993  0.00  0.00    -0.391 OA
ATOM     36  H   UNL     1      -3.476 -12.765  15.179  0.00  0.00    +0.210 HD
ENDBRANCH  15   2
BRANCH  12  20
ATOM     20  C   UNL     1      -4.579 -12.599  18.604  0.00  0.00    +0.165 C 
BRANCH  20   3
ATOM      3  O   UNL     1      -3.944 -13.854  18.697  0.00  0.00    -0.394 OA
ATOM     37  H   UNL     1      -3.279 -13.790  19.403  0.00  0.00    +0.209 HD
ENDBRANCH  20   3
ENDBRANCH  12  20
BRANCH  13  23
ATOM     23  C   UNL     1      -9.074  -8.703  17.692  0.00  0.00    +0.106 C 
BRANCH  23  24
ATOM      4  O   UNL     1      -9.380  -8.591  15.294  0.00  0.00    -0.276 OA
ATOM      8  N   UNL     1     -10.257  -6.912  16.641  0.00  0.00    -0.311 N 
ATOM     24  C   UNL     1      -9.570  -8.094  16.401  0.00  0.00    +0.214 C 
ATOM     38  H   UNL     1     -10.343  -6.575  17.596  0.00  0.00    +0.149 HD
BRANCH   8  26
ATOM     26  C   UNL     1     -10.841  -6.111  15.591  0.00  0.00    +0.139 C 
BRANCH  26  28
ATOM     28  C   UNL     1     -12.294  -6.425  15.385  0.00  0.00    -0.030 A 
ATOM     30  C   UNL     1     -12.906  -7.424  16.141  0.00  0.00    +0.005 A 
ATOM     31  C   UNL     1     -13.034  -5.715  14.440  0.00  0.00    +0.005 A 
ATOM     32  C   UNL     1     -14.258  -7.715  15.951  0.00  0.00    +0.000 A 
ATOM     33  C   UNL     1     -14.385  -6.006  14.249  0.00  0.00    +0.000 A 
ATOM     34  C   UNL     1     -14.997  -7.005  15.005  0.00  0.00    +0.000 A 
ENDBRANCH  26  28
ENDBRANCH   8  26
ENDBRANCH  23  24
ENDBRANCH  13  23
BRANCH  27  29
ATOM     29  C   UNL     1     -14.923 -11.318  20.544  0.00  0.00    +0.255 C 
BRANCH  29   6
ATOM      6  O   UNL     1     -14.742 -11.219  21.942  0.00  0.00    -0.374 OA
ATOM     35  C   UNL     1     -15.943 -11.501  22.654  0.00  0.00    +0.194 C 
ENDBRANCH  29   6
ENDBRANCH  27  29
TORSDOF 9
ENDMDL
MODEL 9
REMARK VINA RESULT:      -5.8     30.912     33.626
REMARK  Name = 11867059
REMARK  12 active torsions:
REMARK  status: ('A' for Active; 'I' for Inactive)
REMARK    1  A    between atoms: O_2  and  C_15
REMARK    2  A    between atoms: O_3  and  C_20
REMARK    3  A    between atoms: O_6  and  C_29
REMARK    4  A    between atoms: O_6  and  C_35
REMARK    5  A    between atoms: N_8  and  C_26
REMARK    6  A    between atoms: C_10  and  C_18
REMARK    7  A    between atoms: C_12  and  C_20
REMARK    8  A    between atoms: C_12  and  C_21
REMARK    9  A    between atoms: C_13  and  C_23
REMARK   10  A    between atoms: C_23  and  C_24
REMARK   11  A    between atoms: C_26  and  C_28
REMARK   12  A    between atoms: C_27  and  C_29
REMARK                            x       y       z     vdW  Elec       q    Type
REMARK                         _______ _______ _______ _____ _____    ______ ____
ROOT
ATOM      1  S   UNL     1      -6.332  -8.635  38.936  0.00  0.00    -0.057 S 
ATOM      5  O   UNL     1     -10.662  -8.291  40.634  0.00  0.00    -0.273 OA
ATOM      7  N   UNL     1      -7.805  -7.489  40.727  0.00  0.00    -0.229 NA
ATOM      9  N   UNL     1      -8.907  -9.031  39.239  0.00  0.00    -0.263 N 
ATOM     10  C   UNL     1      -4.588  -5.959  42.205  0.00  0.00    -0.019 C 
ATOM     11  C   UNL     1      -3.869  -5.903  40.786  0.00  0.00    +0.011 C 
ATOM     12  C   UNL     1      -2.362  -5.436  40.764  0.00  0.00    +0.021 C 
ATOM     13  C   UNL     1      -6.165  -6.017  41.957  0.00  0.00    +0.054 C 
ATOM     14  C   UNL     1      -4.265  -4.666  42.999  0.00  0.00    +0.010 C 
ATOM     15  C   UNL     1      -2.207  -4.162  41.641  0.00  0.00    +0.123 C 
ATOM     16  C   UNL     1      -4.137  -7.195  39.960  0.00  0.00    +0.049 C 
ATOM     17  C   UNL     1      -2.782  -4.324  43.044  0.00  0.00    +0.032 C 
ATOM     18  C   UNL     1      -4.154  -7.182  43.051  0.00  0.00    +0.012 C 
ATOM     19  C   UNL     1      -6.510  -7.032  40.897  0.00  0.00    +0.058 A 
ATOM     21  C   UNL     1      -1.973  -5.047  39.310  0.00  0.00    +0.016 C 
ATOM     22  C   UNL     1      -5.589  -7.533  40.000  0.00  0.00    +0.015 A 
ATOM     25  C   UNL     1      -7.827  -8.344  39.729  0.00  0.00    +0.165 A 
ATOM     27  C   UNL     1     -10.231  -8.968  39.707  0.00  0.00    +0.244 C 
ATOM     39  H   UNL     1      -8.704  -9.646  38.455  0.00  0.00    +0.157 HD
ENDROOT
BRANCH  15   2
ATOM      2  O   UNL     1      -0.835  -3.788  41.749  0.00  0.00    -0.391 OA
ATOM     36  H   UNL     1      -0.467  -4.235  42.530  0.00  0.00    +0.210 HD
ENDBRANCH  15   2
BRANCH  12  20
ATOM     20  C   UNL     1      -1.349  -6.523  41.188  0.00  0.00    +0.165 C 
BRANCH  20   3
ATOM      3  O   UNL     1      -0.112  -6.221  40.582  0.00  0.00    -0.394 OA
ATOM     37  H   UNL     1      -0.214  -6.369  39.627  0.00  0.00    +0.209 HD
ENDBRANCH  20   3
ENDBRANCH  12  20
BRANCH  13  23
ATOM     23  C   UNL     1      -7.003  -6.221  43.225  0.00  0.00    +0.106 C 
BRANCH  23  24
ATOM      4  O   UNL     1      -9.205  -5.468  43.889  0.00  0.00    -0.276 OA
ATOM      8  N   UNL     1      -7.828  -4.049  42.667  0.00  0.00    -0.311 N 
ATOM     24  C   UNL     1      -8.144  -5.234  43.316  0.00  0.00    +0.214 C 
ATOM     38  H   UNL     1      -6.927  -3.963  42.205  0.00  0.00    +0.149 HD
BRANCH   8  26
ATOM     26  C   UNL     1      -8.732  -2.926  42.589  0.00  0.00    +0.139 C 
BRANCH  26  28
ATOM     28  C   UNL     1      -9.336  -2.784  41.221  0.00  0.00    -0.030 A 
ATOM     30  C   UNL     1      -8.960  -1.722  40.399  0.00  0.00    +0.005 A 
ATOM     31  C   UNL     1     -10.272  -3.716  40.772  0.00  0.00    +0.005 A 
ATOM     32  C   UNL     1      -9.521  -1.591  39.128  0.00  0.00    +0.000 A 
ATOM     33  C   UNL     1     -10.833  -3.584  39.502  0.00  0.00    +0.000 A 
ATOM     34  C   UNL     1     -10.457  -2.522  38.680  0.00  0.00    +0.000 A 
ENDBRANCH  26  28
ENDBRANCH   8  26
ENDBRANCH  23  24
ENDBRANCH  13  23
BRANCH  27  29
ATOM     29  C   UNL     1     -11.142  -9.879  38.905  0.00  0.00    +0.255 C 
BRANCH  29   6
ATOM      6  O   UNL     1     -10.413 -10.945  38.332  0.00  0.00    -0.374 OA
ATOM     35  C   UNL     1     -10.756 -11.148  36.964  0.00  0.00    +0.194 C 
ENDBRANCH  29   6
ENDBRANCH  27  29
TORSDOF 9
ENDMDL
MODEL 10
REMARK VINA RESULT:      -5.8     13.526     16.671
REMARK  Name = 11867059
REMARK  12 active torsions:
REMARK  status: ('A' for Active; 'I' for Inactive)
REMARK    1  A    between atoms: O_2  and  C_15
REMARK    2  A    between atoms: O_3  and  C_20
REMARK    3  A    between atoms: O_6  and  C_29
REMARK    4  A    between atoms: O_6  and  C_35
REMARK    5  A    between atoms: N_8  and  C_26
REMARK    6  A    between atoms: C_10  and  C_18
REMARK    7  A    between atoms: C_12  and  C_20
REMARK    8  A    between atoms: C_12  and  C_21
REMARK    9  A    between atoms: C_13  and  C_23
REMARK   10  A    between atoms: C_23  and  C_24
REMARK   11  A    between atoms: C_26  and  C_28
REMARK   12  A    between atoms: C_27  and  C_29
REMARK                            x       y       z     vdW  Elec       q    Type
REMARK                         _______ _______ _______ _____ _____    ______ ____
ROOT
ATOM      1  S   UNL     1      17.523  -2.532  30.392  0.00  0.00    -0.057 S 
ATOM      5  O   UNL     1      19.773  -3.011  26.336  0.00  0.00    -0.273 OA
ATOM      7  N   UNL     1      17.773  -4.015  28.288  0.00  0.00    -0.229 NA
ATOM      9  N   UNL     1      19.162  -2.049  28.404  0.00  0.00    -0.263 N 
ATOM     10  C   UNL     1      15.388  -6.549  29.950  0.00  0.00    -0.019 C 
ATOM     11  C   UNL     1      14.598  -5.410  30.734  0.00  0.00    +0.011 C 
ATOM     12  C   UNL     1      13.487  -5.878  31.751  0.00  0.00    +0.021 C 
ATOM     13  C   UNL     1      16.115  -5.872  28.699  0.00  0.00    +0.054 C 
ATOM     14  C   UNL     1      14.381  -7.602  29.419  0.00  0.00    +0.010 C 
ATOM     15  C   UNL     1      12.600  -6.962  31.077  0.00  0.00    +0.123 C 
ATOM     16  C   UNL     1      15.569  -4.341  31.316  0.00  0.00    +0.049 C 
ATOM     17  C   UNL     1      13.404  -8.107  30.472  0.00  0.00    +0.032 C 
ATOM     18  C   UNL     1      16.439  -7.267  30.831  0.00  0.00    +0.012 C 
ATOM     19  C   UNL     1      16.826  -4.605  29.104  0.00  0.00    +0.058 A 
ATOM     21  C   UNL     1      12.567  -4.672  32.089  0.00  0.00    +0.016 C 
ATOM     22  C   UNL     1      16.552  -3.926  30.273  0.00  0.00    +0.015 A 
ATOM     25  C   UNL     1      18.214  -2.921  28.870  0.00  0.00    +0.165 A 
ATOM     27  C   UNL     1      19.871  -2.139  27.193  0.00  0.00    +0.244 C 
ATOM     39  H   UNL     1      19.357  -1.259  29.015  0.00  0.00    +0.157 HD
ENDROOT
BRANCH  15   2
ATOM      2  O   UNL     1      11.667  -7.502  32.012  0.00  0.00    -0.391 OA
ATOM     36  H   UNL     1      11.736  -8.471  31.972  0.00  0.00    +0.210 HD
ENDBRANCH  15   2
BRANCH  12  20
ATOM     20  C   UNL     1      14.032  -6.379  33.109  0.00  0.00    +0.165 C 
BRANCH  20   3
ATOM      3  O   UNL     1      13.109  -6.006  34.107  0.00  0.00    -0.394 OA
ATOM     37  H   UNL     1      12.219  -6.192  33.764  0.00  0.00    +0.209 HD
ENDBRANCH  20   3
ENDBRANCH  12  20
BRANCH  13  23
ATOM     23  C   UNL     1      17.042  -6.810  27.915  0.00  0.00    +0.106 C 
BRANCH  23  24
ATOM      4  O   UNL     1      15.909  -7.633  25.942  0.00  0.00    -0.276 OA
ATOM      8  N   UNL     1      17.410  -5.869  25.751  0.00  0.00    -0.311 N 
ATOM     24  C   UNL     1      16.704  -6.842  26.443  0.00  0.00    +0.214 C 
ATOM     38  H   UNL     1      18.061  -5.275  26.257  0.00  0.00    +0.149 HD
BRANCH   8  26
ATOM     26  C   UNL     1      17.290  -5.669  24.325  0.00  0.00    +0.139 C 
BRANCH  26  28
ATOM     28  C   UNL     1      17.282  -4.212  23.960  0.00  0.00    -0.030 A 
ATOM     30  C   UNL     1      17.959  -3.775  22.821  0.00  0.00    +0.005 A 
ATOM     31  C   UNL     1      16.596  -3.297  24.758  0.00  0.00    +0.005 A 
ATOM     32  C   UNL     1      17.950  -2.422  22.481  0.00  0.00    +0.000 A 
ATOM     33  C   UNL     1      16.589  -1.944  24.419  0.00  0.00    +0.000 A 
ATOM     34  C   UNL     1      17.265  -1.507  23.280  0.00  0.00    +0.000 A 
ENDBRANCH  26  28
ENDBRANCH   8  26
ENDBRANCH  23  24
ENDBRANCH  13  23
BRANCH  27  29
ATOM     29  C   UNL     1      20.837  -0.979  27.031  0.00  0.00    +0.255 C 
BRANCH  29   6
ATOM      6  O   UNL     1      20.749  -0.427  25.734  0.00  0.00    -0.374 OA
ATOM     35  C   UNL     1      21.967   0.200  25.341  0.00  0.00    +0.194 C 
ENDBRANCH  29   6
ENDBRANCH  27  29
TORSDOF 9
ENDMDL
