MODEL 1
REMARK VINA RESULT:      -6.8      0.000      0.000
REMARK  Name = 11885917
REMARK  8 active torsions:
REMARK  status: ('A' for Active; 'I' for Inactive)
REMARK    1  A    between atoms: O_4  and  C_29
REMARK    2  A    between atoms: O_4  and  C_31
REMARK    3  A    between atoms: O_5  and  C_30
REMARK    4  A    between atoms: O_5  and  C_32
REMARK    5  A    between atoms: N_8  and  C_22
REMARK    6  A    between atoms: N_9  and  C_20
REMARK    7  A    between atoms: C_23  and  C_26
REMARK    8  A    between atoms: C_26  and  C_29
REMARK                            x       y       z     vdW  Elec       q    Type
REMARK                         _______ _______ _______ _____ _____    ______ ____
ROOT
ATOM      1  O   UNL     1      14.910  11.989  18.856  0.00  0.00    -0.266 OA
ATOM      2  O   UNL     1      15.424   6.115  19.360  0.00  0.00    -0.252 OA
ATOM      6  N   UNL     1      13.736   7.329  20.376  0.00  0.00    -0.284 N 
ATOM      7  N   UNL     1      13.471  10.148  18.859  0.00  0.00    -0.310 N 
ATOM      8  N   UNL     1      15.896   7.258  21.323  0.00  0.00    -0.269 N 
ATOM     10  C   UNL     1      12.306   9.304  20.974  0.00  0.00    +0.027 C 
ATOM     11  C   UNL     1      11.947   8.142  18.842  0.00  0.00    +0.054 C 
ATOM     12  C   UNL     1      11.233   8.797  20.021  0.00  0.00    +0.018 C 
ATOM     13  C   UNL     1      13.196   8.149  21.474  0.00  0.00    +0.114 C 
ATOM     14  C   UNL     1      13.123  10.391  20.264  0.00  0.00    +0.130 C 
ATOM     15  C   UNL     1      12.763   6.941  19.348  0.00  0.00    +0.119 C 
ATOM     16  C   UNL     1      12.859   9.124  18.130  0.00  0.00    +0.027 A 
ATOM     17  C   UNL     1      13.101   8.992  16.816  0.00  0.00    +0.024 A 
ATOM     18  C   UNL     1      14.362  11.060  18.259  0.00  0.00    +0.273 A 
ATOM     19  C   UNL     1      15.062   6.851  20.283  0.00  0.00    +0.306 C 
ATOM     20  C   UNL     1      14.626  10.864  16.799  0.00  0.00    +0.099 A 
ATOM     21  C   UNL     1      14.005   9.880  16.140  0.00  0.00    +0.030 A 
ATOM     33  H   UNL     1      15.478   7.442  22.230  0.00  0.00    +0.156 HD
ENDROOT
BRANCH   8  22
ATOM     22  C   UNL     1      17.295   7.474  21.268  0.00  0.00    +0.035 A 
ATOM     24  C   UNL     1      18.156   6.411  20.998  0.00  0.00    +0.027 A 
ATOM     25  C   UNL     1      17.811   8.753  21.482  0.00  0.00    +0.027 A 
ATOM     27  C   UNL     1      19.533   6.625  20.942  0.00  0.00    +0.047 A 
ATOM     28  C   UNL     1      19.188   8.967  21.426  0.00  0.00    +0.047 A 
ATOM     30  C   UNL     1      20.049   7.903  21.155  0.00  0.00    +0.120 A 
BRANCH  30   5
ATOM      5  O   UNL     1      21.392   8.112  21.099  0.00  0.00    -0.495 OA
ATOM     32  C   UNL     1      22.180   7.110  20.457  0.00  0.00    +0.277 C 
ENDBRANCH  30   5
ENDBRANCH   8  22
BRANCH  20   9
ATOM      3  O   UNL     1      13.936  13.141  15.207  0.00  0.00    -0.275 OA
ATOM      9  N   UNL     1      15.496  11.717  16.185  0.00  0.00    -0.281 N 
ATOM     23  C   UNL     1      15.098  12.808  15.423  0.00  0.00    +0.220 C 
ATOM     34  H   UNL     1      16.462  11.408  16.107  0.00  0.00    +0.155 HD
BRANCH  23  26
ATOM     26  C   UNL     1      16.297  13.565  14.873  0.00  0.00    +0.124 C 
BRANCH  26  29
ATOM     29  C   UNL     1      17.300  12.661  14.173  0.00  0.00    +0.168 C 
BRANCH  29   4
ATOM      4  O   UNL     1      18.184  12.102  15.137  0.00  0.00    -0.382 OA
ATOM     31  C   UNL     1      19.307  11.489  14.520  0.00  0.00    +0.194 C 
ENDBRANCH  29   4
ENDBRANCH  26  29
ENDBRANCH  23  26
ENDBRANCH  20   9
TORSDOF 6
ENDMDL
MODEL 2
REMARK VINA RESULT:      -6.7     14.507     18.053
REMARK  Name = 11885917
REMARK  8 active torsions:
REMARK  status: ('A' for Active; 'I' for Inactive)
REMARK    1  A    between atoms: O_4  and  C_29
REMARK    2  A    between atoms: O_4  and  C_31
REMARK    3  A    between atoms: O_5  and  C_30
REMARK    4  A    between atoms: O_5  and  C_32
REMARK    5  A    between atoms: N_8  and  C_22
REMARK    6  A    between atoms: N_9  and  C_20
REMARK    7  A    between atoms: C_23  and  C_26
REMARK    8  A    between atoms: C_26  and  C_29
REMARK                            x       y       z     vdW  Elec       q    Type
REMARK                         _______ _______ _______ _____ _____    ______ ____
ROOT
ATOM      1  O   UNL     1      10.171   4.716   2.966  0.00  0.00    -0.266 OA
ATOM      2  O   UNL     1       9.641  10.188   5.156  0.00  0.00    -0.252 OA
ATOM      6  N   UNL     1       9.435   8.281   6.452  0.00  0.00    -0.284 N 
ATOM      7  N   UNL     1      10.844   5.850   4.895  0.00  0.00    -0.310 N 
ATOM      8  N   UNL     1       7.641   9.013   5.105  0.00  0.00    -0.269 N 
ATOM     10  C   UNL     1       9.473   5.845   7.054  0.00  0.00    +0.027 C 
ATOM     11  C   UNL     1      11.577   7.107   6.952  0.00  0.00    +0.054 C 
ATOM     12  C   UNL     1      10.813   6.052   7.748  0.00  0.00    +0.018 C 
ATOM     13  C   UNL     1       8.664   7.155   7.004  0.00  0.00    +0.114 C 
ATOM     14  C   UNL     1       9.727   5.275   5.653  0.00  0.00    +0.130 C 
ATOM     15  C   UNL     1      10.795   8.431   6.984  0.00  0.00    +0.119 C 
ATOM     16  C   UNL     1      11.793   6.669   5.515  0.00  0.00    +0.027 A 
ATOM     17  C   UNL     1      12.872   7.088   4.835  0.00  0.00    +0.024 A 
ATOM     18  C   UNL     1      10.971   5.450   3.549  0.00  0.00    +0.273 A 
ATOM     19  C   UNL     1       8.952   9.234   5.527  0.00  0.00    +0.306 C 
ATOM     20  C   UNL     1      12.173   5.960   2.818  0.00  0.00    +0.099 A 
ATOM     21  C   UNL     1      13.062   6.727   3.457  0.00  0.00    +0.030 A 
ATOM     33  H   UNL     1       7.005   8.543   5.741  0.00  0.00    +0.156 HD
ENDROOT
BRANCH   8  22
ATOM     22  C   UNL     1       7.074   9.353   3.852  0.00  0.00    +0.035 A 
ATOM     24  C   UNL     1       5.892  10.091   3.798  0.00  0.00    +0.027 A 
ATOM     25  C   UNL     1       7.700   8.951   2.672  0.00  0.00    +0.027 A 
ATOM     27  C   UNL     1       5.335  10.427   2.564  0.00  0.00    +0.047 A 
ATOM     28  C   UNL     1       7.143   9.286   1.438  0.00  0.00    +0.047 A 
ATOM     30  C   UNL     1       5.961  10.025   1.384  0.00  0.00    +0.120 A 
BRANCH  30   5
ATOM      5  O   UNL     1       5.418  10.354   0.180  0.00  0.00    -0.495 OA
ATOM     32  C   UNL     1       4.498   9.426  -0.393  0.00  0.00    +0.277 C 
ENDBRANCH  30   5
ENDBRANCH   8  22
BRANCH  20   9
ATOM      3  O   UNL     1      13.402   3.571   1.829  0.00  0.00    -0.275 OA
ATOM      9  N   UNL     1      12.322   5.609   1.508  0.00  0.00    -0.281 N 
ATOM     23  C   UNL     1      12.930   4.431   1.091  0.00  0.00    +0.220 C 
ATOM     34  H   UNL     1      12.178   6.342   0.818  0.00  0.00    +0.155 HD
BRANCH  23  26
ATOM     26  C   UNL     1      12.945   4.324  -0.427  0.00  0.00    +0.124 C 
BRANCH  26  29
ATOM     29  C   UNL     1      11.722   3.610  -0.983  0.00  0.00    +0.168 C 
BRANCH  29   4
ATOM      4  O   UNL     1      10.548   4.159  -0.397  0.00  0.00    -0.382 OA
ATOM     31  C   UNL     1       9.986   5.178  -1.214  0.00  0.00    +0.194 C 
ENDBRANCH  29   4
ENDBRANCH  26  29
ENDBRANCH  23  26
ENDBRANCH  20   9
TORSDOF 6
ENDMDL
MODEL 3
REMARK VINA RESULT:      -6.5     13.063     15.736
REMARK  Name = 11885917
REMARK  8 active torsions:
REMARK  status: ('A' for Active; 'I' for Inactive)
REMARK    1  A    between atoms: O_4  and  C_29
REMARK    2  A    between atoms: O_4  and  C_31
REMARK    3  A    between atoms: O_5  and  C_30
REMARK    4  A    between atoms: O_5  and  C_32
REMARK    5  A    between atoms: N_8  and  C_22
REMARK    6  A    between atoms: N_9  and  C_20
REMARK    7  A    between atoms: C_23  and  C_26
REMARK    8  A    between atoms: C_26  and  C_29
REMARK                            x       y       z     vdW  Elec       q    Type
REMARK                         _______ _______ _______ _____ _____    ______ ____
ROOT
ATOM      1  O   UNL     1      11.165   7.295   1.957  0.00  0.00    -0.266 OA
ATOM      2  O   UNL     1      13.472   6.504   7.349  0.00  0.00    -0.252 OA
ATOM      6  N   UNL     1      11.594   7.798   6.954  0.00  0.00    -0.284 N 
ATOM      7  N   UNL     1      10.355   6.934   4.119  0.00  0.00    -0.310 N 
ATOM      8  N   UNL     1      13.751   8.656   6.529  0.00  0.00    -0.269 N 
ATOM     10  C   UNL     1       9.695   8.843   5.688  0.00  0.00    +0.027 C 
ATOM     11  C   UNL     1       9.513   6.518   6.457  0.00  0.00    +0.054 C 
ATOM     12  C   UNL     1       8.743   7.828   6.307  0.00  0.00    +0.018 C 
ATOM     13  C   UNL     1      10.933   9.060   6.579  0.00  0.00    +0.114 C 
ATOM     14  C   UNL     1      10.078   8.366   4.282  0.00  0.00    +0.130 C 
ATOM     15  C   UNL     1      10.696   6.733   7.416  0.00  0.00    +0.119 C 
ATOM     16  C   UNL     1      10.018   6.015   5.118  0.00  0.00    +0.027 A 
ATOM     17  C   UNL     1      10.169   4.698   4.903  0.00  0.00    +0.024 A 
ATOM     18  C   UNL     1      10.871   6.525   2.873  0.00  0.00    +0.273 A 
ATOM     19  C   UNL     1      12.989   7.572   6.963  0.00  0.00    +0.306 C 
ATOM     20  C   UNL     1      11.049   5.051   2.683  0.00  0.00    +0.099 A 
ATOM     21  C   UNL     1      10.698   4.209   3.661  0.00  0.00    +0.030 A 
ATOM     33  H   UNL     1      13.380   9.590   6.669  0.00  0.00    +0.156 HD
ENDROOT
BRANCH   8  22
ATOM     22  C   UNL     1      15.008   8.615   5.877  0.00  0.00    +0.035 A 
ATOM     24  C   UNL     1      15.202   7.771   4.785  0.00  0.00    +0.027 A 
ATOM     25  C   UNL     1      16.053   9.422   6.329  0.00  0.00    +0.027 A 
ATOM     27  C   UNL     1      16.440   7.732   4.143  0.00  0.00    +0.047 A 
ATOM     28  C   UNL     1      17.291   9.384   5.687  0.00  0.00    +0.047 A 
ATOM     30  C   UNL     1      17.485   8.539   4.594  0.00  0.00    +0.120 A 
BRANCH  30   5
ATOM      5  O   UNL     1      18.691   8.503   3.967  0.00  0.00    -0.495 OA
ATOM     32  C   UNL     1      19.726   7.744   4.593  0.00  0.00    +0.277 C 
ENDBRANCH  30   5
ENDBRANCH   8  22
BRANCH  20   9
ATOM      3  O   UNL     1       9.562   4.401   0.324  0.00  0.00    -0.275 OA
ATOM      9  N   UNL     1      11.563   4.616   1.496  0.00  0.00    -0.281 N 
ATOM     23  C   UNL     1      10.785   4.316   0.384  0.00  0.00    +0.220 C 
ATOM     34  H   UNL     1      12.528   4.294   1.505  0.00  0.00    +0.155 HD
BRANCH  23  26
ATOM     26  C   UNL     1      11.645   3.858  -0.784  0.00  0.00    +0.124 C 
BRANCH  26  29
ATOM     29  C   UNL     1      12.993   3.302  -0.349  0.00  0.00    +0.168 C 
BRANCH  29   4
ATOM      4  O   UNL     1      13.918   4.372  -0.197  0.00  0.00    -0.382 OA
ATOM     31  C   UNL     1      15.087   3.956   0.495  0.00  0.00    +0.194 C 
ENDBRANCH  29   4
ENDBRANCH  26  29
ENDBRANCH  23  26
ENDBRANCH  20   9
TORSDOF 6
ENDMDL
MODEL 4
REMARK VINA RESULT:      -6.4      3.329      4.485
REMARK  Name = 11885917
REMARK  8 active torsions:
REMARK  status: ('A' for Active; 'I' for Inactive)
REMARK    1  A    between atoms: O_4  and  C_29
REMARK    2  A    between atoms: O_4  and  C_31
REMARK    3  A    between atoms: O_5  and  C_30
REMARK    4  A    between atoms: O_5  and  C_32
REMARK    5  A    between atoms: N_8  and  C_22
REMARK    6  A    between atoms: N_9  and  C_20
REMARK    7  A    between atoms: C_23  and  C_26
REMARK    8  A    between atoms: C_26  and  C_29
REMARK                            x       y       z     vdW  Elec       q    Type
REMARK                         _______ _______ _______ _____ _____    ______ ____
ROOT
ATOM      1  O   UNL     1      14.518  10.513  23.141  0.00  0.00    -0.266 OA
ATOM      2  O   UNL     1      14.963   7.530  18.050  0.00  0.00    -0.252 OA
ATOM      6  N   UNL     1      13.184   7.282  19.510  0.00  0.00    -0.284 N 
ATOM      7  N   UNL     1      13.080   9.865  21.417  0.00  0.00    -0.310 N 
ATOM      8  N   UNL     1      15.237   6.199  19.930  0.00  0.00    -0.269 N 
ATOM     10  C   UNL     1      11.706   7.710  21.494  0.00  0.00    +0.027 C 
ATOM     11  C   UNL     1      11.561   9.175  19.529  0.00  0.00    +0.054 C 
ATOM     12  C   UNL     1      10.733   8.455  20.590  0.00  0.00    +0.018 C 
ATOM     13  C   UNL     1      12.539   6.689  20.693  0.00  0.00    +0.114 C 
ATOM     14  C   UNL     1      12.594   8.733  22.213  0.00  0.00    +0.130 C 
ATOM     15  C   UNL     1      12.319   8.136  18.686  0.00  0.00    +0.119 C 
ATOM     16  C   UNL     1      12.543  10.147  20.157  0.00  0.00    +0.027 A 
ATOM     17  C   UNL     1      12.916  11.254  19.495  0.00  0.00    +0.024 A 
ATOM     18  C   UNL     1      14.030  10.709  22.027  0.00  0.00    +0.273 A 
ATOM     19  C   UNL     1      14.511   7.042  19.090  0.00  0.00    +0.306 C 
ATOM     20  C   UNL     1      14.439  11.919  21.245  0.00  0.00    +0.099 A 
ATOM     21  C   UNL     1      13.886  12.155  20.052  0.00  0.00    +0.030 A 
ATOM     33  H   UNL     1      14.731   5.498  20.461  0.00  0.00    +0.156 HD
ENDROOT
BRANCH   8  22
ATOM     22  C   UNL     1      16.636   6.211  20.159  0.00  0.00    +0.035 A 
ATOM     24  C   UNL     1      17.486   5.484  19.327  0.00  0.00    +0.027 A 
ATOM     25  C   UNL     1      17.161   6.952  21.218  0.00  0.00    +0.027 A 
ATOM     27  C   UNL     1      18.862   5.498  19.552  0.00  0.00    +0.047 A 
ATOM     28  C   UNL     1      18.538   6.966  21.443  0.00  0.00    +0.047 A 
ATOM     30  C   UNL     1      19.389   6.239  20.610  0.00  0.00    +0.120 A 
BRANCH  30   5
ATOM      5  O   UNL     1      20.731   6.254  20.829  0.00  0.00    -0.495 OA
ATOM     32  C   UNL     1      21.233   5.387  21.845  0.00  0.00    +0.277 C 
ENDBRANCH  30   5
ENDBRANCH   8  22
BRANCH  20   9
ATOM      3  O   UNL     1      17.263  11.858  20.776  0.00  0.00    -0.275 OA
ATOM      9  N   UNL     1      15.370  12.752  21.796  0.00  0.00    -0.281 N 
ATOM     23  C   UNL     1      16.731  12.670  21.527  0.00  0.00    +0.220 C 
ATOM     34  H   UNL     1      15.073  13.305  22.596  0.00  0.00    +0.155 HD
BRANCH  23  26
ATOM     26  C   UNL     1      17.509  13.733  22.289  0.00  0.00    +0.124 C 
BRANCH  26  29
ATOM     29  C   UNL     1      17.846  13.316  23.713  0.00  0.00    +0.168 C 
BRANCH  29   4
ATOM      4  O   UNL     1      16.641  13.105  24.440  0.00  0.00    -0.382 OA
ATOM     31  C   UNL     1      16.167  14.310  25.023  0.00  0.00    +0.194 C 
ENDBRANCH  29   4
ENDBRANCH  26  29
ENDBRANCH  23  26
ENDBRANCH  20   9
TORSDOF 6
ENDMDL
MODEL 5
REMARK VINA RESULT:      -6.4     13.333     16.016
REMARK  Name = 11885917
REMARK  8 active torsions:
REMARK  status: ('A' for Active; 'I' for Inactive)
REMARK    1  A    between atoms: O_4  and  C_29
REMARK    2  A    between atoms: O_4  and  C_31
REMARK    3  A    between atoms: O_5  and  C_30
REMARK    4  A    between atoms: O_5  and  C_32
REMARK    5  A    between atoms: N_8  and  C_22
REMARK    6  A    between atoms: N_9  and  C_20
REMARK    7  A    between atoms: C_23  and  C_26
REMARK    8  A    between atoms: C_26  and  C_29
REMARK                            x       y       z     vdW  Elec       q    Type
REMARK                         _______ _______ _______ _____ _____    ______ ____
ROOT
ATOM      1  O   UNL     1      10.898   7.055   2.012  0.00  0.00    -0.266 OA
ATOM      2  O   UNL     1      13.568   6.203   7.224  0.00  0.00    -0.252 OA
ATOM      6  N   UNL     1      11.671   7.504   6.973  0.00  0.00    -0.284 N 
ATOM      7  N   UNL     1      10.238   6.672   4.221  0.00  0.00    -0.310 N 
ATOM      8  N   UNL     1      13.795   8.363   6.410  0.00  0.00    -0.269 N 
ATOM     10  C   UNL     1       9.691   8.565   5.852  0.00  0.00    +0.027 C 
ATOM     11  C   UNL     1       9.558   6.233   6.607  0.00  0.00    +0.054 C 
ATOM     12  C   UNL     1       8.782   7.545   6.524  0.00  0.00    +0.018 C 
ATOM     13  C   UNL     1      10.989   8.770   6.658  0.00  0.00    +0.114 C 
ATOM     14  C   UNL     1       9.976   8.103   4.417  0.00  0.00    +0.130 C 
ATOM     15  C   UNL     1      10.804   6.436   7.484  0.00  0.00    +0.119 C 
ATOM     16  C   UNL     1       9.969   5.743   5.230  0.00  0.00    +0.027 A 
ATOM     17  C   UNL     1      10.102   4.428   4.992  0.00  0.00    +0.024 A 
ATOM     18  C   UNL     1      10.667   6.276   2.938  0.00  0.00    +0.273 A 
ATOM     19  C   UNL     1      13.062   7.275   6.884  0.00  0.00    +0.306 C 
ATOM     20  C   UNL     1      10.828   4.803   2.721  0.00  0.00    +0.099 A 
ATOM     21  C   UNL     1      10.543   3.951   3.711  0.00  0.00    +0.030 A 
ATOM     33  H   UNL     1      13.437   9.296   6.585  0.00  0.00    +0.156 HD
ENDROOT
BRANCH   8  22
ATOM     22  C   UNL     1      15.005   8.327   5.673  0.00  0.00    +0.035 A 
ATOM     24  C   UNL     1      16.168   8.874   6.214  0.00  0.00    +0.027 A 
ATOM     25  C   UNL     1      15.031   7.744   4.406  0.00  0.00    +0.027 A 
ATOM     27  C   UNL     1      17.359   8.838   5.488  0.00  0.00    +0.047 A 
ATOM     28  C   UNL     1      16.222   7.708   3.680  0.00  0.00    +0.047 A 
ATOM     30  C   UNL     1      17.387   8.254   4.221  0.00  0.00    +0.120 A 
BRANCH  30   5
ATOM      5  O   UNL     1      18.548   8.217   3.514  0.00  0.00    -0.495 OA
ATOM     32  C   UNL     1      19.701   7.709   4.185  0.00  0.00    +0.277 C 
ENDBRANCH  30   5
ENDBRANCH   8  22
BRANCH  20   9
ATOM      3  O   UNL     1      13.435   3.803   2.088  0.00  0.00    -0.275 OA
ATOM      9  N   UNL     1      11.258   4.380   1.497  0.00  0.00    -0.281 N 
ATOM     23  C   UNL     1      12.541   3.904   1.253  0.00  0.00    +0.220 C 
ATOM     34  H   UNL     1      10.683   4.632   0.697  0.00  0.00    +0.155 HD
BRANCH  23  26
ATOM     26  C   UNL     1      12.716   3.510  -0.206  0.00  0.00    +0.124 C 
BRANCH  26  29
ATOM     29  C   UNL     1      11.697   4.166  -1.125  0.00  0.00    +0.168 C 
BRANCH  29   4
ATOM      4  O   UNL     1      10.730   3.201  -1.523  0.00  0.00    -0.382 OA
ATOM     31  C   UNL     1      11.178   2.446  -2.640  0.00  0.00    +0.194 C 
ENDBRANCH  29   4
ENDBRANCH  26  29
ENDBRANCH  23  26
ENDBRANCH  20   9
TORSDOF 6
ENDMDL
MODEL 6
REMARK VINA RESULT:      -6.4     28.833     30.961
REMARK  Name = 11885917
REMARK  8 active torsions:
REMARK  status: ('A' for Active; 'I' for Inactive)
REMARK    1  A    between atoms: O_4  and  C_29
REMARK    2  A    between atoms: O_4  and  C_31
REMARK    3  A    between atoms: O_5  and  C_30
REMARK    4  A    between atoms: O_5  and  C_32
REMARK    5  A    between atoms: N_8  and  C_22
REMARK    6  A    between atoms: N_9  and  C_20
REMARK    7  A    between atoms: C_23  and  C_26
REMARK    8  A    between atoms: C_26  and  C_29
REMARK                            x       y       z     vdW  Elec       q    Type
REMARK                         _______ _______ _______ _____ _____    ______ ____
ROOT
ATOM      1  O   UNL     1      -7.705  -8.878  17.040  0.00  0.00    -0.266 OA
ATOM      2  O   UNL     1      -5.302 -13.037  13.584  0.00  0.00    -0.252 OA
ATOM      6  N   UNL     1      -4.405 -12.416  15.625  0.00  0.00    -0.284 N 
ATOM      7  N   UNL     1      -6.707 -10.970  17.337  0.00  0.00    -0.310 N 
ATOM      8  N   UNL     1      -4.042 -11.093  13.705  0.00  0.00    -0.269 N 
ATOM     10  C   UNL     1      -4.217 -11.259  17.845  0.00  0.00    +0.027 C 
ATOM     11  C   UNL     1      -5.651 -13.240  17.622  0.00  0.00    +0.054 C 
ATOM     12  C   UNL     1      -4.644 -12.547  18.536  0.00  0.00    +0.018 C 
ATOM     13  C   UNL     1      -3.572 -11.549  16.476  0.00  0.00    +0.114 C 
ATOM     14  C   UNL     1      -5.438 -10.340  17.718  0.00  0.00    +0.130 C 
ATOM     15  C   UNL     1      -4.965 -13.597  16.292  0.00  0.00    +0.119 C 
ATOM     16  C   UNL     1      -6.860 -12.360  17.360  0.00  0.00    +0.027 A 
ATOM     17  C   UNL     1      -8.060 -12.913  17.123  0.00  0.00    +0.024 A 
ATOM     18  C   UNL     1      -7.785 -10.107  17.054  0.00  0.00    +0.273 A 
ATOM     19  C   UNL     1      -4.640 -12.232  14.244  0.00  0.00    +0.306 C 
ATOM     20  C   UNL     1      -9.101 -10.764  16.769  0.00  0.00    +0.099 A 
ATOM     21  C   UNL     1      -9.202 -12.096  16.819  0.00  0.00    +0.030 A 
ATOM     33  H   UNL     1      -3.187 -10.752  14.132  0.00  0.00    +0.156 HD
ENDROOT
BRANCH   8  22
ATOM     22  C   UNL     1      -4.504 -10.315  12.615  0.00  0.00    +0.035 A 
ATOM     24  C   UNL     1      -3.735 -10.209  11.457  0.00  0.00    +0.027 A 
ATOM     25  C   UNL     1      -5.731  -9.655  12.701  0.00  0.00    +0.027 A 
ATOM     27  C   UNL     1      -4.192  -9.443  10.384  0.00  0.00    +0.047 A 
ATOM     28  C   UNL     1      -6.188  -8.890  11.628  0.00  0.00    +0.047 A 
ATOM     30  C   UNL     1      -5.418  -8.785  10.469  0.00  0.00    +0.120 A 
BRANCH  30   5
ATOM      5  O   UNL     1      -5.864  -8.040   9.422  0.00  0.00    -0.495 OA
ATOM     32  C   UNL     1      -6.747  -8.677   8.499  0.00  0.00    +0.277 C 
ENDBRANCH  30   5
ENDBRANCH   8  22
BRANCH  20   9
ATOM      3  O   UNL     1     -10.868  -9.525  18.651  0.00  0.00    -0.275 OA
ATOM      9  N   UNL     1     -10.165  -9.962  16.474  0.00  0.00    -0.281 N 
ATOM     23  C   UNL     1     -10.988  -9.390  17.437  0.00  0.00    +0.220 C 
ATOM     34  H   UNL     1     -10.491  -9.969  15.511  0.00  0.00    +0.155 HD
BRANCH  23  26
ATOM     26  C   UNL     1     -12.084  -8.551  16.798  0.00  0.00    +0.124 C 
BRANCH  26  29
ATOM     29  C   UNL     1     -11.787  -8.187  15.350  0.00  0.00    +0.168 C 
BRANCH  29   4
ATOM      4  O   UNL     1     -10.619  -7.377  15.297  0.00  0.00    -0.382 OA
ATOM     31  C   UNL     1     -10.879  -6.059  15.759  0.00  0.00    +0.194 C 
ENDBRANCH  29   4
ENDBRANCH  26  29
ENDBRANCH  23  26
ENDBRANCH  20   9
TORSDOF 6
ENDMDL
MODEL 7
REMARK VINA RESULT:      -6.4     12.426     15.332
REMARK  Name = 11885917
REMARK  8 active torsions:
REMARK  status: ('A' for Active; 'I' for Inactive)
REMARK    1  A    between atoms: O_4  and  C_29
REMARK    2  A    between atoms: O_4  and  C_31
REMARK    3  A    between atoms: O_5  and  C_30
REMARK    4  A    between atoms: O_5  and  C_32
REMARK    5  A    between atoms: N_8  and  C_22
REMARK    6  A    between atoms: N_9  and  C_20
REMARK    7  A    between atoms: C_23  and  C_26
REMARK    8  A    between atoms: C_26  and  C_29
REMARK                            x       y       z     vdW  Elec       q    Type
REMARK                         _______ _______ _______ _____ _____    ______ ____
ROOT
ATOM      1  O   UNL     1      13.873   6.725   7.373  0.00  0.00    -0.266 OA
ATOM      2  O   UNL     1      10.050   7.233   2.884  0.00  0.00    -0.252 OA
ATOM      6  N   UNL     1       9.446   6.455   4.978  0.00  0.00    -0.284 N 
ATOM      7  N   UNL     1      11.662   7.427   7.091  0.00  0.00    -0.310 N 
ATOM      8  N   UNL     1      10.538   5.035   3.442  0.00  0.00    -0.269 N 
ATOM     10  C   UNL     1       9.662   5.865   7.409  0.00  0.00    +0.027 C 
ATOM     11  C   UNL     1       9.289   8.201   6.751  0.00  0.00    +0.054 C 
ATOM     12  C   UNL     1       8.898   7.132   7.769  0.00  0.00    +0.018 C 
ATOM     13  C   UNL     1       9.310   5.389   5.986  0.00  0.00    +0.114 C 
ATOM     14  C   UNL     1      11.163   6.131   7.568  0.00  0.00    +0.130 C 
ATOM     15  C   UNL     1       8.854   7.746   5.348  0.00  0.00    +0.119 C 
ATOM     16  C   UNL     1      10.783   8.465   6.769  0.00  0.00    +0.027 A 
ATOM     17  C   UNL     1      11.259   9.680   6.449  0.00  0.00    +0.024 A 
ATOM     18  C   UNL     1      13.060   7.604   7.080  0.00  0.00    +0.273 A 
ATOM     19  C   UNL     1      10.028   6.307   3.699  0.00  0.00    +0.306 C 
ATOM     20  C   UNL     1      13.551   8.964   6.692  0.00  0.00    +0.099 A 
ATOM     21  C   UNL     1      12.672   9.930   6.408  0.00  0.00    +0.030 A 
ATOM     33  H   UNL     1      10.106   4.242   3.906  0.00  0.00    +0.156 HD
ENDROOT
BRANCH   8  22
ATOM     22  C   UNL     1      11.630   4.701   2.603  0.00  0.00    +0.035 A 
ATOM     24  C   UNL     1      11.777   3.397   2.134  0.00  0.00    +0.027 A 
ATOM     25  C   UNL     1      12.558   5.680   2.246  0.00  0.00    +0.027 A 
ATOM     27  C   UNL     1      12.852   3.069   1.307  0.00  0.00    +0.047 A 
ATOM     28  C   UNL     1      13.633   5.353   1.420  0.00  0.00    +0.047 A 
ATOM     30  C   UNL     1      13.779   4.047   0.949  0.00  0.00    +0.120 A 
BRANCH  30   5
ATOM      5  O   UNL     1      14.827   3.729   0.142  0.00  0.00    -0.495 OA
ATOM     32  C   UNL     1      15.920   4.646   0.102  0.00  0.00    +0.277 C 
ENDBRANCH  30   5
ENDBRANCH   8  22
BRANCH  20   9
ATOM      3  O   UNL     1      15.235   8.752   4.386  0.00  0.00    -0.275 OA
ATOM      9  N   UNL     1      14.900   9.170   6.652  0.00  0.00    -0.281 N 
ATOM     23  C   UNL     1      15.664   9.051   5.497  0.00  0.00    +0.220 C 
ATOM     34  H   UNL     1      15.386   9.196   7.545  0.00  0.00    +0.155 HD
BRANCH  23  26
ATOM     26  C   UNL     1      17.131   9.342   5.773  0.00  0.00    +0.124 C 
BRANCH  26  29
ATOM     29  C   UNL     1      18.073   8.519   4.907  0.00  0.00    +0.168 C 
BRANCH  29   4
ATOM      4  O   UNL     1      19.402   8.650   5.398  0.00  0.00    -0.382 OA
ATOM     31  C   UNL     1      19.446   8.542   6.814  0.00  0.00    +0.194 C 
ENDBRANCH  29   4
ENDBRANCH  26  29
ENDBRANCH  23  26
ENDBRANCH  20   9
TORSDOF 6
ENDMDL
MODEL 8
REMARK VINA RESULT:      -6.1      2.131      2.523
REMARK  Name = 11885917
REMARK  8 active torsions:
REMARK  status: ('A' for Active; 'I' for Inactive)
REMARK    1  A    between atoms: O_4  and  C_29
REMARK    2  A    between atoms: O_4  and  C_31
REMARK    3  A    between atoms: O_5  and  C_30
REMARK    4  A    between atoms: O_5  and  C_32
REMARK    5  A    between atoms: N_8  and  C_22
REMARK    6  A    between atoms: N_9  and  C_20
REMARK    7  A    between atoms: C_23  and  C_26
REMARK    8  A    between atoms: C_26  and  C_29
REMARK                            x       y       z     vdW  Elec       q    Type
REMARK                         _______ _______ _______ _____ _____    ______ ____
ROOT
ATOM      1  O   UNL     1      14.543  11.697  21.616  0.00  0.00    -0.266 OA
ATOM      2  O   UNL     1      15.508   6.753  18.510  0.00  0.00    -0.252 OA
ATOM      6  N   UNL     1      13.737   6.998  19.980  0.00  0.00    -0.284 N 
ATOM      7  N   UNL     1      13.249  10.138  20.453  0.00  0.00    -0.310 N 
ATOM      8  N   UNL     1      15.901   6.511  20.783  0.00  0.00    -0.269 N 
ATOM     10  C   UNL     1      12.163   8.117  21.584  0.00  0.00    +0.027 C 
ATOM     11  C   UNL     1      11.883   8.455  19.169  0.00  0.00    +0.054 C 
ATOM     12  C   UNL     1      11.127   8.219  20.474  0.00  0.00    +0.018 C 
ATOM     13  C   UNL     1      13.142   6.955  21.326  0.00  0.00    +0.114 C 
ATOM     14  C   UNL     1      12.891   9.462  21.705  0.00  0.00    +0.130 C 
ATOM     15  C   UNL     1      12.791   7.246  18.885  0.00  0.00    +0.119 C 
ATOM     16  C   UNL     1      12.713   9.723  19.229  0.00  0.00    +0.027 A 
ATOM     17  C   UNL     1      12.957  10.426  18.111  0.00  0.00    +0.024 A 
ATOM     18  C   UNL     1      14.064  11.282  20.559  0.00  0.00    +0.273 A 
ATOM     19  C   UNL     1      15.095   6.760  19.673  0.00  0.00    +0.306 C 
ATOM     20  C   UNL     1      14.334  12.023  19.286  0.00  0.00    +0.099 A 
ATOM     21  C   UNL     1      13.787  11.598  18.143  0.00  0.00    +0.030 A 
ATOM     33  H   UNL     1      15.475   6.084  21.600  0.00  0.00    +0.156 HD
ENDROOT
BRANCH   8  22
ATOM     22  C   UNL     1      17.279   6.806  20.927  0.00  0.00    +0.035 A 
ATOM     24  C   UNL     1      17.679   7.970  21.583  0.00  0.00    +0.027 A 
ATOM     25  C   UNL     1      18.237   5.931  20.413  0.00  0.00    +0.027 A 
ATOM     27  C   UNL     1      19.036   8.260  21.725  0.00  0.00    +0.047 A 
ATOM     28  C   UNL     1      19.594   6.221  20.555  0.00  0.00    +0.047 A 
ATOM     30  C   UNL     1      19.994   7.385  21.212  0.00  0.00    +0.120 A 
BRANCH  30   5
ATOM      5  O   UNL     1      21.317   7.667  21.352  0.00  0.00    -0.495 OA
ATOM     32  C   UNL     1      21.724   9.014  21.111  0.00  0.00    +0.277 C 
ENDBRANCH  30   5
ENDBRANCH   8  22
BRANCH  20   9
ATOM      3  O   UNL     1      17.183  12.075  19.005  0.00  0.00    -0.275 OA
ATOM      9  N   UNL     1      15.134  13.127  19.346  0.00  0.00    -0.281 N 
ATOM     23  C   UNL     1      16.515  13.086  19.201  0.00  0.00    +0.220 C 
ATOM     34  H   UNL     1      14.719  13.973  19.727  0.00  0.00    +0.155 HD
BRANCH  23  26
ATOM     26  C   UNL     1      17.124  14.476  19.315  0.00  0.00    +0.124 C 
BRANCH  26  29
ATOM     29  C   UNL     1      17.480  15.081  17.965  0.00  0.00    +0.168 C 
BRANCH  29   4
ATOM      4  O   UNL     1      18.891  15.240  17.877  0.00  0.00    -0.382 OA
ATOM     31  C   UNL     1      19.494  14.155  17.186  0.00  0.00    +0.194 C 
ENDBRANCH  29   4
ENDBRANCH  26  29
ENDBRANCH  23  26
ENDBRANCH  20   9
TORSDOF 6
ENDMDL
MODEL 9
REMARK VINA RESULT:      -5.6      3.292      8.043
REMARK  Name = 11885917
REMARK  8 active torsions:
REMARK  status: ('A' for Active; 'I' for Inactive)
REMARK    1  A    between atoms: O_4  and  C_29
REMARK    2  A    between atoms: O_4  and  C_31
REMARK    3  A    between atoms: O_5  and  C_30
REMARK    4  A    between atoms: O_5  and  C_32
REMARK    5  A    between atoms: N_8  and  C_22
REMARK    6  A    between atoms: N_9  and  C_20
REMARK    7  A    between atoms: C_23  and  C_26
REMARK    8  A    between atoms: C_26  and  C_29
REMARK                            x       y       z     vdW  Elec       q    Type
REMARK                         _______ _______ _______ _____ _____    ______ ____
ROOT
ATOM      1  O   UNL     1      17.361   8.749  21.706  0.00  0.00    -0.266 OA
ATOM      2  O   UNL     1      22.718   8.682  19.192  0.00  0.00    -0.252 OA
ATOM      6  N   UNL     1      22.386   8.431  21.468  0.00  0.00    -0.284 N 
ATOM      7  N   UNL     1      19.340   7.530  21.948  0.00  0.00    -0.310 N 
ATOM      8  N   UNL     1      22.322  10.572  20.478  0.00  0.00    -0.269 N 
ATOM     10  C   UNL     1      21.154   8.154  23.639  0.00  0.00    +0.027 C 
ATOM     11  C   UNL     1      21.478   6.216  22.167  0.00  0.00    +0.054 C 
ATOM     12  C   UNL     1      21.492   6.669  23.624  0.00  0.00    +0.018 C 
ATOM     13  C   UNL     1      22.181   8.966  22.825  0.00  0.00    +0.114 C 
ATOM     14  C   UNL     1      19.728   8.340  23.108  0.00  0.00    +0.130 C 
ATOM     15  C   UNL     1      22.566   6.976  21.389  0.00  0.00    +0.119 C 
ATOM     16  C   UNL     1      20.124   6.452  21.525  0.00  0.00    +0.027 A 
ATOM     17  C   UNL     1      19.694   5.649  20.537  0.00  0.00    +0.024 A 
ATOM     18  C   UNL     1      18.095   7.823  21.356  0.00  0.00    +0.273 A 
ATOM     19  C   UNL     1      22.484   9.200  20.287  0.00  0.00    +0.306 C 
ATOM     20  C   UNL     1      17.663   6.921  20.242  0.00  0.00    +0.099 A 
ATOM     21  C   UNL     1      18.439   5.893  19.883  0.00  0.00    +0.030 A 
ATOM     33  H   UNL     1      22.591  10.966  21.374  0.00  0.00    +0.156 HD
ENDROOT
BRANCH   8  22
ATOM     22  C   UNL     1      21.793  11.510  19.558  0.00  0.00    +0.035 A 
ATOM     24  C   UNL     1      22.626  12.102  18.609  0.00  0.00    +0.027 A 
ATOM     25  C   UNL     1      20.439  11.841  19.602  0.00  0.00    +0.027 A 
ATOM     27  C   UNL     1      22.104  13.025  17.702  0.00  0.00    +0.047 A 
ATOM     28  C   UNL     1      19.917  12.764  18.695  0.00  0.00    +0.047 A 
ATOM     30  C   UNL     1      20.750  13.355  17.744  0.00  0.00    +0.120 A 
BRANCH  30   5
ATOM      5  O   UNL     1      20.241  14.254  16.859  0.00  0.00    -0.495 OA
ATOM     32  C   UNL     1      21.091  14.665  15.789  0.00  0.00    +0.277 C 
ENDBRANCH  30   5
ENDBRANCH   8  22
BRANCH  20   9
ATOM      3  O   UNL     1      15.074   6.110  21.155  0.00  0.00    -0.275 OA
ATOM      9  N   UNL     1      16.471   7.183  19.632  0.00  0.00    -0.281 N 
ATOM     23  C   UNL     1      15.243   6.759  20.127  0.00  0.00    +0.220 C 
ATOM     34  H   UNL     1      16.510   7.509  18.669  0.00  0.00    +0.155 HD
BRANCH  23  26
ATOM     26  C   UNL     1      14.101   7.205  19.227  0.00  0.00    +0.124 C 
BRANCH  26  29
ATOM     29  C   UNL     1      12.846   7.581  20.001  0.00  0.00    +0.168 C 
BRANCH  29   4
ATOM      4  O   UNL     1      11.971   6.460  20.055  0.00  0.00    -0.382 OA
ATOM     31  C   UNL     1      11.463   6.259  21.366  0.00  0.00    +0.194 C 
ENDBRANCH  29   4
ENDBRANCH  26  29
ENDBRANCH  23  26
ENDBRANCH  20   9
TORSDOF 6
ENDMDL
MODEL 10
REMARK VINA RESULT:      -5.6     27.798     31.482
REMARK  Name = 11885917
REMARK  8 active torsions:
REMARK  status: ('A' for Active; 'I' for Inactive)
REMARK    1  A    between atoms: O_4  and  C_29
REMARK    2  A    between atoms: O_4  and  C_31
REMARK    3  A    between atoms: O_5  and  C_30
REMARK    4  A    between atoms: O_5  and  C_32
REMARK    5  A    between atoms: N_8  and  C_22
REMARK    6  A    between atoms: N_9  and  C_20
REMARK    7  A    between atoms: C_23  and  C_26
REMARK    8  A    between atoms: C_26  and  C_29
REMARK                            x       y       z     vdW  Elec       q    Type
REMARK                         _______ _______ _______ _____ _____    ______ ____
ROOT
ATOM      1  O   UNL     1      -5.451 -13.460  16.644  0.00  0.00    -0.266 OA
ATOM      2  O   UNL     1      -9.658  -9.300  16.751  0.00  0.00    -0.252 OA
ATOM      6  N   UNL     1      -9.975 -11.441  17.570  0.00  0.00    -0.284 N 
ATOM      7  N   UNL     1      -7.092 -12.737  18.142  0.00  0.00    -0.310 N 
ATOM      8  N   UNL     1     -10.091 -11.017  15.252  0.00  0.00    -0.269 N 
ATOM     10  C   UNL     1      -9.420 -13.790  18.261  0.00  0.00    +0.027 C 
ATOM     11  C   UNL     1      -8.854 -11.918  19.745  0.00  0.00    +0.054 C 
ATOM     12  C   UNL     1      -9.402 -13.342  19.716  0.00  0.00    +0.018 C 
ATOM     13  C   UNL     1     -10.309 -12.866  17.405  0.00  0.00    +0.114 C 
ATOM     14  C   UNL     1      -7.977 -13.837  17.742  0.00  0.00    +0.130 C 
ATOM     15  C   UNL     1      -9.799 -10.996  18.957  0.00  0.00    +0.119 C 
ATOM     16  C   UNL     1      -7.456 -11.850  19.159  0.00  0.00    +0.027 A 
ATOM     17  C   UNL     1      -6.585 -10.924  19.592  0.00  0.00    +0.024 A 
ATOM     18  C   UNL     1      -5.823 -12.689  17.530  0.00  0.00    +0.273 A 
ATOM     19  C   UNL     1      -9.882 -10.493  16.527  0.00  0.00    +0.306 C 
ATOM     20  C   UNL     1      -4.891 -11.626  18.023  0.00  0.00    +0.099 A 
ATOM     21  C   UNL     1      -5.278 -10.810  19.009  0.00  0.00    +0.030 A 
ATOM     33  H   UNL     1     -10.695 -11.827  15.159  0.00  0.00    +0.156 HD
ENDROOT
BRANCH   8  22
ATOM     22  C   UNL     1      -9.531 -10.559  14.034  0.00  0.00    +0.035 A 
ATOM     24  C   UNL     1      -8.149 -10.426  13.906  0.00  0.00    +0.027 A 
ATOM     25  C   UNL     1     -10.365 -10.241  12.961  0.00  0.00    +0.027 A 
ATOM     27  C   UNL     1      -7.599  -9.976  12.706  0.00  0.00    +0.047 A 
ATOM     28  C   UNL     1      -9.815  -9.791  11.760  0.00  0.00    +0.047 A 
ATOM     30  C   UNL     1      -8.432  -9.659  11.633  0.00  0.00    +0.120 A 
BRANCH  30   5
ATOM      5  O   UNL     1      -7.895  -9.222  10.462  0.00  0.00    -0.495 OA
ATOM     32  C   UNL     1      -8.377  -9.824   9.261  0.00  0.00    +0.277 C 
ENDBRANCH  30   5
ENDBRANCH   8  22
BRANCH  20   9
ATOM      3  O   UNL     1      -4.256 -10.264  15.585  0.00  0.00    -0.275 OA
ATOM      9  N   UNL     1      -3.659 -11.536  17.443  0.00  0.00    -0.281 N 
ATOM     23  C   UNL     1      -3.415 -10.858  16.254  0.00  0.00    +0.220 C 
ATOM     34  H   UNL     1      -2.945 -12.174  17.783  0.00  0.00    +0.155 HD
BRANCH  23  26
ATOM     26  C   UNL     1      -1.946 -10.936  15.866  0.00  0.00    +0.124 C 
BRANCH  26  29
ATOM     29  C   UNL     1      -1.641 -10.232  14.552  0.00  0.00    +0.168 C 
BRANCH  29   4
ATOM      4  O   UNL     1      -1.857 -11.134  13.472  0.00  0.00    -0.382 OA
ATOM     31  C   UNL     1      -2.555 -10.509  12.404  0.00  0.00    +0.194 C 
ENDBRANCH  29   4
ENDBRANCH  26  29
ENDBRANCH  23  26
ENDBRANCH  20   9
TORSDOF 6
ENDMDL
