MODEL 1
REMARK VINA RESULT:      -6.8      0.000      0.000
REMARK  Name = 38028765
REMARK  11 active torsions:
REMARK  status: ('A' for Active; 'I' for Inactive)
REMARK    1  A    between atoms: O_3  and  C_28
REMARK    2  A    between atoms: O_3  and  C_31
REMARK    3  A    between atoms: N_5  and  C_15
REMARK    4  A    between atoms: N_6  and  C_25
REMARK    5  A    between atoms: C_7  and  C_11
REMARK    6  A    between atoms: C_8  and  C_15
REMARK    7  A    between atoms: C_10  and  C_14
REMARK    8  A    between atoms: C_11  and  C_16
REMARK    9  A    between atoms: C_11  and  C_17
REMARK   10  A    between atoms: C_12  and  C_18
REMARK   11  A    between atoms: C_14  and  C_19
REMARK                            x       y       z     vdW  Elec       q    Type
REMARK                         _______ _______ _______ _____ _____    ______ ____
ROOT
ATOM      7  C   UNL     1      13.893  11.270  20.564  0.00  0.00    +0.000 C 
ATOM      8  C   UNL     1      14.136  11.985  21.916  0.00  0.00    +0.032 C 
ATOM      9  C   UNL     1      12.387  11.165  20.276  0.00  0.00    +0.012 C 
ATOM     10  C   UNL     1      11.635  10.396  21.377  0.00  0.00    +0.023 C 
ATOM     12  C   UNL     1      12.028  10.868  22.763  0.00  0.00    -0.073 C 
ATOM     13  C   UNL     1      13.142  11.588  22.982  0.00  0.00    -0.022 C 
ATOM     18  C   UNL     1      11.086  10.532  23.886  0.00  0.00    +0.039 C 
ENDROOT
BRANCH   7  11
ATOM     11  C   UNL     1      14.595  11.987  19.407  0.00  0.00    -0.013 C 
ATOM     16  C   UNL     1      15.047  10.981  18.353  0.00  0.00    +0.007 C 
ATOM     17  C   UNL     1      13.672  13.035  18.793  0.00  0.00    +0.007 C 
ENDBRANCH   7  11
BRANCH  10  14
ATOM     14  C   UNL     1      11.842   8.884  21.234  0.00  0.00    +0.103 C 
BRANCH  14  19
ATOM      1  O   UNL     1      10.479   8.527  19.314  0.00  0.00    -0.276 OA
ATOM      4  N   UNL     1      12.726   8.025  19.122  0.00  0.00    -0.301 N 
ATOM     19  C   UNL     1      11.608   8.467  19.804  0.00  0.00    +0.216 C 
ATOM     20  C   UNL     1      12.666   7.582  17.737  0.00  0.00    +0.108 C 
ATOM     21  C   UNL     1      14.087   7.935  19.642  0.00  0.00    +0.108 C 
ATOM     22  C   UNL     1      14.121   7.505  17.299  0.00  0.00    +0.020 C 
ATOM     23  C   UNL     1      14.844   7.138  18.588  0.00  0.00    +0.020 C 
ENDBRANCH  14  19
ENDBRANCH  10  14
BRANCH   8  15
ATOM     15  C   UNL     1      15.560  11.733  22.426  0.00  0.00    +0.113 C 
BRANCH  15   5
ATOM      2  O   UNL     1      17.798  10.461  21.171  0.00  0.00    -0.253 OA
ATOM      5  N   UNL     1      15.859  10.335  22.427  0.00  0.00    -0.299 N 
ATOM      6  N   UNL     1      17.014   8.393  21.956  0.00  0.00    -0.269 N 
ATOM     24  C   UNL     1      16.982   9.780  21.786  0.00  0.00    +0.304 C 
ATOM     32  H   UNL     1      15.270   9.714  22.973  0.00  0.00    +0.150 HD
ATOM     33  H   UNL     1      16.255   7.981  22.494  0.00  0.00    +0.156 HD
BRANCH   6  25
ATOM     25  C   UNL     1      17.977   7.480  21.466  0.00  0.00    +0.038 A 
ATOM     26  C   UNL     1      19.242   7.419  22.051  0.00  0.00    +0.069 A 
ATOM     27  C   UNL     1      17.661   6.640  20.397  0.00  0.00    +0.023 A 
ATOM     28  C   UNL     1      20.191   6.520  21.565  0.00  0.00    +0.122 A 
ATOM     29  C   UNL     1      18.611   5.742  19.912  0.00  0.00    +0.005 A 
ATOM     30  C   UNL     1      19.875   5.680  20.496  0.00  0.00    +0.046 A 
BRANCH  28   3
ATOM      3  O   UNL     1      21.426   6.461  22.135  0.00  0.00    -0.495 OA
ATOM     31  C   UNL     1      21.955   5.164  22.406  0.00  0.00    +0.277 C 
ENDBRANCH  28   3
ENDBRANCH   6  25
ENDBRANCH  15   5
ENDBRANCH   8  15
TORSDOF 7
ENDMDL
MODEL 2
REMARK VINA RESULT:      -6.5     26.527     30.324
REMARK  Name = 38028765
REMARK  11 active torsions:
REMARK  status: ('A' for Active; 'I' for Inactive)
REMARK    1  A    between atoms: O_3  and  C_28
REMARK    2  A    between atoms: O_3  and  C_31
REMARK    3  A    between atoms: N_5  and  C_15
REMARK    4  A    between atoms: N_6  and  C_25
REMARK    5  A    between atoms: C_7  and  C_11
REMARK    6  A    between atoms: C_8  and  C_15
REMARK    7  A    between atoms: C_10  and  C_14
REMARK    8  A    between atoms: C_11  and  C_16
REMARK    9  A    between atoms: C_11  and  C_17
REMARK   10  A    between atoms: C_12  and  C_18
REMARK   11  A    between atoms: C_14  and  C_19
REMARK                            x       y       z     vdW  Elec       q    Type
REMARK                         _______ _______ _______ _____ _____    ______ ____
ROOT
ATOM      7  C   UNL     1      -4.900 -12.277  16.188  0.00  0.00    +0.000 C 
ATOM      8  C   UNL     1      -4.107 -11.709  17.391  0.00  0.00    +0.032 C 
ATOM      9  C   UNL     1      -3.938 -12.722  15.074  0.00  0.00    +0.012 C 
ATOM     10  C   UNL     1      -3.053 -11.566  14.573  0.00  0.00    +0.023 C 
ATOM     12  C   UNL     1      -2.445 -10.784  15.720  0.00  0.00    -0.073 C 
ATOM     13  C   UNL     1      -2.921 -10.871  16.975  0.00  0.00    -0.022 C 
ATOM     18  C   UNL     1      -1.246  -9.935  15.401  0.00  0.00    +0.039 C 
ENDROOT
BRANCH   7  11
ATOM     11  C   UNL     1      -5.795 -13.450  16.600  0.00  0.00    -0.013 C 
ATOM     16  C   UNL     1      -7.145 -13.361  15.896  0.00  0.00    +0.007 C 
ATOM     17  C   UNL     1      -5.110 -14.777  16.289  0.00  0.00    +0.007 C 
ENDBRANCH   7  11
BRANCH  10  14
ATOM     14  C   UNL     1      -3.832 -10.642  13.631  0.00  0.00    +0.103 C 
BRANCH  14  19
ATOM      1  O   UNL     1      -1.967 -10.984  12.190  0.00  0.00    -0.276 OA
ATOM      4  N   UNL     1      -3.751  -9.786  11.341  0.00  0.00    -0.301 N 
ATOM     19  C   UNL     1      -3.090 -10.495  12.327  0.00  0.00    +0.216 C 
ATOM     20  C   UNL     1      -3.167  -9.552  10.029  0.00  0.00    +0.108 C 
ATOM     21  C   UNL     1      -5.078  -9.188  11.438  0.00  0.00    +0.108 C 
ATOM     22  C   UNL     1      -4.325  -9.044   9.182  0.00  0.00    +0.020 C 
ATOM     23  C   UNL     1      -5.191  -8.311  10.199  0.00  0.00    +0.020 C 
ENDBRANCH  14  19
ENDBRANCH  10  14
BRANCH   8  15
ATOM     15  C   UNL     1      -5.016 -10.885  18.312  0.00  0.00    +0.113 C 
BRANCH  15   5
ATOM      2  O   UNL     1      -7.809 -10.597  18.878  0.00  0.00    -0.253 OA
ATOM      5  N   UNL     1      -5.969 -10.141  17.550  0.00  0.00    -0.299 N 
ATOM      6  N   UNL     1      -8.018  -9.252  16.965  0.00  0.00    -0.269 N 
ATOM     24  C   UNL     1      -7.331 -10.044  17.890  0.00  0.00    +0.304 C 
ATOM     32  H   UNL     1      -5.639  -9.597  16.759  0.00  0.00    +0.150 HD
ATOM     33  H   UNL     1      -7.471  -8.868  16.199  0.00  0.00    +0.156 HD
BRANCH   6  25
ATOM     25  C   UNL     1      -9.392  -8.918  16.960  0.00  0.00    +0.038 A 
ATOM     26  C   UNL     1      -9.794  -7.621  16.641  0.00  0.00    +0.069 A 
ATOM     27  C   UNL     1     -10.346  -9.887  17.273  0.00  0.00    +0.023 A 
ATOM     28  C   UNL     1     -11.150  -7.292  16.637  0.00  0.00    +0.122 A 
ATOM     29  C   UNL     1     -11.702  -9.558  17.269  0.00  0.00    +0.005 A 
ATOM     30  C   UNL     1     -12.104  -8.261  16.951  0.00  0.00    +0.046 A 
BRANCH  28   3
ATOM      3  O   UNL     1     -11.541  -6.026  16.327  0.00  0.00    -0.495 OA
ATOM     31  C   UNL     1     -11.789  -5.742  14.951  0.00  0.00    +0.277 C 
ENDBRANCH  28   3
ENDBRANCH   6  25
ENDBRANCH  15   5
ENDBRANCH   8  15
TORSDOF 7
ENDMDL
MODEL 3
REMARK VINA RESULT:      -6.5     28.241     30.526
REMARK  Name = 38028765
REMARK  11 active torsions:
REMARK  status: ('A' for Active; 'I' for Inactive)
REMARK    1  A    between atoms: O_3  and  C_28
REMARK    2  A    between atoms: O_3  and  C_31
REMARK    3  A    between atoms: N_5  and  C_15
REMARK    4  A    between atoms: N_6  and  C_25
REMARK    5  A    between atoms: C_7  and  C_11
REMARK    6  A    between atoms: C_8  and  C_15
REMARK    7  A    between atoms: C_10  and  C_14
REMARK    8  A    between atoms: C_11  and  C_16
REMARK    9  A    between atoms: C_11  and  C_17
REMARK   10  A    between atoms: C_12  and  C_18
REMARK   11  A    between atoms: C_14  and  C_19
REMARK                            x       y       z     vdW  Elec       q    Type
REMARK                         _______ _______ _______ _____ _____    ______ ____
ROOT
ATOM      7  C   UNL     1      -5.012  -9.907  10.316  0.00  0.00    +0.000 C 
ATOM      8  C   UNL     1      -6.084  -8.882  10.765  0.00  0.00    +0.032 C 
ATOM      9  C   UNL     1      -4.451  -9.525   8.937  0.00  0.00    +0.012 C 
ATOM     10  C   UNL     1      -5.549  -9.462   7.859  0.00  0.00    +0.023 C 
ATOM     12  C   UNL     1      -6.762  -8.688   8.334  0.00  0.00    -0.073 C 
ATOM     13  C   UNL     1      -6.977  -8.427   9.635  0.00  0.00    -0.022 C 
ATOM     18  C   UNL     1      -7.699  -8.179   7.274  0.00  0.00    +0.039 C 
ENDROOT
BRANCH   7  11
ATOM     11  C   UNL     1      -3.869 -10.015  11.329  0.00  0.00    -0.013 C 
ATOM     16  C   UNL     1      -3.726 -11.453  11.818  0.00  0.00    +0.007 C 
ATOM     17  C   UNL     1      -2.563  -9.521  10.714  0.00  0.00    +0.007 C 
ENDBRANCH   7  11
BRANCH  10  14
ATOM     14  C   UNL     1      -5.944 -10.867   7.390  0.00  0.00    +0.103 C 
BRANCH  14  19
ATOM      1  O   UNL     1      -6.248 -10.423   5.069  0.00  0.00    -0.276 OA
ATOM      4  N   UNL     1      -4.570 -11.901   5.651  0.00  0.00    -0.301 N 
ATOM     19  C   UNL     1      -5.610 -11.033   5.929  0.00  0.00    +0.216 C 
ATOM     20  C   UNL     1      -4.129 -12.174   4.291  0.00  0.00    +0.108 C 
ATOM     21  C   UNL     1      -3.774 -12.648   6.619  0.00  0.00    +0.108 C 
ATOM     22  C   UNL     1      -2.798 -12.892   4.459  0.00  0.00    +0.020 C 
ATOM     23  C   UNL     1      -2.979 -13.636   5.776  0.00  0.00    +0.020 C 
ENDBRANCH  14  19
ENDBRANCH  10  14
BRANCH   8  15
ATOM     15  C   UNL     1      -6.946  -9.448  11.901  0.00  0.00    +0.113 C 
BRANCH  15   5
ATOM      2  O   UNL     1      -6.797 -11.225  14.142  0.00  0.00    -0.253 OA
ATOM      5  N   UNL     1      -6.354  -9.172  13.173  0.00  0.00    -0.299 N 
ATOM      6  N   UNL     1      -5.677  -9.551  15.347  0.00  0.00    -0.269 N 
ATOM     24  C   UNL     1      -6.317 -10.098  14.231  0.00  0.00    +0.304 C 
ATOM     32  H   UNL     1      -5.874  -8.286  13.302  0.00  0.00    +0.150 HD
ATOM     33  H   UNL     1      -5.338  -8.596  15.256  0.00  0.00    +0.156 HD
BRANCH   6  25
ATOM     25  C   UNL     1      -5.443 -10.163  16.600  0.00  0.00    +0.038 A 
ATOM     26  C   UNL     1      -6.430 -10.133  17.586  0.00  0.00    +0.069 A 
ATOM     27  C   UNL     1      -4.225 -10.796  16.851  0.00  0.00    +0.023 A 
ATOM     28  C   UNL     1      -6.197 -10.735  18.823  0.00  0.00    +0.122 A 
ATOM     29  C   UNL     1      -3.994 -11.397  18.087  0.00  0.00    +0.005 A 
ATOM     30  C   UNL     1      -4.980 -11.369  19.073  0.00  0.00    +0.046 A 
BRANCH  28   3
ATOM      3  O   UNL     1      -7.160 -10.706  19.785  0.00  0.00    -0.495 OA
ATOM     31  C   UNL     1      -8.456 -11.179  19.422  0.00  0.00    +0.277 C 
ENDBRANCH  28   3
ENDBRANCH   6  25
ENDBRANCH  15   5
ENDBRANCH   8  15
TORSDOF 7
ENDMDL
MODEL 4
REMARK VINA RESULT:      -6.4     26.196     28.469
REMARK  Name = 38028765
REMARK  11 active torsions:
REMARK  status: ('A' for Active; 'I' for Inactive)
REMARK    1  A    between atoms: O_3  and  C_28
REMARK    2  A    between atoms: O_3  and  C_31
REMARK    3  A    between atoms: N_5  and  C_15
REMARK    4  A    between atoms: N_6  and  C_25
REMARK    5  A    between atoms: C_7  and  C_11
REMARK    6  A    between atoms: C_8  and  C_15
REMARK    7  A    between atoms: C_10  and  C_14
REMARK    8  A    between atoms: C_11  and  C_16
REMARK    9  A    between atoms: C_11  and  C_17
REMARK   10  A    between atoms: C_12  and  C_18
REMARK   11  A    between atoms: C_14  and  C_19
REMARK                            x       y       z     vdW  Elec       q    Type
REMARK                         _______ _______ _______ _____ _____    ______ ____
ROOT
ATOM      7  C   UNL     1     -12.300   8.814  19.786  0.00  0.00    +0.000 C 
ATOM      8  C   UNL     1     -11.545  10.079  20.267  0.00  0.00    +0.032 C 
ATOM      9  C   UNL     1     -11.469   8.062  18.734  0.00  0.00    +0.012 C 
ATOM     10  C   UNL     1     -11.152   8.937  17.508  0.00  0.00    +0.023 C 
ATOM     12  C   UNL     1     -10.651  10.310  17.910  0.00  0.00    -0.073 C 
ATOM     13  C   UNL     1     -10.824  10.798  19.151  0.00  0.00    -0.022 C 
ATOM     18  C   UNL     1      -9.905  11.092  16.865  0.00  0.00    +0.039 C 
ENDROOT
BRANCH   7  11
ATOM     11  C   UNL     1     -12.637   7.876  20.949  0.00  0.00    -0.013 C 
ATOM     16  C   UNL     1     -14.133   7.579  20.976  0.00  0.00    +0.007 C 
ATOM     17  C   UNL     1     -11.831   6.586  20.843  0.00  0.00    +0.007 C 
ENDBRANCH   7  11
BRANCH  10  14
ATOM     14  C   UNL     1     -12.365   9.047  16.578  0.00  0.00    +0.103 C 
BRANCH  14  19
ATOM      1  O   UNL     1     -10.876   8.462  14.813  0.00  0.00    -0.276 OA
ATOM      4  N   UNL     1     -13.105   7.922  14.536  0.00  0.00    -0.301 N 
ATOM     19  C   UNL     1     -12.035   8.452  15.232  0.00  0.00    +0.216 C 
ATOM     20  C   UNL     1     -12.953   7.317  13.221  0.00  0.00    +0.108 C 
ATOM     21  C   UNL     1     -14.495   7.875  14.976  0.00  0.00    +0.108 C 
ATOM     22  C   UNL     1     -14.270   6.593  12.981  0.00  0.00    +0.020 C 
ATOM     23  C   UNL     1     -15.273   7.455  13.736  0.00  0.00    +0.020 C 
ENDBRANCH  14  19
ENDBRANCH  10  14
BRANCH   8  15
ATOM     15  C   UNL     1     -12.494  11.053  20.974  0.00  0.00    +0.113 C 
BRANCH  15   5
ATOM      2  O   UNL     1     -13.219   9.941  23.512  0.00  0.00    -0.253 OA
ATOM      5  N   UNL     1     -11.976  11.431  22.251  0.00  0.00    -0.299 N 
ATOM      6  N   UNL     1     -11.705  11.408  24.543  0.00  0.00    -0.269 N 
ATOM     24  C   UNL     1     -12.381  10.838  23.461  0.00  0.00    +0.304 C 
ATOM     32  H   UNL     1     -11.229  12.117  22.287  0.00  0.00    +0.150 HD
ATOM     33  H   UNL     1     -11.041  12.148  24.328  0.00  0.00    +0.156 HD
BRANCH   6  25
ATOM     25  C   UNL     1     -11.834  11.086  25.915  0.00  0.00    +0.038 A 
ATOM     26  C   UNL     1     -12.928  11.556  26.642  0.00  0.00    +0.069 A 
ATOM     27  C   UNL     1     -10.866  10.299  26.540  0.00  0.00    +0.023 A 
ATOM     28  C   UNL     1     -13.053  11.239  27.995  0.00  0.00    +0.122 A 
ATOM     29  C   UNL     1     -10.992   9.983  27.893  0.00  0.00    +0.005 A 
ATOM     30  C   UNL     1     -12.086  10.452  28.620  0.00  0.00    +0.046 A 
BRANCH  28   3
ATOM      3  O   UNL     1     -14.120  11.699  28.704  0.00  0.00    -0.495 OA
ATOM     31  C   UNL     1     -14.313  11.157  30.010  0.00  0.00    +0.277 C 
ENDBRANCH  28   3
ENDBRANCH   6  25
ENDBRANCH  15   5
ENDBRANCH   8  15
TORSDOF 7
ENDMDL
MODEL 5
REMARK VINA RESULT:      -6.3      2.113      4.887
REMARK  Name = 38028765
REMARK  11 active torsions:
REMARK  status: ('A' for Active; 'I' for Inactive)
REMARK    1  A    between atoms: O_3  and  C_28
REMARK    2  A    between atoms: O_3  and  C_31
REMARK    3  A    between atoms: N_5  and  C_15
REMARK    4  A    between atoms: N_6  and  C_25
REMARK    5  A    between atoms: C_7  and  C_11
REMARK    6  A    between atoms: C_8  and  C_15
REMARK    7  A    between atoms: C_10  and  C_14
REMARK    8  A    between atoms: C_11  and  C_16
REMARK    9  A    between atoms: C_11  and  C_17
REMARK   10  A    between atoms: C_12  and  C_18
REMARK   11  A    between atoms: C_14  and  C_19
REMARK                            x       y       z     vdW  Elec       q    Type
REMARK                         _______ _______ _______ _____ _____    ______ ____
ROOT
ATOM      7  C   UNL     1      11.937   8.536  20.613  0.00  0.00    +0.000 C 
ATOM      8  C   UNL     1      12.065   8.372  19.078  0.00  0.00    +0.032 C 
ATOM      9  C   UNL     1      11.660  10.004  20.974  0.00  0.00    +0.012 C 
ATOM     10  C   UNL     1      12.769  10.947  20.474  0.00  0.00    +0.023 C 
ATOM     12  C   UNL     1      13.142  10.663  19.032  0.00  0.00    -0.073 C 
ATOM     13  C   UNL     1      12.807   9.513  18.421  0.00  0.00    -0.022 C 
ATOM     18  C   UNL     1      13.868  11.752  18.293  0.00  0.00    +0.039 C 
ENDROOT
BRANCH   7  11
ATOM     11  C   UNL     1      10.836   7.642  21.191  0.00  0.00    -0.013 C 
ATOM     16  C   UNL     1      11.389   6.259  21.517  0.00  0.00    +0.007 C 
ATOM     17  C   UNL     1      10.224   8.285  22.431  0.00  0.00    +0.007 C 
ENDBRANCH   7  11
BRANCH  10  14
ATOM     14  C   UNL     1      14.003  10.880  21.382  0.00  0.00    +0.103 C 
BRANCH  14  19
ATOM      1  O   UNL     1      13.470  12.845  22.618  0.00  0.00    -0.276 OA
ATOM      4  N   UNL     1      15.551  12.759  21.618  0.00  0.00    -0.301 N 
ATOM     19  C   UNL     1      14.305  12.249  21.936  0.00  0.00    +0.216 C 
ATOM     20  C   UNL     1      15.992  14.070  22.072  0.00  0.00    +0.108 C 
ATOM     21  C   UNL     1      16.584  12.105  20.822  0.00  0.00    +0.108 C 
ATOM     22  C   UNL     1      17.487  14.086  21.789  0.00  0.00    +0.020 C 
ATOM     23  C   UNL     1      17.609  13.199  20.557  0.00  0.00    +0.020 C 
ENDBRANCH  14  19
ENDBRANCH  10  14
BRANCH   8  15
ATOM     15  C   UNL     1      12.747   7.046  18.719  0.00  0.00    +0.113 C 
BRANCH  15   5
ATOM      2  O   UNL     1      14.641   6.399  20.768  0.00  0.00    -0.253 OA
ATOM      5  N   UNL     1      14.165   7.206  18.652  0.00  0.00    -0.299 N 
ATOM      6  N   UNL     1      16.364   7.130  19.351  0.00  0.00    -0.269 N 
ATOM     24  C   UNL     1      15.037   6.865  19.702  0.00  0.00    +0.304 C 
ATOM     32  H   UNL     1      14.577   7.519  17.778  0.00  0.00    +0.150 HD
ATOM     33  H   UNL     1      16.522   7.520  18.426  0.00  0.00    +0.156 HD
BRANCH   6  25
ATOM     25  C   UNL     1      17.526   6.925  20.131  0.00  0.00    +0.038 A 
ATOM     26  C   UNL     1      18.405   5.888  19.816  0.00  0.00    +0.069 A 
ATOM     27  C   UNL     1      17.793   7.760  21.217  0.00  0.00    +0.023 A 
ATOM     28  C   UNL     1      19.550   5.686  20.587  0.00  0.00    +0.122 A 
ATOM     29  C   UNL     1      18.938   7.557  21.988  0.00  0.00    +0.005 A 
ATOM     30  C   UNL     1      19.816   6.521  21.672  0.00  0.00    +0.046 A 
BRANCH  28   3
ATOM      3  O   UNL     1      20.406   4.674  20.279  0.00  0.00    -0.495 OA
ATOM     31  C   UNL     1      21.802   4.947  20.396  0.00  0.00    +0.277 C 
ENDBRANCH  28   3
ENDBRANCH   6  25
ENDBRANCH  15   5
ENDBRANCH   8  15
TORSDOF 7
ENDMDL
MODEL 6
REMARK VINA RESULT:      -6.2     27.419     30.147
REMARK  Name = 38028765
REMARK  11 active torsions:
REMARK  status: ('A' for Active; 'I' for Inactive)
REMARK    1  A    between atoms: O_3  and  C_28
REMARK    2  A    between atoms: O_3  and  C_31
REMARK    3  A    between atoms: N_5  and  C_15
REMARK    4  A    between atoms: N_6  and  C_25
REMARK    5  A    between atoms: C_7  and  C_11
REMARK    6  A    between atoms: C_8  and  C_15
REMARK    7  A    between atoms: C_10  and  C_14
REMARK    8  A    between atoms: C_11  and  C_16
REMARK    9  A    between atoms: C_11  and  C_17
REMARK   10  A    between atoms: C_12  and  C_18
REMARK   11  A    between atoms: C_14  and  C_19
REMARK                            x       y       z     vdW  Elec       q    Type
REMARK                         _______ _______ _______ _____ _____    ______ ____
ROOT
ATOM      7  C   UNL     1      -2.828 -12.660  13.349  0.00  0.00    +0.000 C 
ATOM      8  C   UNL     1      -1.740 -11.564  13.480  0.00  0.00    +0.032 C 
ATOM      9  C   UNL     1      -3.123 -12.948  11.868  0.00  0.00    +0.012 C 
ATOM     10  C   UNL     1      -3.601 -11.692  11.115  0.00  0.00    +0.023 C 
ATOM     12  C   UNL     1      -2.726 -10.490  11.410  0.00  0.00    -0.073 C 
ATOM     13  C   UNL     1      -1.891 -10.457  12.464  0.00  0.00    -0.022 C 
ATOM     18  C   UNL     1      -2.798  -9.345  10.438  0.00  0.00    +0.039 C 
ENDROOT
BRANCH   7  11
ATOM     11  C   UNL     1      -2.419 -13.955  14.057  0.00  0.00    -0.013 C 
ATOM     16  C   UNL     1      -3.606 -14.909  14.150  0.00  0.00    +0.007 C 
ATOM     17  C   UNL     1      -1.251 -14.614  13.329  0.00  0.00    +0.007 C 
ENDBRANCH   7  11
BRANCH  10  14
ATOM     14  C   UNL     1      -5.072 -11.389  11.425  0.00  0.00    +0.103 C 
BRANCH  14  19
ATOM      1  O   UNL     1      -6.006 -12.745   9.704  0.00  0.00    -0.276 OA
ATOM      4  N   UNL     1      -6.539 -10.497   9.683  0.00  0.00    -0.301 N 
ATOM     19  C   UNL     1      -5.912 -11.619  10.194  0.00  0.00    +0.216 C 
ATOM     20  C   UNL     1      -7.380 -10.551   8.497  0.00  0.00    +0.108 C 
ATOM     21  C   UNL     1      -6.473  -9.141  10.217  0.00  0.00    +0.108 C 
ATOM     22  C   UNL     1      -8.108  -9.214   8.485  0.00  0.00    +0.020 C 
ATOM     23  C   UNL     1      -7.099  -8.274   9.133  0.00  0.00    +0.020 C 
ENDBRANCH  14  19
ENDBRANCH  10  14
BRANCH   8  15
ATOM     15  C   UNL     1      -1.729 -10.965  14.891  0.00  0.00    +0.113 C 
BRANCH  15   5
ATOM      2  O   UNL     1      -3.932 -11.829  16.505  0.00  0.00    -0.253 OA
ATOM      5  N   UNL     1      -2.937 -10.243  15.146  0.00  0.00    -0.299 N 
ATOM      6  N   UNL     1      -5.029  -9.811  16.020  0.00  0.00    -0.269 N 
ATOM     24  C   UNL     1      -3.980 -10.733  15.953  0.00  0.00    +0.304 C 
ATOM     32  H   UNL     1      -3.022  -9.299  14.782  0.00  0.00    +0.150 HD
ATOM     33  H   UNL     1      -4.911  -8.947  15.498  0.00  0.00    +0.156 HD
BRANCH   6  25
ATOM     25  C   UNL     1      -6.249  -9.934  16.725  0.00  0.00    +0.038 A 
ATOM     26  C   UNL     1      -6.269 -10.535  17.984  0.00  0.00    +0.069 A 
ATOM     27  C   UNL     1      -7.432  -9.455  16.162  0.00  0.00    +0.023 A 
ATOM     28  C   UNL     1      -7.473 -10.658  18.679  0.00  0.00    +0.122 A 
ATOM     29  C   UNL     1      -8.635  -9.578  16.857  0.00  0.00    +0.005 A 
ATOM     30  C   UNL     1      -8.656 -10.178  18.115  0.00  0.00    +0.046 A 
BRANCH  28   3
ATOM      3  O   UNL     1      -7.492 -11.245  19.906  0.00  0.00    -0.495 OA
ATOM     31  C   UNL     1      -7.894 -12.613  19.966  0.00  0.00    +0.277 C 
ENDBRANCH  28   3
ENDBRANCH   6  25
ENDBRANCH  15   5
ENDBRANCH   8  15
TORSDOF 7
ENDMDL
MODEL 7
REMARK VINA RESULT:      -6.1      2.846      4.752
REMARK  Name = 38028765
REMARK  11 active torsions:
REMARK  status: ('A' for Active; 'I' for Inactive)
REMARK    1  A    between atoms: O_3  and  C_28
REMARK    2  A    between atoms: O_3  and  C_31
REMARK    3  A    between atoms: N_5  and  C_15
REMARK    4  A    between atoms: N_6  and  C_25
REMARK    5  A    between atoms: C_7  and  C_11
REMARK    6  A    between atoms: C_8  and  C_15
REMARK    7  A    between atoms: C_10  and  C_14
REMARK    8  A    between atoms: C_11  and  C_16
REMARK    9  A    between atoms: C_11  and  C_17
REMARK   10  A    between atoms: C_12  and  C_18
REMARK   11  A    between atoms: C_14  and  C_19
REMARK                            x       y       z     vdW  Elec       q    Type
REMARK                         _______ _______ _______ _____ _____    ______ ____
ROOT
ATOM      7  C   UNL     1      13.507   9.403  19.954  0.00  0.00    +0.000 C 
ATOM      8  C   UNL     1      12.650   8.249  19.378  0.00  0.00    +0.032 C 
ATOM      9  C   UNL     1      13.128  10.737  19.290  0.00  0.00    +0.012 C 
ATOM     10  C   UNL     1      13.320  10.701  17.763  0.00  0.00    +0.023 C 
ATOM     12  C   UNL     1      12.730   9.447  17.149  0.00  0.00    -0.073 C 
ATOM     13  C   UNL     1      12.425   8.366  17.889  0.00  0.00    -0.022 C 
ATOM     18  C   UNL     1      12.455   9.480  15.671  0.00  0.00    +0.039 C 
ENDROOT
BRANCH   7  11
ATOM     11  C   UNL     1      13.357   9.520  21.474  0.00  0.00    -0.013 C 
ATOM     16  C   UNL     1      14.726   9.595  22.141  0.00  0.00    +0.007 C 
ATOM     17  C   UNL     1      12.513  10.738  21.834  0.00  0.00    +0.007 C 
ENDBRANCH   7  11
BRANCH  10  14
ATOM     14  C   UNL     1      14.798  10.852  17.388  0.00  0.00    +0.103 C 
BRANCH  14  19
ATOM      1  O   UNL     1      14.904  13.230  17.466  0.00  0.00    -0.276 OA
ATOM      4  N   UNL     1      15.403  12.216  15.450  0.00  0.00    -0.301 N 
ATOM     19  C   UNL     1      15.038  12.212  16.784  0.00  0.00    +0.216 C 
ATOM     20  C   UNL     1      15.664  13.448  14.720  0.00  0.00    +0.108 C 
ATOM     21  C   UNL     1      15.584  11.051  14.591  0.00  0.00    +0.108 C 
ATOM     22  C   UNL     1      16.332  12.993  13.432  0.00  0.00    +0.020 C 
ATOM     23  C   UNL     1      15.702  11.628  13.187  0.00  0.00    +0.020 C 
ENDBRANCH  14  19
ENDBRANCH  10  14
BRANCH   8  15
ATOM     15  C   UNL     1      13.276   6.885  19.694  0.00  0.00    +0.113 C 
BRANCH  15   5
ATOM      2  O   UNL     1      15.492   6.229  21.386  0.00  0.00    -0.253 OA
ATOM      5  N   UNL     1      14.656   6.862  19.323  0.00  0.00    -0.299 N 
ATOM      6  N   UNL     1      16.935   6.591  19.570  0.00  0.00    -0.269 N 
ATOM     24  C   UNL     1      15.695   6.529  20.212  0.00  0.00    +0.304 C 
ATOM     32  H   UNL     1      14.899   7.029  18.352  0.00  0.00    +0.150 HD
ATOM     33  H   UNL     1      16.928   6.860  18.589  0.00  0.00    +0.156 HD
BRANCH   6  25
ATOM     25  C   UNL     1      18.211   6.328  20.120  0.00  0.00    +0.038 A 
ATOM     26  C   UNL     1      18.774   7.219  21.034  0.00  0.00    +0.069 A 
ATOM     27  C   UNL     1      18.907   5.177  19.749  0.00  0.00    +0.023 A 
ATOM     28  C   UNL     1      20.033   6.960  21.575  0.00  0.00    +0.122 A 
ATOM     29  C   UNL     1      20.166   4.919  20.290  0.00  0.00    +0.005 A 
ATOM     30  C   UNL     1      20.729   5.809  21.204  0.00  0.00    +0.046 A 
BRANCH  28   3
ATOM      3  O   UNL     1      20.583   7.831  22.466  0.00  0.00    -0.495 OA
ATOM     31  C   UNL     1      21.669   8.633  22.004  0.00  0.00    +0.277 C 
ENDBRANCH  28   3
ENDBRANCH   6  25
ENDBRANCH  15   5
ENDBRANCH   8  15
TORSDOF 7
ENDMDL
MODEL 8
REMARK VINA RESULT:      -6.0      2.335      4.675
REMARK  Name = 38028765
REMARK  11 active torsions:
REMARK  status: ('A' for Active; 'I' for Inactive)
REMARK    1  A    between atoms: O_3  and  C_28
REMARK    2  A    between atoms: O_3  and  C_31
REMARK    3  A    between atoms: N_5  and  C_15
REMARK    4  A    between atoms: N_6  and  C_25
REMARK    5  A    between atoms: C_7  and  C_11
REMARK    6  A    between atoms: C_8  and  C_15
REMARK    7  A    between atoms: C_10  and  C_14
REMARK    8  A    between atoms: C_11  and  C_16
REMARK    9  A    between atoms: C_11  and  C_17
REMARK   10  A    between atoms: C_12  and  C_18
REMARK   11  A    between atoms: C_14  and  C_19
REMARK                            x       y       z     vdW  Elec       q    Type
REMARK                         _______ _______ _______ _____ _____    ______ ____
ROOT
ATOM      7  C   UNL     1      13.244   8.662  19.676  0.00  0.00    +0.000 C 
ATOM      8  C   UNL     1      14.662   8.560  20.292  0.00  0.00    +0.032 C 
ATOM      9  C   UNL     1      12.956  10.105  19.231  0.00  0.00    +0.012 C 
ATOM     10  C   UNL     1      13.054  11.105  20.397  0.00  0.00    +0.023 C 
ATOM     12  C   UNL     1      14.308  10.888  21.222  0.00  0.00    -0.073 C 
ATOM     13  C   UNL     1      15.020   9.750  21.151  0.00  0.00    -0.022 C 
ATOM     18  C   UNL     1      14.750  12.030  22.094  0.00  0.00    +0.039 C 
ENDROOT
BRANCH   7  11
ATOM     11  C   UNL     1      13.070   7.709  18.490  0.00  0.00    -0.013 C 
ATOM     16  C   UNL     1      11.797   8.045  17.720  0.00  0.00    +0.007 C 
ATOM     17  C   UNL     1      14.288   7.770  17.574  0.00  0.00    +0.007 C 
ENDBRANCH   7  11
BRANCH  10  14
ATOM     14  C   UNL     1      11.802  11.049  21.280  0.00  0.00    +0.103 C 
BRANCH  14  19
ATOM      1  O   UNL     1      11.323  13.337  20.819  0.00  0.00    -0.276 OA
ATOM      4  N   UNL     1      11.098  12.631  23.008  0.00  0.00    -0.301 N 
ATOM     19  C   UNL     1      11.386  12.446  21.668  0.00  0.00    +0.216 C 
ATOM     20  C   UNL     1      10.689  13.921  23.543  0.00  0.00    +0.108 C 
ATOM     21  C   UNL     1      11.148  11.620  24.059  0.00  0.00    +0.108 C 
ATOM     22  C   UNL     1      10.170  13.607  24.938  0.00  0.00    +0.020 C 
ATOM     23  C   UNL     1      11.018  12.411  25.353  0.00  0.00    +0.020 C 
ENDBRANCH  14  19
ENDBRANCH  10  14
BRANCH   8  15
ATOM     15  C   UNL     1      14.816   7.274  21.112  0.00  0.00    +0.113 C 
BRANCH  15   5
ATOM      2  O   UNL     1      17.101   6.407  19.620  0.00  0.00    -0.253 OA
ATOM      5  N   UNL     1      16.153   7.139  21.599  0.00  0.00    -0.299 N 
ATOM      6  N   UNL     1      18.413   6.672  21.548  0.00  0.00    -0.269 N 
ATOM     24  C   UNL     1      17.230   6.705  20.805  0.00  0.00    +0.304 C 
ATOM     32  H   UNL     1      16.354   7.433  22.550  0.00  0.00    +0.150 HD
ATOM     33  H   UNL     1      18.346   6.949  22.524  0.00  0.00    +0.156 HD
BRANCH   6  25
ATOM     25  C   UNL     1      19.703   6.293  21.110  0.00  0.00    +0.038 A 
ATOM     26  C   UNL     1      20.680   7.265  20.893  0.00  0.00    +0.069 A 
ATOM     27  C   UNL     1      19.999   4.947  20.896  0.00  0.00    +0.023 A 
ATOM     28  C   UNL     1      21.952   6.891  20.459  0.00  0.00    +0.122 A 
ATOM     29  C   UNL     1      21.271   4.573  20.462  0.00  0.00    +0.005 A 
ATOM     30  C   UNL     1      22.247   5.544  20.244  0.00  0.00    +0.046 A 
BRANCH  28   3
ATOM      3  O   UNL     1      22.904   7.840  20.246  0.00  0.00    -0.495 OA
ATOM     31  C   UNL     1      22.451   9.151  19.915  0.00  0.00    +0.277 C 
ENDBRANCH  28   3
ENDBRANCH   6  25
ENDBRANCH  15   5
ENDBRANCH   8  15
TORSDOF 7
ENDMDL
MODEL 9
REMARK VINA RESULT:      -6.0      2.271      4.731
REMARK  Name = 38028765
REMARK  11 active torsions:
REMARK  status: ('A' for Active; 'I' for Inactive)
REMARK    1  A    between atoms: O_3  and  C_28
REMARK    2  A    between atoms: O_3  and  C_31
REMARK    3  A    between atoms: N_5  and  C_15
REMARK    4  A    between atoms: N_6  and  C_25
REMARK    5  A    between atoms: C_7  and  C_11
REMARK    6  A    between atoms: C_8  and  C_15
REMARK    7  A    between atoms: C_10  and  C_14
REMARK    8  A    between atoms: C_11  and  C_16
REMARK    9  A    between atoms: C_11  and  C_17
REMARK   10  A    between atoms: C_12  and  C_18
REMARK   11  A    between atoms: C_14  and  C_19
REMARK                            x       y       z     vdW  Elec       q    Type
REMARK                         _______ _______ _______ _____ _____    ______ ____
ROOT
ATOM      7  C   UNL     1      12.848   8.998  20.594  0.00  0.00    +0.000 C 
ATOM      8  C   UNL     1      12.218   7.858  19.756  0.00  0.00    +0.032 C 
ATOM      9  C   UNL     1      12.668  10.348  19.883  0.00  0.00    +0.012 C 
ATOM     10  C   UNL     1      13.309  10.360  18.483  0.00  0.00    +0.023 C 
ATOM     12  C   UNL     1      12.946   9.122  17.687  0.00  0.00    -0.073 C 
ATOM     13  C   UNL     1      12.447   8.018  18.272  0.00  0.00    -0.022 C 
ATOM     18  C   UNL     1      13.126   9.198  16.196  0.00  0.00    +0.039 C 
ENDROOT
BRANCH   7  11
ATOM     11  C   UNL     1      12.248   9.068  22.002  0.00  0.00    -0.013 C 
ATOM     16  C   UNL     1      12.665  10.361  22.694  0.00  0.00    +0.007 C 
ATOM     17  C   UNL     1      10.728   8.955  21.938  0.00  0.00    +0.007 C 
ENDBRANCH   7  11
BRANCH  10  14
ATOM     14  C   UNL     1      14.830  10.527  18.573  0.00  0.00    +0.103 C 
BRANCH  14  19
ATOM      1  O   UNL     1      14.599  12.643  17.504  0.00  0.00    -0.276 OA
ATOM      4  N   UNL     1      16.240  12.449  19.120  0.00  0.00    -0.301 N 
ATOM     19  C   UNL     1      15.202  11.970  18.343  0.00  0.00    +0.216 C 
ATOM     20  C   UNL     1      16.721  13.819  19.013  0.00  0.00    +0.108 C 
ATOM     21  C   UNL     1      16.988  11.708  20.130  0.00  0.00    +0.108 C 
ATOM     22  C   UNL     1      17.608  14.006  20.235  0.00  0.00    +0.020 C 
ATOM     23  C   UNL     1      18.170  12.609  20.464  0.00  0.00    +0.020 C 
ENDBRANCH  14  19
ENDBRANCH  10  14
BRANCH   8  15
ATOM     15  C   UNL     1      12.738   6.488  20.208  0.00  0.00    +0.113 C 
BRANCH  15   5
ATOM      2  O   UNL     1      15.416   6.611  19.201  0.00  0.00    -0.253 OA
ATOM      5  N   UNL     1      13.934   6.627  20.978  0.00  0.00    -0.299 N 
ATOM      6  N   UNL     1      16.194   6.821  21.405  0.00  0.00    -0.269 N 
ATOM     24  C   UNL     1      15.221   6.681  20.412  0.00  0.00    +0.304 C 
ATOM     32  H   UNL     1      13.852   6.763  21.980  0.00  0.00    +0.150 HD
ATOM     33  H   UNL     1      15.863   6.861  22.366  0.00  0.00    +0.156 HD
BRANCH   6  25
ATOM     25  C   UNL     1      17.596   6.911  21.241  0.00  0.00    +0.038 A 
ATOM     26  C   UNL     1      18.310   5.824  20.734  0.00  0.00    +0.069 A 
ATOM     27  C   UNL     1      18.265   8.085  21.586  0.00  0.00    +0.023 A 
ATOM     28  C   UNL     1      19.693   5.913  20.574  0.00  0.00    +0.122 A 
ATOM     29  C   UNL     1      19.648   8.173  21.426  0.00  0.00    +0.005 A 
ATOM     30  C   UNL     1      20.362   7.088  20.919  0.00  0.00    +0.046 A 
BRANCH  28   3
ATOM      3  O   UNL     1      20.389   4.853  20.080  0.00  0.00    -0.495 OA
ATOM     31  C   UNL     1      21.249   4.163  20.986  0.00  0.00    +0.277 C 
ENDBRANCH  28   3
ENDBRANCH   6  25
ENDBRANCH  15   5
ENDBRANCH   8  15
TORSDOF 7
ENDMDL
MODEL 10
REMARK VINA RESULT:      -6.0     14.790     18.156
REMARK  Name = 38028765
REMARK  11 active torsions:
REMARK  status: ('A' for Active; 'I' for Inactive)
REMARK    1  A    between atoms: O_3  and  C_28
REMARK    2  A    between atoms: O_3  and  C_31
REMARK    3  A    between atoms: N_5  and  C_15
REMARK    4  A    between atoms: N_6  and  C_25
REMARK    5  A    between atoms: C_7  and  C_11
REMARK    6  A    between atoms: C_8  and  C_15
REMARK    7  A    between atoms: C_10  and  C_14
REMARK    8  A    between atoms: C_11  and  C_16
REMARK    9  A    between atoms: C_11  and  C_17
REMARK   10  A    between atoms: C_12  and  C_18
REMARK   11  A    between atoms: C_14  and  C_19
REMARK                            x       y       z     vdW  Elec       q    Type
REMARK                         _______ _______ _______ _____ _____    ______ ____
ROOT
ATOM      7  C   UNL     1      10.561   8.549   6.614  0.00  0.00    +0.000 C 
ATOM      8  C   UNL     1      11.766   7.614   6.891  0.00  0.00    +0.032 C 
ATOM      9  C   UNL     1       9.489   8.378   7.703  0.00  0.00    +0.012 C 
ATOM     10  C   UNL     1       8.973   6.930   7.789  0.00  0.00    +0.023 C 
ATOM     12  C   UNL     1      10.110   5.926   7.795  0.00  0.00    -0.073 C 
ATOM     13  C   UNL     1      11.353   6.254   7.403  0.00  0.00    -0.022 C 
ATOM     18  C   UNL     1       9.794   4.548   8.306  0.00  0.00    +0.039 C 
ENDROOT
BRANCH   7  11
ATOM     11  C   UNL     1      10.988  10.018   6.533  0.00  0.00    -0.013 C 
ATOM     16  C   UNL     1       9.764  10.925   6.480  0.00  0.00    +0.007 C 
ATOM     17  C   UNL     1      11.879  10.380   7.717  0.00  0.00    +0.007 C 
ENDBRANCH   7  11
BRANCH  10  14
ATOM     14  C   UNL     1       7.981   6.628   6.661  0.00  0.00    +0.103 C 
BRANCH  14  19
ATOM      1  O   UNL     1       9.457   5.500   5.170  0.00  0.00    -0.276 OA
ATOM      4  N   UNL     1       8.511   7.474   4.429  0.00  0.00    -0.301 N 
ATOM     19  C   UNL     1       8.720   6.470   5.357  0.00  0.00    +0.216 C 
ATOM     20  C   UNL     1       9.157   7.471   3.124  0.00  0.00    +0.108 C 
ATOM     21  C   UNL     1       7.652   8.642   4.585  0.00  0.00    +0.108 C 
ATOM     22  C   UNL     1       8.415   8.537   2.331  0.00  0.00    +0.020 C 
ATOM     23  C   UNL     1       8.007   9.537   3.405  0.00  0.00    +0.020 C 
ENDBRANCH  14  19
ENDBRANCH  10  14
BRANCH   8  15
ATOM     15  C   UNL     1      12.634   7.447   5.638  0.00  0.00    +0.113 C 
BRANCH  15   5
ATOM      2  O   UNL     1      13.010   7.057   2.826  0.00  0.00    -0.253 OA
ATOM      5  N   UNL     1      12.200   6.325   4.866  0.00  0.00    -0.299 N 
ATOM      6  N   UNL     1      11.889   5.002   3.000  0.00  0.00    -0.269 N 
ATOM     24  C   UNL     1      12.422   6.201   3.482  0.00  0.00    +0.304 C 
ATOM     32  H   UNL     1      11.769   5.543   5.349  0.00  0.00    +0.150 HD
ATOM     33  H   UNL     1      11.427   4.403   3.680  0.00  0.00    +0.156 HD
BRANCH   6  25
ATOM     25  C   UNL     1      11.906   4.516   1.672  0.00  0.00    +0.038 A 
ATOM     26  C   UNL     1      10.836   4.781   0.818  0.00  0.00    +0.069 A 
ATOM     27  C   UNL     1      12.994   3.771   1.217  0.00  0.00    +0.023 A 
ATOM     28  C   UNL     1      10.853   4.300  -0.491  0.00  0.00    +0.122 A 
ATOM     29  C   UNL     1      13.011   3.290  -0.092  0.00  0.00    +0.005 A 
ATOM     30  C   UNL     1      11.942   3.555  -0.947  0.00  0.00    +0.046 A 
BRANCH  28   3
ATOM      3  O   UNL     1       9.808   4.558  -1.325  0.00  0.00    -0.495 OA
ATOM     31  C   UNL     1      10.054   4.451  -2.726  0.00  0.00    +0.277 C 
ENDBRANCH  28   3
ENDBRANCH   6  25
ENDBRANCH  15   5
ENDBRANCH   8  15
TORSDOF 7
ENDMDL
