REMARK  Name = 86769004
REMARK  7 active torsions:
REMARK  status: ('A' for Active; 'I' for Inactive)
REMARK    1  A    between atoms: O_3  and  C_12
REMARK    2  A    between atoms: N_5  and  C_10
REMARK    3  A    between atoms: N_5  and  C_11
REMARK    4  A    between atoms: N_6  and  C_15
REMARK    5  A    between atoms: C_7  and  C_10
REMARK    6  A    between atoms: C_13  and  C_15
REMARK    7  A    between atoms: C_16  and  C_17
REMARK                            x       y       z     vdW  Elec       q    Type
REMARK                         _______ _______ _______ _____ _____    ______ ____
ROOT
ATOM      2  O   UNL     1      -0.905   0.903  -0.560  0.00  0.00    -0.371 OA
ATOM     11  C   UNL     1      -3.042   0.087   0.078  0.00  0.00    +0.111 C 
ATOM     12  C   UNL     1      -2.195  -1.074  -0.409  0.00  0.00    +0.164 C 
ATOM     13  C   UNL     1      -0.793  -0.498  -0.258  0.00  0.00    +0.165 C 
ATOM     14  C   UNL     1      -2.294   1.273  -0.509  0.00  0.00    +0.181 C 
ENDROOT
BRANCH  12   3
ATOM      3  O   UNL     1      -2.372  -2.243   0.367  0.00  0.00    -0.388 OA
ATOM     24  H   UNL     1      -2.177  -2.026   1.295  0.00  0.00    +0.210 HD
ENDBRANCH  12   3
BRANCH  11   5
ATOM      5  N   UNL     1      -4.428   0.021  -0.357  0.00  0.00    -0.309 NA
ATOM     23  H   UNL     1      -4.778  -0.927  -0.213  0.00  0.00    +0.122 HD
BRANCH   5  10
ATOM     10  C   UNL     1      -5.261   0.949   0.398  0.00  0.00    +0.084 C 
BRANCH  10   7
ATOM      7  C   UNL     1      -6.683   0.897  -0.056  0.00  0.00    +0.003 C 
ATOM      8  C   UNL     1      -7.796   1.228   0.899  0.00  0.00    +0.005 C 
ATOM      9  C   UNL     1      -7.597  -0.189   0.440  0.00  0.00    +0.005 C 
ENDBRANCH  10   7
ENDBRANCH   5  10
ENDBRANCH  11   5
BRANCH  13  15
ATOM     15  C   UNL     1       0.224  -1.143  -1.181  0.00  0.00    +0.138 C 
BRANCH  15   6
ATOM      4  O   UNL     1       2.217  -2.058   0.672  0.00  0.00    -0.270 OA
ATOM      6  N   UNL     1       1.536  -0.568  -0.968  0.00  0.00    -0.309 N 
ATOM     16  C   UNL     1       2.430  -1.085  -0.046  0.00  0.00    +0.244 C 
ATOM     25  H   UNL     1       1.747   0.284  -1.478  0.00  0.00    +0.149 HD
BRANCH  16  17
ATOM      1  F   UNL     1       7.322   1.635   0.398  0.00  0.00    -0.205 F 
ATOM     17  C   UNL     1       3.724  -0.365   0.071  0.00  0.00    +0.037 A 
ATOM     18  C   UNL     1       4.437  -0.403   1.270  0.00  0.00    +0.016 A 
ATOM     19  C   UNL     1       4.227   0.349  -1.016  0.00  0.00    +0.016 A 
ATOM     20  C   UNL     1       5.652   0.272   1.381  0.00  0.00    +0.039 A 
ATOM     21  C   UNL     1       5.442   1.025  -0.906  0.00  0.00    +0.039 A 
ATOM     22  C   UNL     1       6.155   0.986   0.293  0.00  0.00    +0.123 A 
ENDBRANCH  16  17
ENDBRANCH  15   6
ENDBRANCH  13  15
TORSDOF 7
