MODEL 1
REMARK VINA RESULT:      -7.0      0.000      0.000
REMARK  Name = 45784196
REMARK  4 active torsions:
REMARK  status: ('A' for Active; 'I' for Inactive)
REMARK    1  A    between atoms: N_2  and  C_10
REMARK    2  A    between atoms: C_5  and  C_9
REMARK    3  A    between atoms: C_10  and  C_11
REMARK    4  A    between atoms: C_17  and  C_21
REMARK                            x       y       z     vdW  Elec       q    Type
REMARK                         _______ _______ _______ _____ _____    ______ ____
ROOT
ATOM      2  N   UNL     1      11.551   9.773  21.649  0.00  0.00    -0.296 NA
ATOM      5  C   UNL     1      13.429   9.319  20.321  0.00  0.00    +0.090 C 
ATOM      6  C   UNL     1      12.206   8.583  19.749  0.00  0.00    +0.029 C 
ATOM      7  C   UNL     1      13.011   9.725  21.740  0.00  0.00    +0.097 C 
ATOM      8  C   UNL     1      11.182   8.587  20.877  0.00  0.00    +0.085 C 
ENDROOT
BRANCH   5   9
ATOM      1  O   UNL     1      14.799   7.561  19.334  0.00  0.00    -0.439 OA
ATOM      3  N   UNL     1      15.772   8.655  21.065  0.00  0.00    -0.213 NA
ATOM      9  C   UNL     1      14.718   8.530  20.289  0.00  0.00    +0.201 A 
ATOM     12  C   UNL     1      16.629   7.692  20.590  0.00  0.00    +0.110 A 
ATOM     13  C   UNL     1      16.038   7.020  19.530  0.00  0.00    +0.155 A 
ATOM     15  C   UNL     1      17.921   7.319  20.992  0.00  0.00    +0.035 A 
ATOM     16  C   UNL     1      16.630   5.985  18.819  0.00  0.00    +0.049 A 
ATOM     17  C   UNL     1      18.551   6.277  20.298  0.00  0.00    -0.048 A 
ATOM     18  C   UNL     1      17.917   5.625  19.233  0.00  0.00    +0.007 A 
ATOM     21  C   UNL     1      19.926   5.857  20.702  0.00  0.00    +0.044 C 
ENDBRANCH   5   9
BRANCH   2  10
ATOM     10  C   UNL     1      10.913   9.804  22.957  0.00  0.00    +0.139 C 
BRANCH  10  11
ATOM      4  N   UNL     1      10.843  11.307  24.869  0.00  0.00    -0.259 NA
ATOM     11  C   UNL     1      10.862  11.200  23.522  0.00  0.00    +0.055 A 
ATOM     14  C   UNL     1      10.840  12.281  22.656  0.00  0.00    +0.024 A 
ATOM     19  C   UNL     1      10.795  13.556  23.209  0.00  0.00    +0.003 A 
ATOM     20  C   UNL     1      10.799  12.562  25.370  0.00  0.00    +0.111 A 
ATOM     22  C   UNL     1      10.774  13.708  24.591  0.00  0.00    +0.020 A 
ENDBRANCH  10  11
ENDBRANCH   2  10
TORSDOF 3
ENDMDL
MODEL 2
REMARK VINA RESULT:      -6.6      3.261      5.334
REMARK  Name = 45784196
REMARK  4 active torsions:
REMARK  status: ('A' for Active; 'I' for Inactive)
REMARK    1  A    between atoms: N_2  and  C_10
REMARK    2  A    between atoms: C_5  and  C_9
REMARK    3  A    between atoms: C_10  and  C_11
REMARK    4  A    between atoms: C_17  and  C_21
REMARK                            x       y       z     vdW  Elec       q    Type
REMARK                         _______ _______ _______ _____ _____    ______ ____
ROOT
ATOM      2  N   UNL     1      15.732   7.619  20.891  0.00  0.00    -0.296 NA
ATOM      5  C   UNL     1      17.885   6.969  20.228  0.00  0.00    +0.090 C 
ATOM      6  C   UNL     1      16.840   6.235  19.371  0.00  0.00    +0.029 C 
ATOM      7  C   UNL     1      17.093   7.520  21.421  0.00  0.00    +0.097 C 
ATOM      8  C   UNL     1      15.531   6.383  20.135  0.00  0.00    +0.085 C 
ENDROOT
BRANCH   5   9
ATOM      1  O   UNL     1      19.785   6.593  21.707  0.00  0.00    -0.439 OA
ATOM      3  N   UNL     1      19.503   5.006  20.114  0.00  0.00    -0.213 NA
ATOM      9  C   UNL     1      19.070   6.128  20.645  0.00  0.00    +0.201 A 
ATOM     12  C   UNL     1      20.597   4.694  20.885  0.00  0.00    +0.110 A 
ATOM     13  C   UNL     1      20.773   5.663  21.862  0.00  0.00    +0.155 A 
ATOM     15  C   UNL     1      21.493   3.616  20.831  0.00  0.00    +0.035 A 
ATOM     16  C   UNL     1      21.787   5.656  22.811  0.00  0.00    +0.049 A 
ATOM     17  C   UNL     1      22.530   3.574  21.773  0.00  0.00    -0.048 A 
ATOM     18  C   UNL     1      22.672   4.575  22.743  0.00  0.00    +0.007 A 
ATOM     21  C   UNL     1      23.501   2.439  21.741  0.00  0.00    +0.044 C 
ENDBRANCH   5   9
BRANCH   2  10
ATOM     10  C   UNL     1      14.739   7.796  21.940  0.00  0.00    +0.139 C 
BRANCH  10  11
ATOM      4  N   UNL     1      12.411   7.127  21.708  0.00  0.00    -0.259 NA
ATOM     11  C   UNL     1      13.362   8.027  21.375  0.00  0.00    +0.055 A 
ATOM     14  C   UNL     1      13.139   9.126  20.561  0.00  0.00    +0.024 A 
ATOM     19  C   UNL     1      11.857   9.313  20.056  0.00  0.00    +0.003 A 
ATOM     20  C   UNL     1      11.176   7.341  21.199  0.00  0.00    +0.111 A 
ATOM     22  C   UNL     1      10.852   8.408  20.377  0.00  0.00    +0.020 A 
ENDBRANCH  10  11
ENDBRANCH   2  10
TORSDOF 3
ENDMDL
MODEL 3
REMARK VINA RESULT:      -6.5     26.679     28.948
REMARK  Name = 45784196
REMARK  4 active torsions:
REMARK  status: ('A' for Active; 'I' for Inactive)
REMARK    1  A    between atoms: N_2  and  C_10
REMARK    2  A    between atoms: C_5  and  C_9
REMARK    3  A    between atoms: C_10  and  C_11
REMARK    4  A    between atoms: C_17  and  C_21
REMARK                            x       y       z     vdW  Elec       q    Type
REMARK                         _______ _______ _______ _____ _____    ______ ____
ROOT
ATOM      2  N   UNL     1      -2.149 -11.051  13.643  0.00  0.00    -0.296 NA
ATOM      5  C   UNL     1      -3.239 -10.207  15.540  0.00  0.00    +0.090 C 
ATOM      6  C   UNL     1      -1.934 -10.903  15.963  0.00  0.00    +0.029 C 
ATOM      7  C   UNL     1      -3.490 -10.691  14.106  0.00  0.00    +0.097 C 
ATOM      8  C   UNL     1      -1.539 -11.760  14.767  0.00  0.00    +0.085 C 
ENDROOT
BRANCH   5   9
ATOM      1  O   UNL     1      -4.203 -11.322  17.481  0.00  0.00    -0.439 OA
ATOM      3  N   UNL     1      -5.619  -9.923  16.397  0.00  0.00    -0.213 NA
ATOM      9  C   UNL     1      -4.415 -10.447  16.458  0.00  0.00    +0.201 A 
ATOM     12  C   UNL     1      -6.266 -10.493  17.468  0.00  0.00    +0.110 A 
ATOM     13  C   UNL     1      -5.402 -11.350  18.134  0.00  0.00    +0.155 A 
ATOM     15  C   UNL     1      -7.575 -10.343  17.948  0.00  0.00    +0.035 A 
ATOM     16  C   UNL     1      -5.733 -12.089  19.262  0.00  0.00    +0.049 A 
ATOM     17  C   UNL     1      -7.947 -11.074  19.085  0.00  0.00    -0.048 A 
ATOM     18  C   UNL     1      -7.042 -11.928  19.728  0.00  0.00    +0.007 A 
ATOM     21  C   UNL     1      -9.334 -10.935  19.621  0.00  0.00    +0.044 C 
ENDBRANCH   5   9
BRANCH   2  10
ATOM     10  C   UNL     1      -2.177 -11.855  12.429  0.00  0.00    +0.139 C 
BRANCH  10  11
ATOM      4  N   UNL     1      -3.780 -11.846  10.599  0.00  0.00    -0.259 NA
ATOM     11  C   UNL     1      -2.867 -11.137  11.298  0.00  0.00    +0.055 A 
ATOM     14  C   UNL     1      -2.542  -9.816  11.035  0.00  0.00    +0.024 A 
ATOM     19  C   UNL     1      -3.197  -9.182   9.986  0.00  0.00    +0.003 A 
ATOM     20  C   UNL     1      -4.397 -11.196   9.586  0.00  0.00    +0.111 A 
ATOM     22  C   UNL     1      -4.144  -9.878   9.243  0.00  0.00    +0.020 A 
ENDBRANCH  10  11
ENDBRANCH   2  10
TORSDOF 3
ENDMDL
MODEL 4
REMARK VINA RESULT:      -6.5      1.926      3.580
REMARK  Name = 45784196
REMARK  4 active torsions:
REMARK  status: ('A' for Active; 'I' for Inactive)
REMARK    1  A    between atoms: N_2  and  C_10
REMARK    2  A    between atoms: C_5  and  C_9
REMARK    3  A    between atoms: C_10  and  C_11
REMARK    4  A    between atoms: C_17  and  C_21
REMARK                            x       y       z     vdW  Elec       q    Type
REMARK                         _______ _______ _______ _____ _____    ______ ____
ROOT
ATOM      2  N   UNL     1      14.208   8.068  20.765  0.00  0.00    -0.296 NA
ATOM      5  C   UNL     1      16.426   7.727  20.083  0.00  0.00    +0.090 C 
ATOM      6  C   UNL     1      15.475   6.982  19.130  0.00  0.00    +0.029 C 
ATOM      7  C   UNL     1      15.566   8.057  21.311  0.00  0.00    +0.097 C 
ATOM      8  C   UNL     1      14.149   6.907  19.877  0.00  0.00    +0.085 C 
ENDROOT
BRANCH   5   9
ATOM      1  O   UNL     1      18.302   7.350  21.593  0.00  0.00    -0.439 OA
ATOM      3  N   UNL     1      18.279   6.011  19.765  0.00  0.00    -0.213 NA
ATOM      9  C   UNL     1      17.690   6.976  20.434  0.00  0.00    +0.201 A 
ATOM     12  C   UNL     1      19.375   5.712  20.539  0.00  0.00    +0.110 A 
ATOM     13  C   UNL     1      19.392   6.530  21.659  0.00  0.00    +0.155 A 
ATOM     15  C   UNL     1      20.400   4.769  20.372  0.00  0.00    +0.035 A 
ATOM     16  C   UNL     1      20.363   6.493  22.652  0.00  0.00    +0.049 A 
ATOM     17  C   UNL     1      21.398   4.703  21.354  0.00  0.00    -0.048 A 
ATOM     18  C   UNL     1      21.378   5.548  22.471  0.00  0.00    +0.007 A 
ATOM     21  C   UNL     1      22.504   3.709  21.205  0.00  0.00    +0.044 C 
ENDBRANCH   5   9
BRANCH   2  10
ATOM     10  C   UNL     1      13.191   8.023  21.805  0.00  0.00    +0.139 C 
BRANCH  10  11
ATOM      4  N   UNL     1      11.529   9.418  22.906  0.00  0.00    -0.259 NA
ATOM     11  C   UNL     1      12.458   9.333  21.928  0.00  0.00    +0.055 A 
ATOM     14  C   UNL     1      12.765  10.366  21.058  0.00  0.00    +0.024 A 
ATOM     19  C   UNL     1      12.072  11.564  21.198  0.00  0.00    +0.003 A 
ATOM     20  C   UNL     1      10.876  10.597  23.013  0.00  0.00    +0.111 A 
ATOM     22  C   UNL     1      11.108  11.689  22.192  0.00  0.00    +0.020 A 
ENDBRANCH  10  11
ENDBRANCH   2  10
TORSDOF 3
ENDMDL
MODEL 5
REMARK VINA RESULT:      -6.4     27.393     29.775
REMARK  Name = 45784196
REMARK  4 active torsions:
REMARK  status: ('A' for Active; 'I' for Inactive)
REMARK    1  A    between atoms: N_2  and  C_10
REMARK    2  A    between atoms: C_5  and  C_9
REMARK    3  A    between atoms: C_10  and  C_11
REMARK    4  A    between atoms: C_17  and  C_21
REMARK                            x       y       z     vdW  Elec       q    Type
REMARK                         _______ _______ _______ _____ _____    ______ ____
ROOT
ATOM      2  N   UNL     1      -4.340 -10.573  14.619  0.00  0.00    -0.296 NA
ATOM      5  C   UNL     1      -5.661  -9.580  16.282  0.00  0.00    +0.090 C 
ATOM      6  C   UNL     1      -4.494 -10.337  16.937  0.00  0.00    +0.029 C 
ATOM      7  C   UNL     1      -5.710 -10.110  14.843  0.00  0.00    +0.097 C 
ATOM      8  C   UNL     1      -3.970 -11.268  15.851  0.00  0.00    +0.085 C 
ENDROOT
BRANCH   5   9
ATOM      1  O   UNL     1      -7.022 -10.603  18.026  0.00  0.00    -0.439 OA
ATOM      3  N   UNL     1      -8.107  -9.063  16.766  0.00  0.00    -0.213 NA
ATOM      9  C   UNL     1      -6.985  -9.706  17.002  0.00  0.00    +0.201 A 
ATOM     12  C   UNL     1      -8.966  -9.571  17.711  0.00  0.00    +0.110 A 
ATOM     13  C   UNL     1      -8.305 -10.514  18.485  0.00  0.00    +0.155 A 
ATOM     15  C   UNL     1     -10.313  -9.292  17.987  0.00  0.00    +0.035 A 
ATOM     16  C   UNL     1      -8.880 -11.223  19.532  0.00  0.00    +0.049 A 
ATOM     17  C   UNL     1     -10.928  -9.989  19.037  0.00  0.00    -0.048 A 
ATOM     18  C   UNL     1     -10.223 -10.934  19.793  0.00  0.00    +0.007 A 
ATOM     21  C   UNL     1     -12.361  -9.715  19.354  0.00  0.00    +0.044 C 
ENDBRANCH   5   9
BRANCH   2  10
ATOM     10  C   UNL     1      -4.226 -11.426  13.444  0.00  0.00    +0.139 C 
BRANCH  10  11
ATOM      4  N   UNL     1      -4.995 -10.321  11.417  0.00  0.00    -0.259 NA
ATOM     11  C   UNL     1      -3.937 -10.628  12.199  0.00  0.00    +0.055 A 
ATOM     14  C   UNL     1      -2.632 -10.255  11.921  0.00  0.00    +0.024 A 
ATOM     19  C   UNL     1      -2.398  -9.518  10.766  0.00  0.00    +0.003 A 
ATOM     20  C   UNL     1      -4.729  -9.604  10.302  0.00  0.00    +0.111 A 
ATOM     22  C   UNL     1      -3.461  -9.182   9.936  0.00  0.00    +0.020 A 
ENDBRANCH  10  11
ENDBRANCH   2  10
TORSDOF 3
ENDMDL
MODEL 6
REMARK VINA RESULT:      -6.3     27.188     30.058
REMARK  Name = 45784196
REMARK  4 active torsions:
REMARK  status: ('A' for Active; 'I' for Inactive)
REMARK    1  A    between atoms: N_2  and  C_10
REMARK    2  A    between atoms: C_5  and  C_9
REMARK    3  A    between atoms: C_10  and  C_11
REMARK    4  A    between atoms: C_17  and  C_21
REMARK                            x       y       z     vdW  Elec       q    Type
REMARK                         _______ _______ _______ _____ _____    ______ ____
ROOT
ATOM      2  N   UNL     1      -4.644 -11.645  17.356  0.00  0.00    -0.296 NA
ATOM      5  C   UNL     1      -6.302 -10.673  18.700  0.00  0.00    +0.090 C 
ATOM      6  C   UNL     1      -5.685 -11.876  19.434  0.00  0.00    +0.029 C 
ATOM      7  C   UNL     1      -5.861 -10.840  17.240  0.00  0.00    +0.097 C 
ATOM      8  C   UNL     1      -4.962 -12.668  18.352  0.00  0.00    +0.085 C 
ENDROOT
BRANCH   5   9
ATOM      1  O   UNL     1      -8.429  -9.798  17.895  0.00  0.00    -0.439 OA
ATOM      3  N   UNL     1      -8.575 -11.031  19.790  0.00  0.00    -0.213 NA
ATOM      9  C   UNL     1      -7.799 -10.534  18.852  0.00  0.00    +0.201 A 
ATOM     12  C   UNL     1      -9.826 -10.591  19.431  0.00  0.00    +0.110 A 
ATOM     13  C   UNL     1      -9.741  -9.836  18.271  0.00  0.00    +0.155 A 
ATOM     15  C   UNL     1     -11.083 -10.783  20.024  0.00  0.00    +0.035 A 
ATOM     16  C   UNL     1     -10.821  -9.239  17.633  0.00  0.00    +0.049 A 
ATOM     17  C   UNL     1     -12.197 -10.196  19.409  0.00  0.00    -0.048 A 
ATOM     18  C   UNL     1     -12.067  -9.440  18.237  0.00  0.00    +0.007 A 
ATOM     21  C   UNL     1     -13.549 -10.382  20.016  0.00  0.00    +0.044 C 
ENDBRANCH   5   9
BRANCH   2  10
ATOM     10  C   UNL     1      -4.233 -12.218  16.083  0.00  0.00    +0.139 C 
BRANCH  10  11
ATOM      4  N   UNL     1      -3.287 -11.231  14.070  0.00  0.00    -0.259 NA
ATOM     11  C   UNL     1      -3.175 -11.384  15.409  0.00  0.00    +0.055 A 
ATOM     14  C   UNL     1      -2.164 -10.824  16.172  0.00  0.00    +0.024 A 
ATOM     19  C   UNL     1      -1.204 -10.058  15.521  0.00  0.00    +0.003 A 
ATOM     20  C   UNL     1      -2.335 -10.479  13.471  0.00  0.00    +0.111 A 
ATOM     22  C   UNL     1      -1.285  -9.878  14.145  0.00  0.00    +0.020 A 
ENDBRANCH  10  11
ENDBRANCH   2  10
TORSDOF 3
ENDMDL
MODEL 7
REMARK VINA RESULT:      -6.1     22.576     25.721
REMARK  Name = 45784196
REMARK  4 active torsions:
REMARK  status: ('A' for Active; 'I' for Inactive)
REMARK    1  A    between atoms: N_2  and  C_10
REMARK    2  A    between atoms: C_5  and  C_9
REMARK    3  A    between atoms: C_10  and  C_11
REMARK    4  A    between atoms: C_17  and  C_21
REMARK                            x       y       z     vdW  Elec       q    Type
REMARK                         _______ _______ _______ _____ _____    ______ ____
ROOT
ATOM      2  N   UNL     1      -9.741  11.126  16.941  0.00  0.00    -0.296 NA
ATOM      5  C   UNL     1     -10.159   9.411  18.483  0.00  0.00    +0.090 C 
ATOM      6  C   UNL     1     -10.229   8.845  17.054  0.00  0.00    +0.029 C 
ATOM      7  C   UNL     1     -10.237  10.933  18.304  0.00  0.00    +0.097 C 
ATOM      8  C   UNL     1     -10.372  10.066  16.155  0.00  0.00    +0.085 C 
ENDROOT
BRANCH   5   9
ATOM      1  O   UNL     1     -11.105   7.553  19.746  0.00  0.00    -0.439 OA
ATOM      3  N   UNL     1     -12.209   9.517  19.990  0.00  0.00    -0.213 NA
ATOM      9  C   UNL     1     -11.208   8.874  19.431  0.00  0.00    +0.201 A 
ATOM     12  C   UNL     1     -12.826   8.547  20.743  0.00  0.00    +0.110 A 
ATOM     13  C   UNL     1     -12.153   7.343  20.596  0.00  0.00    +0.155 A 
ATOM     15  C   UNL     1     -13.954   8.596  21.576  0.00  0.00    +0.035 A 
ATOM     16  C   UNL     1     -12.512   6.154  21.218  0.00  0.00    +0.049 A 
ATOM     17  C   UNL     1     -14.347   7.415  22.221  0.00  0.00    -0.048 A 
ATOM     18  C   UNL     1     -13.638   6.220  22.045  0.00  0.00    +0.007 A 
ATOM     21  C   UNL     1     -15.544   7.435  23.114  0.00  0.00    +0.044 C 
ENDBRANCH   5   9
BRANCH   2  10
ATOM     10  C   UNL     1     -10.040  12.454  16.424  0.00  0.00    +0.139 C 
BRANCH  10  11
ATOM      4  N   UNL     1      -7.690  13.085  16.456  0.00  0.00    -0.259 NA
ATOM     11  C   UNL     1      -8.956  13.444  16.763  0.00  0.00    +0.055 A 
ATOM     14  C   UNL     1      -9.300  14.647  17.358  0.00  0.00    +0.024 A 
ATOM     19  C   UNL     1      -8.277  15.541  17.657  0.00  0.00    +0.003 A 
ATOM     20  C   UNL     1      -6.722  13.979  16.762  0.00  0.00    +0.111 A 
ATOM     22  C   UNL     1      -6.962  15.208  17.356  0.00  0.00    +0.020 A 
ENDBRANCH  10  11
ENDBRANCH   2  10
TORSDOF 3
ENDMDL
MODEL 8
REMARK VINA RESULT:      -6.0     28.211     30.155
REMARK  Name = 45784196
REMARK  4 active torsions:
REMARK  status: ('A' for Active; 'I' for Inactive)
REMARK    1  A    between atoms: N_2  and  C_10
REMARK    2  A    between atoms: C_5  and  C_9
REMARK    3  A    between atoms: C_10  and  C_11
REMARK    4  A    between atoms: C_17  and  C_21
REMARK                            x       y       z     vdW  Elec       q    Type
REMARK                         _______ _______ _______ _____ _____    ______ ____
ROOT
ATOM      2  N   UNL     1     -11.784  -7.503  15.013  0.00  0.00    -0.296 NA
ATOM      5  C   UNL     1     -10.607  -8.551  16.749  0.00  0.00    +0.090 C 
ATOM      6  C   UNL     1     -10.728  -7.047  17.046  0.00  0.00    +0.029 C 
ATOM      7  C   UNL     1     -10.955  -8.683  15.260  0.00  0.00    +0.097 C 
ATOM      8  C   UNL     1     -11.106  -6.412  15.714  0.00  0.00    +0.085 C 
ENDROOT
BRANCH   5   9
ATOM      1  O   UNL     1      -8.242  -8.869  16.251  0.00  0.00    -0.439 OA
ATOM      3  N   UNL     1      -8.966  -9.942  18.111  0.00  0.00    -0.213 NA
ATOM      9  C   UNL     1      -9.268  -9.162  17.098  0.00  0.00    +0.201 A 
ATOM     12  C   UNL     1      -7.627 -10.191  17.929  0.00  0.00    +0.110 A 
ATOM     13  C   UNL     1      -7.180  -9.536  16.791  0.00  0.00    +0.155 A 
ATOM     15  C   UNL     1      -6.715 -10.954  18.674  0.00  0.00    +0.035 A 
ATOM     16  C   UNL     1      -5.875  -9.574  16.316  0.00  0.00    +0.049 A 
ATOM     17  C   UNL     1      -5.388 -11.017  18.224  0.00  0.00    -0.048 A 
ATOM     18  C   UNL     1      -4.979 -10.340  17.069  0.00  0.00    +0.007 A 
ATOM     21  C   UNL     1      -4.394 -11.823  18.996  0.00  0.00    +0.044 C 
ENDBRANCH   5   9
BRANCH   2  10
ATOM     10  C   UNL     1     -11.953  -7.230  13.593  0.00  0.00    +0.139 C 
BRANCH  10  11
ATOM      4  N   UNL     1     -14.156  -6.202  13.711  0.00  0.00    -0.259 NA
ATOM     11  C   UNL     1     -12.861  -6.052  13.354  0.00  0.00    +0.055 A 
ATOM     14  C   UNL     1     -12.339  -4.896  12.796  0.00  0.00    +0.024 A 
ATOM     19  C   UNL     1     -13.202  -3.826  12.589  0.00  0.00    +0.003 A 
ATOM     20  C   UNL     1     -14.965  -5.141  13.495  0.00  0.00    +0.111 A 
ATOM     22  C   UNL     1     -14.542  -3.943  12.943  0.00  0.00    +0.020 A 
ENDBRANCH  10  11
ENDBRANCH   2  10
TORSDOF 3
ENDMDL
MODEL 9
REMARK VINA RESULT:      -5.9     19.350     20.327
REMARK  Name = 45784196
REMARK  4 active torsions:
REMARK  status: ('A' for Active; 'I' for Inactive)
REMARK    1  A    between atoms: N_2  and  C_10
REMARK    2  A    between atoms: C_5  and  C_9
REMARK    3  A    between atoms: C_10  and  C_11
REMARK    4  A    between atoms: C_17  and  C_21
REMARK                            x       y       z     vdW  Elec       q    Type
REMARK                         _______ _______ _______ _____ _____    ______ ____
ROOT
ATOM      2  N   UNL     1       7.508  -6.963  33.608  0.00  0.00    -0.296 NA
ATOM      5  C   UNL     1       9.801  -6.544  33.869  0.00  0.00    +0.090 C 
ATOM      6  C   UNL     1       8.994  -5.378  34.465  0.00  0.00    +0.029 C 
ATOM      7  C   UNL     1       8.794  -7.310  33.000  0.00  0.00    +0.097 C 
ATOM      8  C   UNL     1       7.595  -5.529  33.881  0.00  0.00    +0.085 C 
ENDROOT
BRANCH   5   9
ATOM      1  O   UNL     1      11.336  -6.878  32.005  0.00  0.00    -0.439 OA
ATOM      3  N   UNL     1      11.881  -5.160  33.380  0.00  0.00    -0.213 NA
ATOM      9  C   UNL     1      11.043  -6.137  33.110  0.00  0.00    +0.201 A 
ATOM     12  C   UNL     1      12.810  -5.255  32.372  0.00  0.00    +0.110 A 
ATOM     13  C   UNL     1      12.480  -6.305  31.528  0.00  0.00    +0.155 A 
ATOM     15  C   UNL     1      13.958  -4.497  32.094  0.00  0.00    +0.035 A 
ATOM     16  C   UNL     1      13.208  -6.679  30.406  0.00  0.00    +0.049 A 
ATOM     17  C   UNL     1      14.719  -4.845  30.969  0.00  0.00    -0.048 A 
ATOM     18  C   UNL     1      14.350  -5.914  30.143  0.00  0.00    +0.007 A 
ATOM     21  C   UNL     1      15.947  -4.058  30.646  0.00  0.00    +0.044 C 
ENDBRANCH   5   9
BRANCH   2  10
ATOM     10  C   UNL     1       6.380  -7.297  32.751  0.00  0.00    +0.139 C 
BRANCH  10  11
ATOM      4  N   UNL     1       6.523  -9.716  32.966  0.00  0.00    -0.259 NA
ATOM     11  C   UNL     1       6.536  -8.659  32.125  0.00  0.00    +0.055 A 
ATOM     14  C   UNL     1       6.680  -8.761  30.751  0.00  0.00    +0.024 A 
ATOM     19  C   UNL     1       6.820 -10.032  30.204  0.00  0.00    +0.003 A 
ATOM     20  C   UNL     1       6.661 -10.936  32.399  0.00  0.00    +0.111 A 
ATOM     22  C   UNL     1       6.811 -11.145  31.037  0.00  0.00    +0.020 A 
ENDBRANCH  10  11
ENDBRANCH   2  10
TORSDOF 3
ENDMDL
MODEL 10
REMARK VINA RESULT:      -5.9     28.401     30.708
REMARK  Name = 45784196
REMARK  4 active torsions:
REMARK  status: ('A' for Active; 'I' for Inactive)
REMARK    1  A    between atoms: N_2  and  C_10
REMARK    2  A    between atoms: C_5  and  C_9
REMARK    3  A    between atoms: C_10  and  C_11
REMARK    4  A    between atoms: C_17  and  C_21
REMARK                            x       y       z     vdW  Elec       q    Type
REMARK                         _______ _______ _______ _____ _____    ______ ____
ROOT
ATOM      2  N   UNL     1       0.589   2.216  -6.303  0.00  0.00    -0.296 NA
ATOM      5  C   UNL     1       1.508   4.325  -5.852  0.00  0.00    +0.090 C 
ATOM      6  C   UNL     1       1.666   4.005  -7.349  0.00  0.00    +0.029 C 
ATOM      7  C   UNL     1       1.174   2.978  -5.199  0.00  0.00    +0.097 C 
ATOM      8  C   UNL     1       1.445   2.502  -7.454  0.00  0.00    +0.085 C 
ENDROOT
BRANCH   5   9
ATOM      1  O   UNL     1       3.908   4.746  -5.789  0.00  0.00    -0.439 OA
ATOM      3  N   UNL     1       2.720   5.823  -4.187  0.00  0.00    -0.213 NA
ATOM      9  C   UNL     1       2.699   5.009  -5.219  0.00  0.00    +0.201 A 
ATOM     12  C   UNL     1       4.052   6.132  -4.056  0.00  0.00    +0.110 A 
ATOM     13  C   UNL     1       4.783   5.474  -5.035  0.00  0.00    +0.155 A 
ATOM     15  C   UNL     1       4.729   6.955  -3.143  0.00  0.00    +0.035 A 
ATOM     16  C   UNL     1       6.161   5.565  -5.189  0.00  0.00    +0.049 A 
ATOM     17  C   UNL     1       6.120   7.071  -3.268  0.00  0.00    -0.048 A 
ATOM     18  C   UNL     1       6.820   6.389  -4.271  0.00  0.00    +0.007 A 
ATOM     21  C   UNL     1       6.869   7.940  -2.311  0.00  0.00    +0.044 C 
ENDBRANCH   5   9
BRANCH   2  10
ATOM     10  C   UNL     1       0.506   0.792  -6.013  0.00  0.00    +0.139 C 
BRANCH  10  11
ATOM      4  N   UNL     1      -1.515   0.965  -7.358  0.00  0.00    -0.259 NA
ATOM     11  C   UNL     1      -0.765   0.185  -6.547  0.00  0.00    +0.055 A 
ATOM     14  C   UNL     1      -1.098  -1.112  -6.194  0.00  0.00    +0.024 A 
ATOM     19  C   UNL     1      -2.276  -1.644  -6.705  0.00  0.00    +0.003 A 
ATOM     20  C   UNL     1      -2.653   0.414  -7.836  0.00  0.00    +0.111 A 
ATOM     22  C   UNL     1      -3.074  -0.873  -7.542  0.00  0.00    +0.020 A 
ENDBRANCH  10  11
ENDBRANCH   2  10
TORSDOF 3
ENDMDL
