MODEL 1
REMARK VINA RESULT:      -7.0      0.000      0.000
REMARK  Name = 45783469
REMARK  11 active torsions:
REMARK  status: ('A' for Active; 'I' for Inactive)
REMARK    1  A    between atoms: O_2  and  C_22
REMARK    2  A    between atoms: O_2  and  C_27
REMARK    3  A    between atoms: O_3  and  C_29
REMARK    4  A    between atoms: O_3  and  C_30
REMARK    5  A    between atoms: N_4  and  C_13
REMARK    6  A    between atoms: N_8  and  C_26
REMARK    7  A    between atoms: N_8  and  C_28
REMARK    8  A    between atoms: C_9  and  C_14
REMARK    9  A    between atoms: C_13  and  C_15
REMARK   10  A    between atoms: C_18  and  C_21
REMARK   11  A    between atoms: C_28  and  C_29
REMARK                            x       y       z     vdW  Elec       q    Type
REMARK                         _______ _______ _______ _____ _____    ______ ____
ROOT
ATOM      1  O   UNL     1     -16.812   3.485  22.028  0.00  0.00    -0.336 OA
ATOM      5  N   UNL     1     -16.534   4.495  24.008  0.00  0.00    -0.190 NA
ATOM      6  N   UNL     1     -16.811   2.466  22.988  0.00  0.00    -0.056 NA
ATOM     14  C   UNL     1     -16.644   4.647  22.712  0.00  0.00    +0.245 A 
ATOM     18  C   UNL     1     -16.642   3.140  24.130  0.00  0.00    +0.204 A 
ENDROOT
BRANCH  18  21
ATOM      7  N   UNL     1     -16.879   0.485  26.722  0.00  0.00    -0.240 NA
ATOM     21  C   UNL     1     -16.576   2.491  25.407  0.00  0.00    +0.041 A 
ATOM     23  C   UNL     1     -16.167   3.182  26.542  0.00  0.00    +0.016 A 
ATOM     24  C   UNL     1     -16.918   1.156  25.549  0.00  0.00    +0.124 A 
ATOM     25  C   UNL     1     -16.114   2.526  27.768  0.00  0.00    +0.044 A 
ATOM     26  C   UNL     1     -16.477   1.189  27.803  0.00  0.00    +0.119 A 
BRANCH  26   8
ATOM      8  N   UNL     1     -16.416   0.535  29.059  0.00  0.00    -0.327 N 
ATOM     31  H   UNL     1     -16.900  -0.353  29.129  0.00  0.00    +0.148 HD
BRANCH   8  28
ATOM     28  C   UNL     1     -15.722   1.081  30.179  0.00  0.00    +0.131 C 
BRANCH  28  29
ATOM     29  C   UNL     1     -14.351   0.439  30.305  0.00  0.00    +0.178 C 
BRANCH  29   3
ATOM      3  O   UNL     1     -14.400  -0.886  29.789  0.00  0.00    -0.381 OA
ATOM     30  C   UNL     1     -13.178  -1.245  29.159  0.00  0.00    +0.194 C 
ENDBRANCH  29   3
ENDBRANCH  28  29
ENDBRANCH   8  28
ENDBRANCH  26   8
ENDBRANCH  18  21
BRANCH  14   9
ATOM      4  N   UNL     1     -15.284   6.172  21.291  0.00  0.00    -0.287 NA
ATOM      9  C   UNL     1     -16.611   5.917  21.888  0.00  0.00    +0.146 C 
ATOM     10  C   UNL     1     -17.577   5.872  20.690  0.00  0.00    +0.030 C 
ATOM     11  C   UNL     1     -16.714   6.174  19.472  0.00  0.00    +0.017 C 
ATOM     12  C   UNL     1     -15.525   6.911  20.052  0.00  0.00    +0.085 C 
BRANCH   4  13
ATOM     13  C   UNL     1     -14.379   6.881  22.186  0.00  0.00    +0.120 C 
BRANCH  13  15
ATOM     15  C   UNL     1     -13.292   7.598  21.433  0.00  0.00    -0.033 A 
ATOM     16  C   UNL     1     -12.335   6.870  20.727  0.00  0.00    +0.008 A 
ATOM     17  C   UNL     1     -13.242   8.993  21.440  0.00  0.00    +0.008 A 
ATOM     19  C   UNL     1     -11.327   7.536  20.028  0.00  0.00    +0.046 A 
ATOM     20  C   UNL     1     -12.235   9.658  20.741  0.00  0.00    +0.046 A 
ATOM     22  C   UNL     1     -11.278   8.930  20.035  0.00  0.00    +0.120 A 
BRANCH  22   2
ATOM      2  O   UNL     1     -10.295   9.580  19.352  0.00  0.00    -0.495 OA
ATOM     27  C   UNL     1     -10.067   9.176  18.003  0.00  0.00    +0.277 C 
ENDBRANCH  22   2
ENDBRANCH  13  15
ENDBRANCH   4  13
ENDBRANCH  14   9
TORSDOF 9
ENDMDL
MODEL 2
REMARK VINA RESULT:      -6.9     27.707     32.002
REMARK  Name = 45783469
REMARK  11 active torsions:
REMARK  status: ('A' for Active; 'I' for Inactive)
REMARK    1  A    between atoms: O_2  and  C_22
REMARK    2  A    between atoms: O_2  and  C_27
REMARK    3  A    between atoms: O_3  and  C_29
REMARK    4  A    between atoms: O_3  and  C_30
REMARK    5  A    between atoms: N_4  and  C_13
REMARK    6  A    between atoms: N_8  and  C_26
REMARK    7  A    between atoms: N_8  and  C_28
REMARK    8  A    between atoms: C_9  and  C_14
REMARK    9  A    between atoms: C_13  and  C_15
REMARK   10  A    between atoms: C_18  and  C_21
REMARK   11  A    between atoms: C_28  and  C_29
REMARK                            x       y       z     vdW  Elec       q    Type
REMARK                         _______ _______ _______ _____ _____    ______ ____
ROOT
ATOM      1  O   UNL     1      15.318   8.574  19.849  0.00  0.00    -0.336 OA
ATOM      5  N   UNL     1      16.169   6.620  19.160  0.00  0.00    -0.190 NA
ATOM      6  N   UNL     1      16.513   8.398  20.558  0.00  0.00    -0.056 NA
ATOM     14  C   UNL     1      15.190   7.483  19.050  0.00  0.00    +0.245 A 
ATOM     18  C   UNL     1      16.956   7.224  20.097  0.00  0.00    +0.204 A 
ENDROOT
BRANCH  18  21
ATOM      7  N   UNL     1      19.977   6.580  22.166  0.00  0.00    -0.240 NA
ATOM     21  C   UNL     1      18.178   6.628  20.552  0.00  0.00    +0.041 A 
ATOM     23  C   UNL     1      18.752   5.561  19.869  0.00  0.00    +0.016 A 
ATOM     24  C   UNL     1      18.824   7.096  21.684  0.00  0.00    +0.124 A 
ATOM     25  C   UNL     1      19.939   5.003  20.335  0.00  0.00    +0.044 A 
ATOM     26  C   UNL     1      20.506   5.544  21.477  0.00  0.00    +0.119 A 
BRANCH  26   8
ATOM      8  N   UNL     1      21.714   4.965  21.938  0.00  0.00    -0.327 N 
ATOM     31  H   UNL     1      22.438   5.608  22.238  0.00  0.00    +0.148 HD
BRANCH   8  28
ATOM     28  C   UNL     1      21.923   3.554  21.982  0.00  0.00    +0.131 C 
BRANCH  28  29
ATOM     29  C   UNL     1      23.107   3.177  21.108  0.00  0.00    +0.178 C 
BRANCH  29   3
ATOM      3  O   UNL     1      23.495   4.301  20.327  0.00  0.00    -0.381 OA
ATOM     30  C   UNL     1      24.909   4.412  20.241  0.00  0.00    +0.194 C 
ENDBRANCH  29   3
ENDBRANCH  28  29
ENDBRANCH   8  28
ENDBRANCH  26   8
ENDBRANCH  18  21
BRANCH  14   9
ATOM      4  N   UNL     1      12.872   8.302  18.662  0.00  0.00    -0.287 NA
ATOM      9  C   UNL     1      13.960   7.433  18.168  0.00  0.00    +0.146 C 
ATOM     10  C   UNL     1      14.235   7.927  16.736  0.00  0.00    +0.030 C 
ATOM     11  C   UNL     1      13.214   9.030  16.492  0.00  0.00    +0.017 C 
ATOM     12  C   UNL     1      12.113   8.720  17.484  0.00  0.00    +0.085 C 
BRANCH   4  13
ATOM     13  C   UNL     1      12.029   7.655  19.658  0.00  0.00    +0.120 C 
BRANCH  13  15
ATOM     15  C   UNL     1      11.671   8.589  20.782  0.00  0.00    -0.033 A 
ATOM     16  C   UNL     1      10.951   8.117  21.880  0.00  0.00    +0.008 A 
ATOM     17  C   UNL     1      12.060   9.928  20.727  0.00  0.00    +0.008 A 
ATOM     19  C   UNL     1      10.620   8.984  22.922  0.00  0.00    +0.046 A 
ATOM     20  C   UNL     1      11.729  10.794  21.769  0.00  0.00    +0.046 A 
ATOM     22  C   UNL     1      11.010  10.322  22.866  0.00  0.00    +0.120 A 
BRANCH  22   2
ATOM      2  O   UNL     1      10.687  11.167  23.884  0.00  0.00    -0.495 OA
ATOM     27  C   UNL     1      11.539  12.294  24.086  0.00  0.00    +0.277 C 
ENDBRANCH  22   2
ENDBRANCH  13  15
ENDBRANCH   4  13
ENDBRANCH  14   9
TORSDOF 9
ENDMDL
MODEL 3
REMARK VINA RESULT:      -6.7     28.110     32.388
REMARK  Name = 45783469
REMARK  11 active torsions:
REMARK  status: ('A' for Active; 'I' for Inactive)
REMARK    1  A    between atoms: O_2  and  C_22
REMARK    2  A    between atoms: O_2  and  C_27
REMARK    3  A    between atoms: O_3  and  C_29
REMARK    4  A    between atoms: O_3  and  C_30
REMARK    5  A    between atoms: N_4  and  C_13
REMARK    6  A    between atoms: N_8  and  C_26
REMARK    7  A    between atoms: N_8  and  C_28
REMARK    8  A    between atoms: C_9  and  C_14
REMARK    9  A    between atoms: C_13  and  C_15
REMARK   10  A    between atoms: C_18  and  C_21
REMARK   11  A    between atoms: C_28  and  C_29
REMARK                            x       y       z     vdW  Elec       q    Type
REMARK                         _______ _______ _______ _____ _____    ______ ____
ROOT
ATOM      1  O   UNL     1      14.365   6.715  19.684  0.00  0.00    -0.336 OA
ATOM      5  N   UNL     1      15.685   7.678  21.215  0.00  0.00    -0.190 NA
ATOM      6  N   UNL     1      15.648   6.196  19.474  0.00  0.00    -0.056 NA
ATOM     14  C   UNL     1      14.475   7.580  20.726  0.00  0.00    +0.245 A 
ATOM     18  C   UNL     1      16.371   6.811  20.414  0.00  0.00    +0.204 A 
ENDROOT
BRANCH  18  21
ATOM      7  N   UNL     1      19.736   5.279  20.032  0.00  0.00    -0.240 NA
ATOM     21  C   UNL     1      17.777   6.584  20.581  0.00  0.00    +0.041 A 
ATOM     23  C   UNL     1      18.541   7.396  21.410  0.00  0.00    +0.016 A 
ATOM     24  C   UNL     1      18.416   5.548  19.919  0.00  0.00    +0.124 A 
ATOM     25  C   UNL     1      19.903   7.150  21.552  0.00  0.00    +0.044 A 
ATOM     26  C   UNL     1      20.447   6.089  20.847  0.00  0.00    +0.119 A 
BRANCH  26   8
ATOM      8  N   UNL     1      21.836   5.853  21.001  0.00  0.00    -0.327 N 
ATOM     31  H   UNL     1      22.414   6.664  21.187  0.00  0.00    +0.148 HD
BRANCH   8  28
ATOM     28  C   UNL     1      22.411   4.551  20.900  0.00  0.00    +0.131 C 
BRANCH  28  29
ATOM     29  C   UNL     1      23.883   4.603  21.274  0.00  0.00    +0.178 C 
BRANCH  29   3
ATOM      3  O   UNL     1      24.525   3.411  20.837  0.00  0.00    -0.381 OA
ATOM     30  C   UNL     1      24.987   3.529  19.498  0.00  0.00    +0.194 C 
ENDBRANCH  29   3
ENDBRANCH  28  29
ENDBRANCH   8  28
ENDBRANCH  26   8
ENDBRANCH  18  21
BRANCH  14   9
ATOM      4  N   UNL     1      12.447   8.835  20.016  0.00  0.00    -0.287 NA
ATOM      9  C   UNL     1      13.205   8.283  21.157  0.00  0.00    +0.146 C 
ATOM     10  C   UNL     1      12.214   7.339  21.864  0.00  0.00    +0.030 C 
ATOM     11  C   UNL     1      10.912   7.476  21.087  0.00  0.00    +0.017 C 
ATOM     12  C   UNL     1      11.039   8.825  20.412  0.00  0.00    +0.085 C 
BRANCH   4  13
ATOM     13  C   UNL     1      12.896  10.163  19.618  0.00  0.00    +0.120 C 
BRANCH  13  15
ATOM     15  C   UNL     1      13.470  10.167  18.226  0.00  0.00    -0.033 A 
ATOM     16  C   UNL     1      13.350   9.037  17.418  0.00  0.00    +0.008 A 
ATOM     17  C   UNL     1      14.123  11.302  17.746  0.00  0.00    +0.008 A 
ATOM     19  C   UNL     1      13.883   9.042  16.128  0.00  0.00    +0.046 A 
ATOM     20  C   UNL     1      14.655  11.307  16.456  0.00  0.00    +0.046 A 
ATOM     22  C   UNL     1      14.535  10.177  15.647  0.00  0.00    +0.120 A 
BRANCH  22   2
ATOM      2  O   UNL     1      15.053  10.183  14.389  0.00  0.00    -0.495 OA
ATOM     27  C   UNL     1      15.820  11.323  14.007  0.00  0.00    +0.277 C 
ENDBRANCH  22   2
ENDBRANCH  13  15
ENDBRANCH   4  13
ENDBRANCH  14   9
TORSDOF 9
ENDMDL
MODEL 4
REMARK VINA RESULT:      -6.6     18.172     19.832
REMARK  Name = 45783469
REMARK  11 active torsions:
REMARK  status: ('A' for Active; 'I' for Inactive)
REMARK    1  A    between atoms: O_2  and  C_22
REMARK    2  A    between atoms: O_2  and  C_27
REMARK    3  A    between atoms: O_3  and  C_29
REMARK    4  A    between atoms: O_3  and  C_30
REMARK    5  A    between atoms: N_4  and  C_13
REMARK    6  A    between atoms: N_8  and  C_26
REMARK    7  A    between atoms: N_8  and  C_28
REMARK    8  A    between atoms: C_9  and  C_14
REMARK    9  A    between atoms: C_13  and  C_15
REMARK   10  A    between atoms: C_18  and  C_21
REMARK   11  A    between atoms: C_28  and  C_29
REMARK                            x       y       z     vdW  Elec       q    Type
REMARK                         _______ _______ _______ _____ _____    ______ ____
ROOT
ATOM      1  O   UNL     1      -5.219 -12.154  16.256  0.00  0.00    -0.336 OA
ATOM      5  N   UNL     1      -5.424 -10.067  15.471  0.00  0.00    -0.190 NA
ATOM      6  N   UNL     1      -6.528 -11.753  16.552  0.00  0.00    -0.056 NA
ATOM     14  C   UNL     1      -4.638 -11.103  15.621  0.00  0.00    +0.245 A 
ATOM     18  C   UNL     1      -6.572 -10.513  16.058  0.00  0.00    +0.204 A 
ENDROOT
BRANCH  18  21
ATOM      7  N   UNL     1      -9.181  -8.260  17.454  0.00  0.00    -0.240 NA
ATOM     21  C   UNL     1      -7.746  -9.692  16.136  0.00  0.00    +0.041 A 
ATOM     23  C   UNL     1      -8.574  -9.519  15.033  0.00  0.00    +0.016 A 
ATOM     24  C   UNL     1      -8.090  -9.047  17.313  0.00  0.00    +0.124 A 
ATOM     25  C   UNL     1      -9.706  -8.717  15.139  0.00  0.00    +0.044 A 
ATOM     26  C   UNL     1      -9.962  -8.115  16.361  0.00  0.00    +0.119 A 
BRANCH  26   8
ATOM      8  N   UNL     1     -11.118  -7.301  16.452  0.00  0.00    -0.327 N 
ATOM     31  H   UNL     1     -11.906  -7.691  16.958  0.00  0.00    +0.148 HD
BRANCH   8  28
ATOM     28  C   UNL     1     -11.193  -6.002  15.868  0.00  0.00    +0.131 C 
BRANCH  28  29
ATOM     29  C   UNL     1     -12.439  -5.892  15.005  0.00  0.00    +0.178 C 
BRANCH  29   3
ATOM      3  O   UNL     1     -12.058  -5.706  13.647  0.00  0.00    -0.381 OA
ATOM     30  C   UNL     1     -12.525  -4.463  13.140  0.00  0.00    +0.194 C 
ENDBRANCH  29   3
ENDBRANCH  28  29
ENDBRANCH   8  28
ENDBRANCH  26   8
ENDBRANCH  18  21
BRANCH  14   9
ATOM      4  N   UNL     1      -2.856 -10.485  13.997  0.00  0.00    -0.287 NA
ATOM      9  C   UNL     1      -3.199 -11.288  15.189  0.00  0.00    +0.146 C 
ATOM     10  C   UNL     1      -2.193 -10.839  16.265  0.00  0.00    +0.030 C 
ATOM     11  C   UNL     1      -1.289  -9.830  15.569  0.00  0.00    +0.017 C 
ATOM     12  C   UNL     1      -1.430 -10.179  14.102  0.00  0.00    +0.085 C 
BRANCH   4  13
ATOM     13  C   UNL     1      -3.185 -11.150  12.743  0.00  0.00    +0.120 C 
BRANCH  13  15
ATOM     15  C   UNL     1      -3.927 -10.239  11.802  0.00  0.00    -0.033 A 
ATOM     16  C   UNL     1      -5.240  -9.863  12.085  0.00  0.00    +0.008 A 
ATOM     17  C   UNL     1      -3.300  -9.770  10.647  0.00  0.00    +0.008 A 
ATOM     19  C   UNL     1      -5.927  -9.018  11.212  0.00  0.00    +0.046 A 
ATOM     20  C   UNL     1      -3.987  -8.925   9.775  0.00  0.00    +0.046 A 
ATOM     22  C   UNL     1      -5.300  -8.549  10.058  0.00  0.00    +0.120 A 
BRANCH  22   2
ATOM      2  O   UNL     1      -5.970  -7.724   9.207  0.00  0.00    -0.495 OA
ATOM     27  C   UNL     1      -7.306  -8.092   8.864  0.00  0.00    +0.277 C 
ENDBRANCH  22   2
ENDBRANCH  13  15
ENDBRANCH   4  13
ENDBRANCH  14   9
TORSDOF 9
ENDMDL
MODEL 5
REMARK VINA RESULT:      -6.4     18.062     19.556
REMARK  Name = 45783469
REMARK  11 active torsions:
REMARK  status: ('A' for Active; 'I' for Inactive)
REMARK    1  A    between atoms: O_2  and  C_22
REMARK    2  A    between atoms: O_2  and  C_27
REMARK    3  A    between atoms: O_3  and  C_29
REMARK    4  A    between atoms: O_3  and  C_30
REMARK    5  A    between atoms: N_4  and  C_13
REMARK    6  A    between atoms: N_8  and  C_26
REMARK    7  A    between atoms: N_8  and  C_28
REMARK    8  A    between atoms: C_9  and  C_14
REMARK    9  A    between atoms: C_13  and  C_15
REMARK   10  A    between atoms: C_18  and  C_21
REMARK   11  A    between atoms: C_28  and  C_29
REMARK                            x       y       z     vdW  Elec       q    Type
REMARK                         _______ _______ _______ _____ _____    ______ ____
ROOT
ATOM      1  O   UNL     1      -5.322  -9.562  15.752  0.00  0.00    -0.336 OA
ATOM      5  N   UNL     1      -5.630 -11.340  17.078  0.00  0.00    -0.190 NA
ATOM      6  N   UNL     1      -6.533  -9.344  16.420  0.00  0.00    -0.056 NA
ATOM     14  C   UNL     1      -4.857 -10.759  16.196  0.00  0.00    +0.245 A 
ATOM     18  C   UNL     1      -6.647 -10.435  17.183  0.00  0.00    +0.204 A 
ENDROOT
BRANCH  18  21
ATOM      7  N   UNL     1      -8.661 -11.735  20.026  0.00  0.00    -0.240 NA
ATOM     21  C   UNL     1      -7.761 -10.653  18.059  0.00  0.00    +0.041 A 
ATOM     23  C   UNL     1      -8.985 -10.035  17.830  0.00  0.00    +0.016 A 
ATOM     24  C   UNL     1      -7.651 -11.486  19.161  0.00  0.00    +0.124 A 
ATOM     25  C   UNL     1     -10.048 -10.267  18.697  0.00  0.00    +0.044 A 
ATOM     26  C   UNL     1      -9.835 -11.117  19.771  0.00  0.00    +0.119 A 
BRANCH  26   8
ATOM      8  N   UNL     1     -10.927 -11.341  20.645  0.00  0.00    -0.327 N 
ATOM     31  H   UNL     1     -10.969 -10.759  21.474  0.00  0.00    +0.148 HD
BRANCH   8  28
ATOM     28  C   UNL     1     -11.924 -12.331  20.395  0.00  0.00    +0.131 C 
BRANCH  28  29
ATOM     29  C   UNL     1     -11.972 -13.322  21.545  0.00  0.00    +0.178 C 
BRANCH  29   3
ATOM      3  O   UNL     1     -10.685 -13.901  21.726  0.00  0.00    -0.381 OA
ATOM     30  C   UNL     1     -10.444 -14.939  20.785  0.00  0.00    +0.194 C 
ENDBRANCH  29   3
ENDBRANCH  28  29
ENDBRANCH   8  28
ENDBRANCH  26   8
ENDBRANCH  18  21
BRANCH  14   9
ATOM      4  N   UNL     1      -3.241 -10.608  14.309  0.00  0.00    -0.287 NA
ATOM      9  C   UNL     1      -3.539 -11.227  15.617  0.00  0.00    +0.146 C 
ATOM     10  C   UNL     1      -2.336 -10.861  16.505  0.00  0.00    +0.030 C 
ATOM     11  C   UNL     1      -1.388 -10.092  15.595  0.00  0.00    +0.017 C 
ATOM     12  C   UNL     1      -1.784 -10.545  14.205  0.00  0.00    +0.085 C 
BRANCH   4  13
ATOM     13  C   UNL     1      -3.842 -11.319  13.188  0.00  0.00    +0.120 C 
BRANCH  13  15
ATOM     15  C   UNL     1      -4.397 -10.374  12.157  0.00  0.00    -0.033 A 
ATOM     16  C   UNL     1      -3.612  -9.985  11.072  0.00  0.00    +0.008 A 
ATOM     17  C   UNL     1      -5.698  -9.887  12.287  0.00  0.00    +0.008 A 
ATOM     19  C   UNL     1      -4.128  -9.109  10.116  0.00  0.00    +0.046 A 
ATOM     20  C   UNL     1      -6.214  -9.012  11.331  0.00  0.00    +0.046 A 
ATOM     22  C   UNL     1      -5.429  -8.623  10.246  0.00  0.00    +0.120 A 
BRANCH  22   2
ATOM      2  O   UNL     1      -5.933  -7.769   9.313  0.00  0.00    -0.495 OA
ATOM     27  C   UNL     1      -7.270  -8.003   8.873  0.00  0.00    +0.277 C 
ENDBRANCH  22   2
ENDBRANCH  13  15
ENDBRANCH   4  13
ENDBRANCH  14   9
TORSDOF 9
ENDMDL
MODEL 6
REMARK VINA RESULT:      -6.4      3.744      7.871
REMARK  Name = 45783469
REMARK  11 active torsions:
REMARK  status: ('A' for Active; 'I' for Inactive)
REMARK    1  A    between atoms: O_2  and  C_22
REMARK    2  A    between atoms: O_2  and  C_27
REMARK    3  A    between atoms: O_3  and  C_29
REMARK    4  A    between atoms: O_3  and  C_30
REMARK    5  A    between atoms: N_4  and  C_13
REMARK    6  A    between atoms: N_8  and  C_26
REMARK    7  A    between atoms: N_8  and  C_28
REMARK    8  A    between atoms: C_9  and  C_14
REMARK    9  A    between atoms: C_13  and  C_15
REMARK   10  A    between atoms: C_18  and  C_21
REMARK   11  A    between atoms: C_28  and  C_29
REMARK                            x       y       z     vdW  Elec       q    Type
REMARK                         _______ _______ _______ _____ _____    ______ ____
ROOT
ATOM      1  O   UNL     1     -11.661  10.786  19.669  0.00  0.00    -0.336 OA
ATOM      5  N   UNL     1     -11.433   8.683  18.936  0.00  0.00    -0.190 NA
ATOM      6  N   UNL     1     -12.379   9.982  20.563  0.00  0.00    -0.056 NA
ATOM     14  C   UNL     1     -11.136   9.943  18.743  0.00  0.00    +0.245 A 
ATOM     18  C   UNL     1     -12.198   8.756  20.064  0.00  0.00    +0.204 A 
ENDROOT
BRANCH  18  21
ATOM      7  N   UNL     1     -14.739   6.337  21.294  0.00  0.00    -0.240 NA
ATOM     21  C   UNL     1     -12.766   7.585  20.666  0.00  0.00    +0.041 A 
ATOM     23  C   UNL     1     -11.956   6.586  21.194  0.00  0.00    +0.016 A 
ATOM     24  C   UNL     1     -14.139   7.415  20.740  0.00  0.00    +0.124 A 
ATOM     25  C   UNL     1     -12.537   5.461  21.772  0.00  0.00    +0.044 A 
ATOM     26  C   UNL     1     -13.921   5.386  21.796  0.00  0.00    +0.119 A 
BRANCH  26   8
ATOM      8  N   UNL     1     -14.497   4.235  22.388  0.00  0.00    -0.327 N 
ATOM     31  H   UNL     1     -14.037   3.351  22.198  0.00  0.00    +0.148 HD
BRANCH   8  28
ATOM     28  C   UNL     1     -15.663   4.291  23.207  0.00  0.00    +0.131 C 
BRANCH  28  29
ATOM     29  C   UNL     1     -15.391   3.628  24.547  0.00  0.00    +0.178 C 
BRANCH  29   3
ATOM      3  O   UNL     1     -16.081   2.385  24.608  0.00  0.00    -0.381 OA
ATOM     30  C   UNL     1     -17.251   2.399  23.802  0.00  0.00    +0.194 C 
ENDBRANCH  29   3
ENDBRANCH  28  29
ENDBRANCH   8  28
ENDBRANCH  26   8
ENDBRANCH  18  21
BRANCH  14   9
ATOM      4  N   UNL     1     -10.938  10.478  16.320  0.00  0.00    -0.287 NA
ATOM      9  C   UNL     1     -10.301  10.576  17.650  0.00  0.00    +0.146 C 
ATOM     10  C   UNL     1     -10.082  12.085  17.868  0.00  0.00    +0.030 C 
ATOM     11  C   UNL     1     -10.568  12.747  16.586  0.00  0.00    +0.017 C 
ATOM     12  C   UNL     1     -10.480  11.638  15.557  0.00  0.00    +0.085 C 
BRANCH   4  13
ATOM     13  C   UNL     1     -10.650   9.223  15.638  0.00  0.00    +0.120 C 
BRANCH  13  15
ATOM     15  C   UNL     1     -11.900   8.571  15.112  0.00  0.00    -0.033 A 
ATOM     16  C   UNL     1     -11.885   7.931  13.873  0.00  0.00    +0.008 A 
ATOM     17  C   UNL     1     -13.075   8.607  15.864  0.00  0.00    +0.008 A 
ATOM     19  C   UNL     1     -13.044   7.326  13.386  0.00  0.00    +0.046 A 
ATOM     20  C   UNL     1     -14.233   8.002  15.377  0.00  0.00    +0.046 A 
ATOM     22  C   UNL     1     -14.218   7.362  14.138  0.00  0.00    +0.120 A 
BRANCH  22   2
ATOM      2  O   UNL     1     -15.349   6.770  13.663  0.00  0.00    -0.495 OA
ATOM     27  C   UNL     1     -16.282   6.287  14.628  0.00  0.00    +0.277 C 
ENDBRANCH  22   2
ENDBRANCH  13  15
ENDBRANCH   4  13
ENDBRANCH  14   9
TORSDOF 9
ENDMDL
MODEL 7
REMARK VINA RESULT:      -6.4     16.550     18.794
REMARK  Name = 45783469
REMARK  11 active torsions:
REMARK  status: ('A' for Active; 'I' for Inactive)
REMARK    1  A    between atoms: O_2  and  C_22
REMARK    2  A    between atoms: O_2  and  C_27
REMARK    3  A    between atoms: O_3  and  C_29
REMARK    4  A    between atoms: O_3  and  C_30
REMARK    5  A    between atoms: N_4  and  C_13
REMARK    6  A    between atoms: N_8  and  C_26
REMARK    7  A    between atoms: N_8  and  C_28
REMARK    8  A    between atoms: C_9  and  C_14
REMARK    9  A    between atoms: C_13  and  C_15
REMARK   10  A    between atoms: C_18  and  C_21
REMARK   11  A    between atoms: C_28  and  C_29
REMARK                            x       y       z     vdW  Elec       q    Type
REMARK                         _______ _______ _______ _____ _____    ______ ____
ROOT
ATOM      1  O   UNL     1      -9.039 -11.090  20.055  0.00  0.00    -0.336 OA
ATOM      5  N   UNL     1      -8.473 -11.366  17.905  0.00  0.00    -0.190 NA
ATOM      6  N   UNL     1      -7.644 -10.975  20.001  0.00  0.00    -0.056 NA
ATOM     14  C   UNL     1      -9.446 -11.320  18.779  0.00  0.00    +0.245 A 
ATOM     18  C   UNL     1      -7.386 -11.149  18.702  0.00  0.00    +0.204 A 
ENDROOT
BRANCH  18  21
ATOM      7  N   UNL     1      -4.549 -10.375  16.426  0.00  0.00    -0.240 NA
ATOM     21  C   UNL     1      -6.056 -11.114  18.167  0.00  0.00    +0.041 A 
ATOM     23  C   UNL     1      -5.004 -11.748  18.818  0.00  0.00    +0.016 A 
ATOM     24  C   UNL     1      -5.779 -10.446  16.984  0.00  0.00    +0.124 A 
ATOM     25  C   UNL     1      -3.725 -11.697  18.274  0.00  0.00    +0.044 A 
ATOM     26  C   UNL     1      -3.552 -11.003  17.087  0.00  0.00    +0.119 A 
BRANCH  26   8
ATOM      8  N   UNL     1      -2.243 -10.960  16.547  0.00  0.00    -0.327 N 
ATOM     31  H   UNL     1      -1.521 -10.571  17.143  0.00  0.00    +0.148 HD
BRANCH   8  28
ATOM     28  C   UNL     1      -1.935 -11.429  15.235  0.00  0.00    +0.131 C 
BRANCH  28  29
ATOM     29  C   UNL     1      -1.803 -10.254  14.281  0.00  0.00    +0.178 C 
BRANCH  29   3
ATOM      3  O   UNL     1      -2.647 -10.462  13.154  0.00  0.00    -0.381 OA
ATOM     30  C   UNL     1      -1.916 -10.405  11.937  0.00  0.00    +0.194 C 
ENDBRANCH  29   3
ENDBRANCH  28  29
ENDBRANCH   8  28
ENDBRANCH  26   8
ENDBRANCH  18  21
BRANCH  14   9
ATOM      4  N   UNL     1     -11.472 -10.546  17.558  0.00  0.00    -0.287 NA
ATOM      9  C   UNL     1     -10.936 -11.483  18.566  0.00  0.00    +0.146 C 
ATOM     10  C   UNL     1     -11.312 -12.880  18.039  0.00  0.00    +0.030 C 
ATOM     11  C   UNL     1     -12.108 -12.625  16.767  0.00  0.00    +0.017 C 
ATOM     12  C   UNL     1     -12.621 -11.211  16.945  0.00  0.00    +0.085 C 
BRANCH   4  13
ATOM     13  C   UNL     1     -11.822  -9.245  18.112  0.00  0.00    +0.120 C 
BRANCH  13  15
ATOM     15  C   UNL     1     -11.797  -8.163  17.066  0.00  0.00    -0.033 A 
ATOM     16  C   UNL     1     -10.592  -7.550  16.725  0.00  0.00    +0.008 A 
ATOM     17  C   UNL     1     -12.980  -7.775  16.437  0.00  0.00    +0.008 A 
ATOM     19  C   UNL     1     -10.569  -6.547  15.755  0.00  0.00    +0.046 A 
ATOM     20  C   UNL     1     -12.957  -6.773  15.466  0.00  0.00    +0.046 A 
ATOM     22  C   UNL     1     -11.752  -6.159  15.125  0.00  0.00    +0.120 A 
BRANCH  22   2
ATOM      2  O   UNL     1     -11.729  -5.182  14.177  0.00  0.00    -0.495 OA
ATOM     27  C   UNL     1     -12.946  -4.932  13.475  0.00  0.00    +0.277 C 
ENDBRANCH  22   2
ENDBRANCH  13  15
ENDBRANCH   4  13
ENDBRANCH  14   9
TORSDOF 9
ENDMDL
MODEL 8
REMARK VINA RESULT:      -6.3     29.486     33.407
REMARK  Name = 45783469
REMARK  11 active torsions:
REMARK  status: ('A' for Active; 'I' for Inactive)
REMARK    1  A    between atoms: O_2  and  C_22
REMARK    2  A    between atoms: O_2  and  C_27
REMARK    3  A    between atoms: O_3  and  C_29
REMARK    4  A    between atoms: O_3  and  C_30
REMARK    5  A    between atoms: N_4  and  C_13
REMARK    6  A    between atoms: N_8  and  C_26
REMARK    7  A    between atoms: N_8  and  C_28
REMARK    8  A    between atoms: C_9  and  C_14
REMARK    9  A    between atoms: C_13  and  C_15
REMARK   10  A    between atoms: C_18  and  C_21
REMARK   11  A    between atoms: C_28  and  C_29
REMARK                            x       y       z     vdW  Elec       q    Type
REMARK                         _______ _______ _______ _____ _____    ______ ____
ROOT
ATOM      1  O   UNL     1       9.986   4.595   5.522  0.00  0.00    -0.336 OA
ATOM      5  N   UNL     1      11.103   5.931   4.115  0.00  0.00    -0.190 NA
ATOM      6  N   UNL     1      10.177   3.853   4.350  0.00  0.00    -0.056 NA
ATOM     14  C   UNL     1      10.561   5.806   5.300  0.00  0.00    +0.245 A 
ATOM     18  C   UNL     1      10.843   4.708   3.568  0.00  0.00    +0.204 A 
ENDROOT
BRANCH  18  21
ATOM      7  N   UNL     1      10.681   4.044  -0.086  0.00  0.00    -0.240 NA
ATOM     21  C   UNL     1      11.260   4.374   2.238  0.00  0.00    +0.041 A 
ATOM     23  C   UNL     1      12.586   4.063   1.959  0.00  0.00    +0.016 A 
ATOM     24  C   UNL     1      10.354   4.351   1.189  0.00  0.00    +0.124 A 
ATOM     25  C   UNL     1      12.961   3.742   0.658  0.00  0.00    +0.044 A 
ATOM     26  C   UNL     1      11.979   3.747  -0.319  0.00  0.00    +0.119 A 
BRANCH  26   8
ATOM      8  N   UNL     1      12.377   3.419  -1.639  0.00  0.00    -0.327 N 
ATOM     31  H   UNL     1      13.060   4.031  -2.070  0.00  0.00    +0.148 HD
BRANCH   8  28
ATOM     28  C   UNL     1      11.854   2.293  -2.343  0.00  0.00    +0.131 C 
BRANCH  28  29
ATOM     29  C   UNL     1      11.036   2.761  -3.535  0.00  0.00    +0.178 C 
BRANCH  29   3
ATOM      3  O   UNL     1       9.675   2.910  -3.145  0.00  0.00    -0.381 OA
ATOM     30  C   UNL     1       9.016   3.900  -3.923  0.00  0.00    +0.194 C 
ENDBRANCH  29   3
ENDBRANCH  28  29
ENDBRANCH   8  28
ENDBRANCH  26   8
ENDBRANCH  18  21
BRANCH  14   9
ATOM      4  N   UNL     1       9.360   7.747   6.291  0.00  0.00    -0.287 NA
ATOM      9  C   UNL     1      10.489   6.806   6.434  0.00  0.00    +0.146 C 
ATOM     10  C   UNL     1      10.269   6.136   7.803  0.00  0.00    +0.030 C 
ATOM     11  C   UNL     1       9.031   6.808   8.380  0.00  0.00    +0.017 C 
ATOM     12  C   UNL     1       8.970   8.132   7.647  0.00  0.00    +0.085 C 
BRANCH   4  13
ATOM     13  C   UNL     1       9.677   8.902   5.462  0.00  0.00    +0.120 C 
BRANCH  13  15
ATOM     15  C   UNL     1       8.660   9.107   4.372  0.00  0.00    -0.033 A 
ATOM     16  C   UNL     1       8.933   8.680   3.073  0.00  0.00    +0.008 A 
ATOM     17  C   UNL     1       7.443   9.724   4.662  0.00  0.00    +0.008 A 
ATOM     19  C   UNL     1       7.990   8.870   2.063  0.00  0.00    +0.046 A 
ATOM     20  C   UNL     1       6.499   9.913   3.652  0.00  0.00    +0.046 A 
ATOM     22  C   UNL     1       6.773   9.486   2.353  0.00  0.00    +0.120 A 
BRANCH  22   2
ATOM      2  O   UNL     1       5.852   9.671   1.367  0.00  0.00    -0.495 OA
ATOM     27  C   UNL     1       6.332   9.681   0.024  0.00  0.00    +0.277 C 
ENDBRANCH  22   2
ENDBRANCH  13  15
ENDBRANCH   4  13
ENDBRANCH  14   9
TORSDOF 9
ENDMDL
MODEL 9
REMARK VINA RESULT:      -6.3     17.383     20.197
REMARK  Name = 45783469
REMARK  11 active torsions:
REMARK  status: ('A' for Active; 'I' for Inactive)
REMARK    1  A    between atoms: O_2  and  C_22
REMARK    2  A    between atoms: O_2  and  C_27
REMARK    3  A    between atoms: O_3  and  C_29
REMARK    4  A    between atoms: O_3  and  C_30
REMARK    5  A    between atoms: N_4  and  C_13
REMARK    6  A    between atoms: N_8  and  C_26
REMARK    7  A    between atoms: N_8  and  C_28
REMARK    8  A    between atoms: C_9  and  C_14
REMARK    9  A    between atoms: C_13  and  C_15
REMARK   10  A    between atoms: C_18  and  C_21
REMARK   11  A    between atoms: C_28  and  C_29
REMARK                            x       y       z     vdW  Elec       q    Type
REMARK                         _______ _______ _______ _____ _____    ______ ____
ROOT
ATOM      1  O   UNL     1      -6.711 -11.518  20.310  0.00  0.00    -0.336 OA
ATOM      5  N   UNL     1      -7.033 -12.388  18.272  0.00  0.00    -0.190 NA
ATOM      6  N   UNL     1      -5.554 -11.230  19.577  0.00  0.00    -0.056 NA
ATOM     14  C   UNL     1      -7.530 -12.202  19.468  0.00  0.00    +0.245 A 
ATOM     18  C   UNL     1      -5.819 -11.775  18.386  0.00  0.00    +0.204 A 
ENDROOT
BRANCH  18  21
ATOM      7  N   UNL     1      -4.018 -12.745  15.281  0.00  0.00    -0.240 NA
ATOM     21  C   UNL     1      -4.894 -11.726  17.291  0.00  0.00    +0.041 A 
ATOM     23  C   UNL     1      -4.000 -10.670  17.154  0.00  0.00    +0.016 A 
ATOM     24  C   UNL     1      -4.863 -12.730  16.336  0.00  0.00    +0.124 A 
ATOM     25  C   UNL     1      -3.115 -10.651  16.081  0.00  0.00    +0.044 A 
ATOM     26  C   UNL     1      -3.164 -11.703  15.181  0.00  0.00    +0.119 A 
BRANCH  26   8
ATOM      8  N   UNL     1      -2.256 -11.668  14.094  0.00  0.00    -0.327 N 
ATOM     31  H   UNL     1      -1.854 -12.555  13.812  0.00  0.00    +0.148 HD
BRANCH   8  28
ATOM     28  C   UNL     1      -1.908 -10.460  13.419  0.00  0.00    +0.131 C 
BRANCH  28  29
ATOM     29  C   UNL     1      -2.134 -10.615  11.925  0.00  0.00    +0.178 C 
BRANCH  29   3
ATOM      3  O   UNL     1      -3.342  -9.959  11.558  0.00  0.00    -0.381 OA
ATOM     30  C   UNL     1      -3.229  -9.329  10.289  0.00  0.00    +0.194 C 
ENDBRANCH  29   3
ENDBRANCH  28  29
ENDBRANCH   8  28
ENDBRANCH  26   8
ENDBRANCH  18  21
BRANCH  14   9
ATOM      4  N   UNL     1     -10.008 -12.099  19.258  0.00  0.00    -0.287 NA
ATOM      9  C   UNL     1      -8.868 -12.633  20.030  0.00  0.00    +0.146 C 
ATOM     10  C   UNL     1      -9.059 -14.161  20.002  0.00  0.00    +0.030 C 
ATOM     11  C   UNL     1     -10.362 -14.385  19.247  0.00  0.00    +0.017 C 
ATOM     12  C   UNL     1     -11.094 -13.068  19.401  0.00  0.00    +0.085 C 
BRANCH   4  13
ATOM     13  C   UNL     1     -10.407 -10.761  19.676  0.00  0.00    +0.120 C 
BRANCH  13  15
ATOM     15  C   UNL     1     -10.452  -9.801  18.518  0.00  0.00    -0.033 A 
ATOM     16  C   UNL     1     -11.674  -9.289  18.083  0.00  0.00    +0.008 A 
ATOM     17  C   UNL     1      -9.271  -9.423  17.879  0.00  0.00    +0.008 A 
ATOM     19  C   UNL     1     -11.716  -8.399  17.009  0.00  0.00    +0.046 A 
ATOM     20  C   UNL     1      -9.312  -8.533  16.806  0.00  0.00    +0.046 A 
ATOM     22  C   UNL     1     -10.534  -8.021  16.371  0.00  0.00    +0.120 A 
BRANCH  22   2
ATOM      2  O   UNL     1     -10.574  -7.151  15.325  0.00  0.00    -0.495 OA
ATOM     27  C   UNL     1     -11.213  -5.895  15.549  0.00  0.00    +0.277 C 
ENDBRANCH  22   2
ENDBRANCH  13  15
ENDBRANCH   4  13
ENDBRANCH  14   9
TORSDOF 9
ENDMDL
MODEL 10
REMARK VINA RESULT:      -6.2      5.855      8.553
REMARK  Name = 45783469
REMARK  11 active torsions:
REMARK  status: ('A' for Active; 'I' for Inactive)
REMARK    1  A    between atoms: O_2  and  C_22
REMARK    2  A    between atoms: O_2  and  C_27
REMARK    3  A    between atoms: O_3  and  C_29
REMARK    4  A    between atoms: O_3  and  C_30
REMARK    5  A    between atoms: N_4  and  C_13
REMARK    6  A    between atoms: N_8  and  C_26
REMARK    7  A    between atoms: N_8  and  C_28
REMARK    8  A    between atoms: C_9  and  C_14
REMARK    9  A    between atoms: C_13  and  C_15
REMARK   10  A    between atoms: C_18  and  C_21
REMARK   11  A    between atoms: C_28  and  C_29
REMARK                            x       y       z     vdW  Elec       q    Type
REMARK                         _______ _______ _______ _____ _____    ______ ____
ROOT
ATOM      1  O   UNL     1     -12.070  11.876  19.216  0.00  0.00    -0.336 OA
ATOM      5  N   UNL     1     -11.246  10.299  20.576  0.00  0.00    -0.190 NA
ATOM      6  N   UNL     1     -12.732  12.032  20.440  0.00  0.00    -0.056 NA
ATOM     14  C   UNL     1     -11.213  10.834  19.382  0.00  0.00    +0.245 A 
ATOM     18  C   UNL     1     -12.193  11.067  21.190  0.00  0.00    +0.204 A 
ENDROOT
BRANCH  18  21
ATOM      7  N   UNL     1     -12.287  11.370  24.894  0.00  0.00    -0.240 NA
ATOM     21  C   UNL     1     -12.577  10.842  22.553  0.00  0.00    +0.041 A 
ATOM     23  C   UNL     1     -13.568   9.921  22.876  0.00  0.00    +0.016 A 
ATOM     24  C   UNL     1     -11.972  11.535  23.589  0.00  0.00    +0.124 A 
ATOM     25  C   UNL     1     -13.918   9.724  24.208  0.00  0.00    +0.044 A 
ATOM     26  C   UNL     1     -13.254  10.468  25.170  0.00  0.00    +0.119 A 
BRANCH  26   8
ATOM      8  N   UNL     1     -13.623  10.256  26.521  0.00  0.00    -0.327 N 
ATOM     31  H   UNL     1     -14.447   9.687  26.681  0.00  0.00    +0.148 HD
BRANCH   8  28
ATOM     28  C   UNL     1     -12.892  10.808  27.615  0.00  0.00    +0.131 C 
BRANCH  28  29
ATOM     29  C   UNL     1     -11.705   9.920  27.948  0.00  0.00    +0.178 C 
BRANCH  29   3
ATOM      3  O   UNL     1     -11.505   9.906  29.357  0.00  0.00    -0.381 OA
ATOM     30  C   UNL     1     -11.403  11.223  29.881  0.00  0.00    +0.194 C 
ENDBRANCH  29   3
ENDBRANCH  28  29
ENDBRANCH   8  28
ENDBRANCH  26   8
ENDBRANCH  18  21
BRANCH  14   9
ATOM      4  N   UNL     1     -11.050   9.514  17.279  0.00  0.00    -0.287 NA
ATOM      9  C   UNL     1     -10.366  10.460  18.184  0.00  0.00    +0.146 C 
ATOM     10  C   UNL     1     -10.023  11.671  17.297  0.00  0.00    +0.030 C 
ATOM     11  C   UNL     1     -10.495  11.288  15.901  0.00  0.00    +0.017 C 
ATOM     12  C   UNL     1     -10.527   9.775  15.938  0.00  0.00    +0.085 C 
BRANCH   4  13
ATOM     13  C   UNL     1     -10.884   8.121  17.672  0.00  0.00    +0.120 C 
BRANCH  13  15
ATOM     15  C   UNL     1     -11.874   7.715  18.730  0.00  0.00    -0.033 A 
ATOM     16  C   UNL     1     -13.232   7.976  18.553  0.00  0.00    +0.008 A 
ATOM     17  C   UNL     1     -11.432   7.076  19.890  0.00  0.00    +0.008 A 
ATOM     19  C   UNL     1     -14.149   7.599  19.534  0.00  0.00    +0.046 A 
ATOM     20  C   UNL     1     -12.349   6.698  20.870  0.00  0.00    +0.046 A 
ATOM     22  C   UNL     1     -13.707   6.960  20.693  0.00  0.00    +0.120 A 
BRANCH  22   2
ATOM      2  O   UNL     1     -14.602   6.591  21.650  0.00  0.00    -0.495 OA
ATOM     27  C   UNL     1     -14.468   5.278  22.193  0.00  0.00    +0.277 C 
ENDBRANCH  22   2
ENDBRANCH  13  15
ENDBRANCH   4  13
ENDBRANCH  14   9
TORSDOF 9
ENDMDL
