MODEL 1
REMARK VINA RESULT:      -6.7      0.000      0.000
REMARK  Name = 7134303
REMARK  9 active torsions:
REMARK  status: ('A' for Active; 'I' for Inactive)
REMARK    1  A    between atoms: N_8  and  C_14
REMARK    2  A    between atoms: N_9  and  C_21
REMARK    3  A    between atoms: C_15  and  C_19
REMARK    4  A    between atoms: C_20  and  C_24
REMARK    5  A    between atoms: C_21  and  C_22
REMARK    6  A    between atoms: C_21  and  C_26
REMARK    7  A    between atoms: C_22  and  C_25
REMARK    8  A    between atoms: C_23  and  C_27
REMARK    9  A    between atoms: C_32  and  C_39
REMARK                            x       y       z     vdW  Elec       q    Type
REMARK                         _______ _______ _______ _____ _____    ______ ____
ROOT
ATOM      3  O   UNL     1      -8.515 -12.644  17.119  0.00  0.00    -0.267 OA
ATOM      7  N   UNL     1      -8.355 -10.815  15.698  0.00  0.00    -0.283 N 
ATOM     14  C   UNL     1      -7.522  -9.746  13.104  0.00  0.00    +0.077 C 
ATOM     15  C   UNL     1      -7.146 -11.347  15.058  0.00  0.00    +0.164 C 
ATOM     16  C   UNL     1      -7.112 -11.154  13.542  0.00  0.00    +0.054 C 
ATOM     17  C   UNL     1      -8.863  -9.375  13.733  0.00  0.00    +0.041 C 
ATOM     18  C   UNL     1      -8.813  -9.488  15.252  0.00  0.00    +0.111 C 
ATOM     20  C   UNL     1      -8.925 -11.534  16.774  0.00  0.00    +0.283 C 
ENDROOT
BRANCH  20  24
ATOM      4  O   UNL     1     -11.286 -11.139  17.010  0.00  0.00    -0.458 OA
ATOM     24  C   UNL     1     -10.039 -10.914  17.485  0.00  0.00    +0.189 A 
ATOM     29  C   UNL     1     -10.065 -10.111  18.592  0.00  0.00    +0.054 A 
ATOM     33  C   UNL     1     -11.431  -9.817  18.821  0.00  0.00    +0.042 A 
ATOM     35  C   UNL     1     -12.133 -10.465  17.831  0.00  0.00    +0.196 A 
ENDBRANCH  20  24
BRANCH  15  19
ATOM      2  O   UNL     1      -5.670  -9.525  15.513  0.00  0.00    -0.274 OA
ATOM      9  N   UNL     1      -5.323 -11.553  16.601  0.00  0.00    -0.302 N 
ATOM     19  C   UNL     1      -5.981 -10.691  15.740  0.00  0.00    +0.234 C 
ATOM     41  H   UNL     1      -5.708 -12.481  16.759  0.00  0.00    +0.150 HD
BRANCH   9  21
ATOM     21  C   UNL     1      -4.156 -11.173  17.362  0.00  0.00    +0.163 C 
BRANCH  21  26
ATOM      6  O   UNL     1      -5.489 -11.579  19.352  0.00  0.00    -0.274 OA
ATOM     11  N   UNL     1      -3.257 -12.119  19.397  0.00  0.00    -0.328 N 
ATOM     26  C   UNL     1      -4.393 -11.617  18.798  0.00  0.00    +0.231 C 
ATOM     43  H   UNL     1      -2.363 -12.166  18.917  0.00  0.00    +0.145 HD
ATOM     44  H   UNL     1      -3.280 -12.463  20.351  0.00  0.00    +0.145 HD
ENDBRANCH  21  26
BRANCH  21  22
ATOM     22  C   UNL     1      -2.871 -11.803  16.811  0.00  0.00    +0.069 C 
BRANCH  22  25
ATOM     10  N   UNL     1      -1.101  -9.549  14.550  0.00  0.00    -0.360 N 
ATOM     25  C   UNL     1      -2.285 -11.009  15.667  0.00  0.00    -0.020 A 
ATOM     28  C   UNL     1      -2.598 -11.186  14.310  0.00  0.00    +0.003 A 
ATOM     30  C   UNL     1      -1.375 -10.013  15.808  0.00  0.00    +0.087 A 
ATOM     31  C   UNL     1      -1.832 -10.246  13.616  0.00  0.00    +0.047 A 
ATOM     34  C   UNL     1      -3.448 -12.041  13.582  0.00  0.00    +0.010 A 
ATOM     36  C   UNL     1      -1.875 -10.120  12.222  0.00  0.00    +0.026 A 
ATOM     37  C   UNL     1      -3.502 -11.925  12.188  0.00  0.00    +0.001 A 
ATOM     38  C   UNL     1      -2.727 -10.979  11.521  0.00  0.00    +0.002 A 
ATOM     42  H   UNL     1      -0.454  -8.803  14.336  0.00  0.00    +0.165 HD
ENDBRANCH  22  25
ENDBRANCH  21  22
ENDBRANCH   9  21
ENDBRANCH  15  19
BRANCH  14   8
ATOM      5  O   UNL     1      -5.576  -8.572  11.434  0.00  0.00    -0.270 OA
ATOM      8  N   UNL     1      -7.587  -9.657  11.665  0.00  0.00    -0.308 N 
ATOM     23  C   UNL     1      -6.579  -9.058  10.910  0.00  0.00    +0.254 C 
ATOM     40  H   UNL     1      -8.371 -10.094  11.188  0.00  0.00    +0.149 HD
BRANCH  23  27
ATOM      1  S   UNL     1      -7.938  -8.067   8.751  0.00  0.00    +0.041 S 
ATOM     12  N   UNL     1      -6.615  -9.537   7.212  0.00  0.00    -0.146 NA
ATOM     13  N   UNL     1      -7.575  -8.627   7.215  0.00  0.00    -0.110 NA
ATOM     27  C   UNL     1      -6.775  -9.074   9.454  0.00  0.00    +0.117 A 
ATOM     32  C   UNL     1      -6.157  -9.794   8.495  0.00  0.00    +0.081 A 
ATOM     39  C   UNL     1      -5.080 -10.791   8.663  0.00  0.00    +0.069 C 
ENDBRANCH  23  27
ENDBRANCH  14   8
TORSDOF 8
ENDMDL
MODEL 2
REMARK VINA RESULT:      -6.7      2.714      7.320
REMARK  Name = 7134303
REMARK  9 active torsions:
REMARK  status: ('A' for Active; 'I' for Inactive)
REMARK    1  A    between atoms: N_8  and  C_14
REMARK    2  A    between atoms: N_9  and  C_21
REMARK    3  A    between atoms: C_15  and  C_19
REMARK    4  A    between atoms: C_20  and  C_24
REMARK    5  A    between atoms: C_21  and  C_22
REMARK    6  A    between atoms: C_21  and  C_26
REMARK    7  A    between atoms: C_22  and  C_25
REMARK    8  A    between atoms: C_23  and  C_27
REMARK    9  A    between atoms: C_32  and  C_39
REMARK                            x       y       z     vdW  Elec       q    Type
REMARK                         _______ _______ _______ _____ _____    ______ ____
ROOT
ATOM      3  O   UNL     1      -3.311  -9.597   9.869  0.00  0.00    -0.267 OA
ATOM      7  N   UNL     1      -5.220 -10.491  10.842  0.00  0.00    -0.283 N 
ATOM     14  C   UNL     1      -7.417 -10.182  12.751  0.00  0.00    +0.077 C 
ATOM     15  C   UNL     1      -4.980  -9.778  12.103  0.00  0.00    +0.164 C 
ATOM     16  C   UNL     1      -6.245  -9.199  12.736  0.00  0.00    +0.054 C 
ATOM     17  C   UNL     1      -7.644 -10.742  11.348  0.00  0.00    +0.041 C 
ATOM     18  C   UNL     1      -6.381 -11.398  10.802  0.00  0.00    +0.111 C 
ATOM     20  C   UNL     1      -4.271 -10.368   9.802  0.00  0.00    +0.283 C 
ENDROOT
BRANCH  20  24
ATOM      4  O   UNL     1      -5.094 -10.641   7.558  0.00  0.00    -0.458 OA
ATOM     24  C   UNL     1      -4.457 -11.197   8.615  0.00  0.00    +0.189 A 
ATOM     29  C   UNL     1      -4.097 -12.490   8.354  0.00  0.00    +0.054 A 
ATOM     33  C   UNL     1      -4.541 -12.756   7.037  0.00  0.00    +0.042 A 
ATOM     35  C   UNL     1      -5.142 -11.599   6.596  0.00  0.00    +0.196 A 
ENDBRANCH  20  24
BRANCH  15  19
ATOM      2  O   UNL     1      -3.951 -11.867  12.634  0.00  0.00    -0.274 OA
ATOM      9  N   UNL     1      -4.098 -10.232  14.284  0.00  0.00    -0.302 N 
ATOM     19  C   UNL     1      -4.283 -10.747  13.012  0.00  0.00    +0.234 C 
ATOM     41  H   UNL     1      -4.356  -9.266  14.468  0.00  0.00    +0.150 HD
BRANCH   9  21
ATOM     21  C   UNL     1      -3.470 -10.973  15.354  0.00  0.00    +0.163 C 
BRANCH  21  26
ATOM      6  O   UNL     1      -1.458  -9.949  14.457  0.00  0.00    -0.274 OA
ATOM     11  N   UNL     1      -1.327 -11.047  16.470  0.00  0.00    -0.328 N 
ATOM     26  C   UNL     1      -1.993 -10.607  15.346  0.00  0.00    +0.231 C 
ATOM     43  H   UNL     1      -1.789 -11.569  17.209  0.00  0.00    +0.145 HD
ATOM     44  H   UNL     1      -0.339 -10.857  16.598  0.00  0.00    +0.145 HD
ENDBRANCH  21  26
BRANCH  21  22
ATOM     22  C   UNL     1      -4.092 -10.662  16.721  0.00  0.00    +0.069 C 
BRANCH  22  25
ATOM     10  N   UNL     1      -5.869 -13.745  17.538  0.00  0.00    -0.360 N 
ATOM     25  C   UNL     1      -5.012 -11.762  17.198  0.00  0.00    -0.020 A 
ATOM     28  C   UNL     1      -6.171 -11.576  17.967  0.00  0.00    +0.003 A 
ATOM     30  C   UNL     1      -4.832 -13.081  16.940  0.00  0.00    +0.087 A 
ATOM     31  C   UNL     1      -6.702 -12.852  18.173  0.00  0.00    +0.047 A 
ATOM     34  C   UNL     1      -6.840 -10.466  18.518  0.00  0.00    +0.010 A 
ATOM     36  C   UNL     1      -7.873 -13.072  18.907  0.00  0.00    +0.026 A 
ATOM     37  C   UNL     1      -8.013 -10.671  19.253  0.00  0.00    +0.001 A 
ATOM     38  C   UNL     1      -8.520 -11.955  19.443  0.00  0.00    +0.002 A 
ATOM     42  H   UNL     1      -6.004 -14.746  17.518  0.00  0.00    +0.165 HD
ENDBRANCH  22  25
ENDBRANCH  21  22
ENDBRANCH   9  21
ENDBRANCH  15  19
BRANCH  14   8
ATOM      5  O   UNL     1      -8.526 -10.534  15.320  0.00  0.00    -0.270 OA
ATOM      8  N   UNL     1      -8.613  -9.545  13.249  0.00  0.00    -0.308 N 
ATOM     23  C   UNL     1      -9.096  -9.773  14.536  0.00  0.00    +0.254 C 
ATOM     40  H   UNL     1      -9.083  -8.868  12.654  0.00  0.00    +0.149 HD
BRANCH  23  27
ATOM      1  S   UNL     1     -11.636  -9.006  13.862  0.00  0.00    +0.041 S 
ATOM     12  N   UNL     1     -11.846  -7.728  16.007  0.00  0.00    -0.146 NA
ATOM     13  N   UNL     1     -12.514  -8.035  14.906  0.00  0.00    -0.110 NA
ATOM     27  C   UNL     1     -10.306  -9.026  14.907  0.00  0.00    +0.117 A 
ATOM     32  C   UNL     1     -10.582  -8.295  16.008  0.00  0.00    +0.081 A 
ATOM     39  C   UNL     1      -9.707  -8.046  17.172  0.00  0.00    +0.069 C 
ENDBRANCH  23  27
ENDBRANCH  14   8
TORSDOF 8
ENDMDL
MODEL 3
REMARK VINA RESULT:      -6.6     22.997     26.500
REMARK  Name = 7134303
REMARK  9 active torsions:
REMARK  status: ('A' for Active; 'I' for Inactive)
REMARK    1  A    between atoms: N_8  and  C_14
REMARK    2  A    between atoms: N_9  and  C_21
REMARK    3  A    between atoms: C_15  and  C_19
REMARK    4  A    between atoms: C_20  and  C_24
REMARK    5  A    between atoms: C_21  and  C_22
REMARK    6  A    between atoms: C_21  and  C_26
REMARK    7  A    between atoms: C_22  and  C_25
REMARK    8  A    between atoms: C_23  and  C_27
REMARK    9  A    between atoms: C_32  and  C_39
REMARK                            x       y       z     vdW  Elec       q    Type
REMARK                         _______ _______ _______ _____ _____    ______ ____
ROOT
ATOM      3  O   UNL     1      10.541   7.887   7.702  0.00  0.00    -0.267 OA
ATOM      7  N   UNL     1      10.035   6.519   5.896  0.00  0.00    -0.283 N 
ATOM     14  C   UNL     1      10.474   5.852   3.080  0.00  0.00    +0.077 C 
ATOM     15  C   UNL     1      10.289   7.599   4.934  0.00  0.00    +0.164 C 
ATOM     16  C   UNL     1      11.032   7.146   3.678  0.00  0.00    +0.054 C 
ATOM     17  C   UNL     1      10.393   4.774   4.158  0.00  0.00    +0.041 C 
ATOM     18  C   UNL     1       9.558   5.238   5.345  0.00  0.00    +0.111 C 
ATOM     20  C   UNL     1      10.137   6.803   7.277  0.00  0.00    +0.283 C 
ENDROOT
BRANCH  20  24
ATOM      4  O   UNL     1       8.942   6.111   9.247  0.00  0.00    -0.458 OA
ATOM     24  C   UNL     1       9.740   5.756   8.213  0.00  0.00    +0.189 A 
ATOM     29  C   UNL     1      10.035   4.420   8.248  0.00  0.00    +0.054 A 
ATOM     33  C   UNL     1       9.369   3.909   9.388  0.00  0.00    +0.042 A 
ATOM     35  C   UNL     1       8.718   4.977   9.961  0.00  0.00    +0.196 A 
ENDBRANCH  20  24
BRANCH  15  19
ATOM      2  O   UNL     1       8.005   7.526   4.241  0.00  0.00    -0.274 OA
ATOM      9  N   UNL     1       8.955   9.583   4.774  0.00  0.00    -0.302 N 
ATOM     19  C   UNL     1       8.955   8.207   4.616  0.00  0.00    +0.234 C 
ATOM     41  H   UNL     1       9.782  10.036   5.152  0.00  0.00    +0.150 HD
BRANCH   9  21
ATOM     21  C   UNL     1       7.799  10.409   4.510  0.00  0.00    +0.163 C 
BRANCH  21  26
ATOM      6  O   UNL     1       8.900  11.883   6.097  0.00  0.00    -0.274 OA
ATOM     11  N   UNL     1       6.943  12.586   5.122  0.00  0.00    -0.328 N 
ATOM     26  C   UNL     1       7.953  11.674   5.343  0.00  0.00    +0.231 C 
ATOM     43  H   UNL     1       6.179  12.408   4.477  0.00  0.00    +0.145 HD
ATOM     44  H   UNL     1       6.933  13.478   5.604  0.00  0.00    +0.145 HD
ENDBRANCH  21  26
BRANCH  21  22
ATOM     22  C   UNL     1       7.661  10.760   3.024  0.00  0.00    +0.069 C 
BRANCH  22  25
ATOM     10  N   UNL     1       4.220   9.804   2.269  0.00  0.00    -0.360 N 
ATOM     25  C   UNL     1       6.341  10.307   2.446  0.00  0.00    -0.020 A 
ATOM     28  C   UNL     1       6.137   9.869   1.128  0.00  0.00    +0.003 A 
ATOM     30  C   UNL     1       5.173  10.266   3.135  0.00  0.00    +0.087 A 
ATOM     31  C   UNL     1       4.779   9.554   1.036  0.00  0.00    +0.047 A 
ATOM     34  C   UNL     1       6.951   9.701  -0.008  0.00  0.00    +0.010 A 
ATOM     36  C   UNL     1       4.194   9.076  -0.143  0.00  0.00    +0.026 A 
ATOM     37  C   UNL     1       6.380   9.224  -1.193  0.00  0.00    +0.001 A 
ATOM     38  C   UNL     1       5.023   8.917  -1.257  0.00  0.00    +0.002 A 
ATOM     42  H   UNL     1       3.246   9.666   2.499  0.00  0.00    +0.165 HD
ENDBRANCH  22  25
ENDBRANCH  21  22
ENDBRANCH   9  21
ENDBRANCH  15  19
BRANCH  14   8
ATOM      5  O   UNL     1       9.646   4.112   1.021  0.00  0.00    -0.270 OA
ATOM      8  N   UNL     1      11.285   5.410   1.971  0.00  0.00    -0.308 N 
ATOM     23  C   UNL     1      10.798   4.546   0.992  0.00  0.00    +0.254 C 
ATOM     40  H   UNL     1      12.225   5.787   1.878  0.00  0.00    +0.149 HD
BRANCH  23  27
ATOM      1  S   UNL     1      11.272   4.440  -1.702  0.00  0.00    +0.041 S 
ATOM     12  N   UNL     1      13.571   3.534  -1.288  0.00  0.00    -0.146 NA
ATOM     13  N   UNL     1      12.747   3.881  -2.264  0.00  0.00    -0.110 NA
ATOM     27  C   UNL     1      11.735   4.213  -0.091  0.00  0.00    +0.117 A 
ATOM     32  C   UNL     1      12.991   3.723  -0.044  0.00  0.00    +0.081 A 
ATOM     39  C   UNL     1      13.785   3.381   1.154  0.00  0.00    +0.069 C 
ENDBRANCH  23  27
ENDBRANCH  14   8
TORSDOF 8
ENDMDL
MODEL 4
REMARK VINA RESULT:      -6.5      3.332      6.106
REMARK  Name = 7134303
REMARK  9 active torsions:
REMARK  status: ('A' for Active; 'I' for Inactive)
REMARK    1  A    between atoms: N_8  and  C_14
REMARK    2  A    between atoms: N_9  and  C_21
REMARK    3  A    between atoms: C_15  and  C_19
REMARK    4  A    between atoms: C_20  and  C_24
REMARK    5  A    between atoms: C_21  and  C_22
REMARK    6  A    between atoms: C_21  and  C_26
REMARK    7  A    between atoms: C_22  and  C_25
REMARK    8  A    between atoms: C_23  and  C_27
REMARK    9  A    between atoms: C_32  and  C_39
REMARK                            x       y       z     vdW  Elec       q    Type
REMARK                         _______ _______ _______ _____ _____    ______ ____
ROOT
ATOM      3  O   UNL     1      -6.118 -13.044  15.444  0.00  0.00    -0.267 OA
ATOM      7  N   UNL     1      -7.029 -10.924  15.698  0.00  0.00    -0.283 N 
ATOM     14  C   UNL     1      -9.121  -9.011  14.970  0.00  0.00    +0.077 C 
ATOM     15  C   UNL     1      -7.555 -10.923  14.328  0.00  0.00    +0.164 C 
ATOM     16  C   UNL     1      -8.956 -10.325  14.203  0.00  0.00    +0.054 C 
ATOM     17  C   UNL     1      -8.666  -9.192  16.417  0.00  0.00    +0.041 C 
ATOM     18  C   UNL     1      -7.229  -9.695  16.487  0.00  0.00    +0.111 C 
ATOM     20  C   UNL     1      -6.264 -12.031  16.131  0.00  0.00    +0.283 C 
ENDROOT
BRANCH  20  24
ATOM      4  O   UNL     1      -4.286 -11.814  17.482  0.00  0.00    -0.458 OA
ATOM     24  C   UNL     1      -5.632 -11.944  17.444  0.00  0.00    +0.189 A 
ATOM     29  C   UNL     1      -6.165 -11.971  18.703  0.00  0.00    +0.054 A 
ATOM     33  C   UNL     1      -5.067 -11.847  19.589  0.00  0.00    +0.042 A 
ATOM     35  C   UNL     1      -3.947 -11.755  18.797  0.00  0.00    +0.196 A 
ENDBRANCH  20  24
BRANCH  15  19
ATOM      2  O   UNL     1      -6.841  -9.177  12.863  0.00  0.00    -0.274 OA
ATOM      9  N   UNL     1      -5.311 -10.814  13.494  0.00  0.00    -0.302 N 
ATOM     19  C   UNL     1      -6.549 -10.193  13.487  0.00  0.00    +0.234 C 
ATOM     41  H   UNL     1      -5.165 -11.617  14.099  0.00  0.00    +0.150 HD
BRANCH   9  21
ATOM     21  C   UNL     1      -4.176 -10.323  12.746  0.00  0.00    +0.163 C 
BRANCH  21  26
ATOM      6  O   UNL     1      -1.803 -10.490  13.241  0.00  0.00    -0.274 OA
ATOM     11  N   UNL     1      -3.288 -10.415  14.992  0.00  0.00    -0.328 N 
ATOM     26  C   UNL     1      -2.960 -10.435  13.653  0.00  0.00    +0.231 C 
ATOM     43  H   UNL     1      -4.247 -10.344  15.318  0.00  0.00    +0.145 HD
ATOM     44  H   UNL     1      -2.569 -10.469  15.706  0.00  0.00    +0.145 HD
ENDBRANCH  21  26
BRANCH  21  22
ATOM     22  C   UNL     1      -3.951 -11.108  11.448  0.00  0.00    +0.069 C 
BRANCH  22  25
ATOM     10  N   UNL     1      -4.933  -8.670   8.914  0.00  0.00    -0.360 N 
ATOM     25  C   UNL     1      -4.375 -10.330  10.225  0.00  0.00    -0.020 A 
ATOM     28  C   UNL     1      -4.644 -10.882   8.962  0.00  0.00    +0.003 A 
ATOM     30  C   UNL     1      -4.551  -8.985  10.191  0.00  0.00    +0.087 A 
ATOM     31  C   UNL     1      -4.997  -9.807   8.142  0.00  0.00    +0.047 A 
ATOM     34  C   UNL     1      -4.630 -12.178   8.413  0.00  0.00    +0.010 A 
ATOM     36  C   UNL     1      -5.338  -9.968   6.794  0.00  0.00    +0.026 A 
ATOM     37  C   UNL     1      -4.970 -12.354   7.067  0.00  0.00    +0.001 A 
ATOM     38  C   UNL     1      -5.318 -11.264   6.272  0.00  0.00    +0.002 A 
ATOM     42  H   UNL     1      -5.137  -7.736   8.585  0.00  0.00    +0.165 HD
ENDBRANCH  22  25
ENDBRANCH  21  22
ENDBRANCH   9  21
ENDBRANCH  15  19
BRANCH  14   8
ATOM      5  O   UNL     1     -10.020  -6.409  15.585  0.00  0.00    -0.270 OA
ATOM      8  N   UNL     1     -10.489  -8.556  14.916  0.00  0.00    -0.308 N 
ATOM     23  C   UNL     1     -10.852  -7.248  15.237  0.00  0.00    +0.254 C 
ATOM     40  H   UNL     1     -11.201  -9.200  14.580  0.00  0.00    +0.149 HD
BRANCH  23  27
ATOM      1  S   UNL     1     -13.427  -7.820  15.968  0.00  0.00    +0.041 S 
ATOM     12  N   UNL     1     -14.280  -5.984  14.491  0.00  0.00    -0.146 NA
ATOM     13  N   UNL     1     -14.689  -6.925  15.327  0.00  0.00    -0.110 NA
ATOM     27  C   UNL     1     -12.280  -6.928  15.101  0.00  0.00    +0.117 A 
ATOM     32  C   UNL     1     -12.900  -5.986  14.361  0.00  0.00    +0.081 A 
ATOM     39  C   UNL     1     -12.284  -4.992  13.460  0.00  0.00    +0.069 C 
ENDBRANCH  23  27
ENDBRANCH  14   8
TORSDOF 8
ENDMDL
MODEL 5
REMARK VINA RESULT:      -6.4     24.649     28.554
REMARK  Name = 7134303
REMARK  9 active torsions:
REMARK  status: ('A' for Active; 'I' for Inactive)
REMARK    1  A    between atoms: N_8  and  C_14
REMARK    2  A    between atoms: N_9  and  C_21
REMARK    3  A    between atoms: C_15  and  C_19
REMARK    4  A    between atoms: C_20  and  C_24
REMARK    5  A    between atoms: C_21  and  C_22
REMARK    6  A    between atoms: C_21  and  C_26
REMARK    7  A    between atoms: C_22  and  C_25
REMARK    8  A    between atoms: C_23  and  C_27
REMARK    9  A    between atoms: C_32  and  C_39
REMARK                            x       y       z     vdW  Elec       q    Type
REMARK                         _______ _______ _______ _____ _____    ______ ____
ROOT
ATOM      3  O   UNL     1      16.393  10.791   4.680  0.00  0.00    -0.267 OA
ATOM      7  N   UNL     1      15.489   8.686   4.305  0.00  0.00    -0.283 N 
ATOM     14  C   UNL     1      13.441   7.055   2.996  0.00  0.00    +0.077 C 
ATOM     15  C   UNL     1      14.139   9.234   4.130  0.00  0.00    +0.164 C 
ATOM     16  C   UNL     1      13.348   8.583   2.996  0.00  0.00    +0.054 C 
ATOM     17  C   UNL     1      14.905   6.623   3.041  0.00  0.00    +0.041 C 
ATOM     18  C   UNL     1      15.622   7.219   4.246  0.00  0.00    +0.111 C 
ATOM     20  C   UNL     1      16.541   9.567   4.641  0.00  0.00    +0.283 C 
ENDROOT
BRANCH  20  24
ATOM      4  O   UNL     1      18.190   8.888   6.255  0.00  0.00    -0.458 OA
ATOM     24  C   UNL     1      17.841   8.981   4.951  0.00  0.00    +0.189 A 
ATOM     29  C   UNL     1      18.822   8.483   4.137  0.00  0.00    +0.054 A 
ATOM     33  C   UNL     1      19.856   8.049   5.002  0.00  0.00    +0.042 A 
ATOM     35  C   UNL     1      19.423   8.317   6.280  0.00  0.00    +0.196 A 
ENDBRANCH  20  24
BRANCH  15  19
ATOM      2  O   UNL     1      14.044   8.716   6.459  0.00  0.00    -0.274 OA
ATOM      9  N   UNL     1      12.104   9.419   5.382  0.00  0.00    -0.302 N 
ATOM     19  C   UNL     1      13.449   9.096   5.455  0.00  0.00    +0.234 C 
ATOM     41  H   UNL     1      11.731   9.784   4.510  0.00  0.00    +0.150 HD
BRANCH   9  21
ATOM     21  C   UNL     1      11.211   9.347   6.516  0.00  0.00    +0.163 C 
BRANCH  21  26
ATOM      6  O   UNL     1      10.654  11.711   6.443  0.00  0.00    -0.274 OA
ATOM     11  N   UNL     1      11.472  10.835   8.403  0.00  0.00    -0.328 N 
ATOM     26  C   UNL     1      11.090  10.755   7.081  0.00  0.00    +0.231 C 
ATOM     43  H   UNL     1      11.808  10.030   8.923  0.00  0.00    +0.145 HD
ATOM     44  H   UNL     1      11.428  11.715   8.905  0.00  0.00    +0.145 HD
ENDBRANCH  21  26
BRANCH  21  22
ATOM     22  C   UNL     1       9.829   8.802   6.134  0.00  0.00    +0.069 C 
BRANCH  22  25
ATOM     10  N   UNL     1       9.873   5.309   5.073  0.00  0.00    -0.360 N 
ATOM     25  C   UNL     1       9.826   7.300   5.979  0.00  0.00    -0.020 A 
ATOM     28  C   UNL     1       9.738   6.373   7.030  0.00  0.00    +0.003 A 
ATOM     30  C   UNL     1       9.908   6.648   4.792  0.00  0.00    +0.087 A 
ATOM     31  C   UNL     1       9.770   5.111   6.431  0.00  0.00    +0.047 A 
ATOM     34  C   UNL     1       9.634   6.457   8.432  0.00  0.00    +0.010 A 
ATOM     36  C   UNL     1       9.703   3.924   7.170  0.00  0.00    +0.026 A 
ATOM     37  C   UNL     1       9.565   5.278   9.183  0.00  0.00    +0.001 A 
ATOM     38  C   UNL     1       9.599   4.033   8.560  0.00  0.00    +0.002 A 
ATOM     42  H   UNL     1       9.918   4.571   4.385  0.00  0.00    +0.165 HD
ENDBRANCH  22  25
ENDBRANCH  21  22
ENDBRANCH   9  21
ENDBRANCH  15  19
BRANCH  14   8
ATOM      5  O   UNL     1      11.895   4.697   2.952  0.00  0.00    -0.270 OA
ATOM      8  N   UNL     1      12.777   6.502   1.840  0.00  0.00    -0.308 N 
ATOM     23  C   UNL     1      12.029   5.327   1.902  0.00  0.00    +0.254 C 
ATOM     40  H   UNL     1      12.817   7.019   0.966  0.00  0.00    +0.149 HD
BRANCH  23  27
ATOM      1  S   UNL     1       9.917   5.604   0.184  0.00  0.00    +0.041 S 
ATOM     12  N   UNL     1      10.902   3.881  -1.345  0.00  0.00    -0.146 NA
ATOM     13  N   UNL     1       9.859   4.685  -1.215  0.00  0.00    -0.110 NA
ATOM     27  C   UNL     1      11.388   4.910   0.648  0.00  0.00    +0.117 A 
ATOM     32  C   UNL     1      11.777   4.009  -0.278  0.00  0.00    +0.081 A 
ATOM     39  C   UNL     1      12.997   3.175  -0.274  0.00  0.00    +0.069 C 
ENDBRANCH  23  27
ENDBRANCH  14   8
TORSDOF 8
ENDMDL
MODEL 6
REMARK VINA RESULT:      -6.4      3.149      8.366
REMARK  Name = 7134303
REMARK  9 active torsions:
REMARK  status: ('A' for Active; 'I' for Inactive)
REMARK    1  A    between atoms: N_8  and  C_14
REMARK    2  A    between atoms: N_9  and  C_21
REMARK    3  A    between atoms: C_15  and  C_19
REMARK    4  A    between atoms: C_20  and  C_24
REMARK    5  A    between atoms: C_21  and  C_22
REMARK    6  A    between atoms: C_21  and  C_26
REMARK    7  A    between atoms: C_22  and  C_25
REMARK    8  A    between atoms: C_23  and  C_27
REMARK    9  A    between atoms: C_32  and  C_39
REMARK                            x       y       z     vdW  Elec       q    Type
REMARK                         _______ _______ _______ _____ _____    ______ ____
ROOT
ATOM      3  O   UNL     1      -4.185 -12.410  13.541  0.00  0.00    -0.267 OA
ATOM      7  N   UNL     1      -5.432 -10.866  14.745  0.00  0.00    -0.283 N 
ATOM     14  C   UNL     1      -7.994 -10.145  15.963  0.00  0.00    +0.077 C 
ATOM     15  C   UNL     1      -6.679 -11.277  14.088  0.00  0.00    +0.164 C 
ATOM     16  C   UNL     1      -7.879 -11.355  15.033  0.00  0.00    +0.054 C 
ATOM     17  C   UNL     1      -6.668  -9.916  16.685  0.00  0.00    +0.041 C 
ATOM     18  C   UNL     1      -5.521  -9.744  15.696  0.00  0.00    +0.111 C 
ATOM     20  C   UNL     1      -4.221 -11.472  14.339  0.00  0.00    +0.283 C 
ENDROOT
BRANCH  20  24
ATOM      4  O   UNL     1      -2.219 -10.158  14.109  0.00  0.00    -0.458 OA
ATOM     24  C   UNL     1      -2.981 -10.946  14.903  0.00  0.00    +0.189 A 
ATOM     29  C   UNL     1      -2.414 -11.105  16.137  0.00  0.00    +0.054 A 
ATOM     33  C   UNL     1      -1.211 -10.360  16.107  0.00  0.00    +0.042 A 
ATOM     35  C   UNL     1      -1.139  -9.803  14.851  0.00  0.00    +0.196 A 
ENDBRANCH  20  24
BRANCH  15  19
ATOM      2  O   UNL     1      -7.909  -9.606  12.905  0.00  0.00    -0.274 OA
ATOM      9  N   UNL     1      -5.881 -10.343  12.030  0.00  0.00    -0.302 N 
ATOM     19  C   UNL     1      -6.905 -10.310  12.963  0.00  0.00    +0.234 C 
ATOM     41  H   UNL     1      -5.066 -10.921  12.214  0.00  0.00    +0.150 HD
BRANCH   9  21
ATOM     21  C   UNL     1      -5.869  -9.524  10.840  0.00  0.00    +0.163 C 
BRANCH  21  26
ATOM      6  O   UNL     1      -4.053  -8.698   9.454  0.00  0.00    -0.274 OA
ATOM     11  N   UNL     1      -3.537  -9.964  11.301  0.00  0.00    -0.328 N 
ATOM     26  C   UNL     1      -4.414  -9.351  10.430  0.00  0.00    +0.231 C 
ATOM     43  H   UNL     1      -3.851 -10.480  12.117  0.00  0.00    +0.145 HD
ATOM     44  H   UNL     1      -2.535  -9.914  11.151  0.00  0.00    +0.145 HD
ENDBRANCH  21  26
BRANCH  21  22
ATOM     22  C   UNL     1      -6.679 -10.147   9.697  0.00  0.00    +0.069 C 
BRANCH  22  25
ATOM     10  N   UNL     1      -8.934  -7.527   8.523  0.00  0.00    -0.360 N 
ATOM     25  C   UNL     1      -7.501  -9.124   8.950  0.00  0.00    -0.020 A 
ATOM     28  C   UNL     1      -7.448  -8.889   7.567  0.00  0.00    +0.003 A 
ATOM     30  C   UNL     1      -8.405  -8.294   9.527  0.00  0.00    +0.087 A 
ATOM     31  C   UNL     1      -8.368  -7.869   7.316  0.00  0.00    +0.047 A 
ATOM     34  C   UNL     1      -6.721  -9.428   6.487  0.00  0.00    +0.010 A 
ATOM     36  C   UNL     1      -8.597  -7.358   6.033  0.00  0.00    +0.026 A 
ATOM     37  C   UNL     1      -6.941  -8.928   5.199  0.00  0.00    +0.001 A 
ATOM     38  C   UNL     1      -7.865  -7.909   4.977  0.00  0.00    +0.002 A 
ATOM     42  H   UNL     1      -9.637  -6.813   8.649  0.00  0.00    +0.165 HD
ENDBRANCH  22  25
ENDBRANCH  21  22
ENDBRANCH   9  21
ENDBRANCH  15  19
BRANCH  14   8
ATOM      5  O   UNL     1      -9.490  -8.086  17.177  0.00  0.00    -0.270 OA
ATOM      8  N   UNL     1      -9.069 -10.327  16.908  0.00  0.00    -0.308 N 
ATOM     23  C   UNL     1      -9.761  -9.253  17.465  0.00  0.00    +0.254 C 
ATOM     40  H   UNL     1      -9.361 -11.275  17.132  0.00  0.00    +0.149 HD
BRANCH  23  27
ATOM      1  S   UNL     1     -10.494 -10.316  19.878  0.00  0.00    +0.041 S 
ATOM     12  N   UNL     1     -12.909  -9.903  19.354  0.00  0.00    -0.146 NA
ATOM     13  N   UNL     1     -12.115 -10.394  20.292  0.00  0.00    -0.110 NA
ATOM     27  C   UNL     1     -10.851  -9.601  18.387  0.00  0.00    +0.117 A 
ATOM     32  C   UNL     1     -12.186  -9.449  18.263  0.00  0.00    +0.081 A 
ATOM     39  C   UNL     1     -12.930  -8.869  17.126  0.00  0.00    +0.069 C 
ENDBRANCH  23  27
ENDBRANCH  14   8
TORSDOF 8
ENDMDL
MODEL 7
REMARK VINA RESULT:      -6.4     25.569     28.867
REMARK  Name = 7134303
REMARK  9 active torsions:
REMARK  status: ('A' for Active; 'I' for Inactive)
REMARK    1  A    between atoms: N_8  and  C_14
REMARK    2  A    between atoms: N_9  and  C_21
REMARK    3  A    between atoms: C_15  and  C_19
REMARK    4  A    between atoms: C_20  and  C_24
REMARK    5  A    between atoms: C_21  and  C_22
REMARK    6  A    between atoms: C_21  and  C_26
REMARK    7  A    between atoms: C_22  and  C_25
REMARK    8  A    between atoms: C_23  and  C_27
REMARK    9  A    between atoms: C_32  and  C_39
REMARK                            x       y       z     vdW  Elec       q    Type
REMARK                         _______ _______ _______ _____ _____    ______ ____
ROOT
ATOM      3  O   UNL     1      12.830   6.601   6.756  0.00  0.00    -0.267 OA
ATOM      7  N   UNL     1      11.675   7.122   4.810  0.00  0.00    -0.283 N 
ATOM     14  C   UNL     1      11.187   6.559   1.981  0.00  0.00    +0.077 C 
ATOM     15  C   UNL     1      12.791   6.685   3.963  0.00  0.00    +0.164 C 
ATOM     16  C   UNL     1      12.357   5.908   2.721  0.00  0.00    +0.054 C 
ATOM     17  C   UNL     1      10.043   6.833   2.954  0.00  0.00    +0.041 C 
ATOM     18  C   UNL     1      10.504   7.695   4.123  0.00  0.00    +0.111 C 
ATOM     20  C   UNL     1      11.836   7.089   6.214  0.00  0.00    +0.283 C 
ENDROOT
BRANCH  20  24
ATOM      4  O   UNL     1      10.851   8.981   7.327  0.00  0.00    -0.458 OA
ATOM     24  C   UNL     1      10.770   7.663   7.030  0.00  0.00    +0.189 A 
ATOM     29  C   UNL     1       9.653   7.097   7.579  0.00  0.00    +0.054 A 
ATOM     33  C   UNL     1       8.990   8.142   8.267  0.00  0.00    +0.042 A 
ATOM     35  C   UNL     1       9.759   9.268   8.083  0.00  0.00    +0.196 A 
ENDBRANCH  20  24
BRANCH  15  19
ATOM      2  O   UNL     1      13.641   8.340   2.465  0.00  0.00    -0.274 OA
ATOM      9  N   UNL     1      14.190   8.478   4.723  0.00  0.00    -0.302 N 
ATOM     19  C   UNL     1      13.571   7.920   3.616  0.00  0.00    +0.234 C 
ATOM     41  H   UNL     1      14.009   8.081   5.641  0.00  0.00    +0.150 HD
BRANCH   9  21
ATOM     21  C   UNL     1      15.018   9.659   4.654  0.00  0.00    +0.163 C 
BRANCH  21  26
ATOM      6  O   UNL     1      14.220  11.954   4.608  0.00  0.00    -0.274 OA
ATOM     11  N   UNL     1      13.274  10.492   6.107  0.00  0.00    -0.328 N 
ATOM     26  C   UNL     1      14.162  10.833   5.108  0.00  0.00    +0.231 C 
ATOM     43  H   UNL     1      13.221   9.555   6.493  0.00  0.00    +0.145 HD
ATOM     44  H   UNL     1      12.634  11.179   6.491  0.00  0.00    +0.145 HD
ENDBRANCH  21  26
BRANCH  21  22
ATOM     22  C   UNL     1      16.273   9.542   5.527  0.00  0.00    +0.069 C 
BRANCH  22  25
ATOM     10  N   UNL     1      18.572   7.838   3.260  0.00  0.00    -0.360 N 
ATOM     25  C   UNL     1      17.403   8.835   4.817  0.00  0.00    -0.020 A 
ATOM     28  C   UNL     1      18.638   8.494   5.391  0.00  0.00    +0.003 A 
ATOM     30  C   UNL     1      17.367   8.434   3.522  0.00  0.00    +0.087 A 
ATOM     31  C   UNL     1      19.367   7.861   4.382  0.00  0.00    +0.047 A 
ATOM     34  C   UNL     1      19.229   8.650   6.660  0.00  0.00    +0.010 A 
ATOM     36  C   UNL     1      20.665   7.374   4.581  0.00  0.00    +0.026 A 
ATOM     37  C   UNL     1      20.525   8.167   6.874  0.00  0.00    +0.001 A 
ATOM     38  C   UNL     1      21.230   7.539   5.849  0.00  0.00    +0.002 A 
ATOM     42  H   UNL     1      18.839   7.440   2.371  0.00  0.00    +0.165 HD
ENDBRANCH  22  25
ENDBRANCH  21  22
ENDBRANCH   9  21
ENDBRANCH  15  19
BRANCH  14   8
ATOM      5  O   UNL     1      12.216   6.590  -0.645  0.00  0.00    -0.270 OA
ATOM      8  N   UNL     1      10.743   5.724   0.890  0.00  0.00    -0.308 N 
ATOM     23  C   UNL     1      11.307   5.801  -0.383  0.00  0.00    +0.254 C 
ATOM     40  H   UNL     1      10.033   5.021   1.076  0.00  0.00    +0.149 HD
BRANCH  23  27
ATOM      1  S   UNL     1       9.354   5.248  -2.219  0.00  0.00    +0.041 S 
ATOM     12  N   UNL     1      10.445   3.057  -2.756  0.00  0.00    -0.146 NA
ATOM     13  N   UNL     1       9.405   3.810  -3.077  0.00  0.00    -0.110 NA
ATOM     27  C   UNL     1      10.771   4.863  -1.379  0.00  0.00    +0.117 A 
ATOM     32  C   UNL     1      11.226   3.659  -1.783  0.00  0.00    +0.081 A 
ATOM     39  C   UNL     1      12.430   2.943  -1.314  0.00  0.00    +0.069 C 
ENDBRANCH  23  27
ENDBRANCH  14   8
TORSDOF 8
ENDMDL
MODEL 8
REMARK VINA RESULT:      -6.3     22.705     26.114
REMARK  Name = 7134303
REMARK  9 active torsions:
REMARK  status: ('A' for Active; 'I' for Inactive)
REMARK    1  A    between atoms: N_8  and  C_14
REMARK    2  A    between atoms: N_9  and  C_21
REMARK    3  A    between atoms: C_15  and  C_19
REMARK    4  A    between atoms: C_20  and  C_24
REMARK    5  A    between atoms: C_21  and  C_22
REMARK    6  A    between atoms: C_21  and  C_26
REMARK    7  A    between atoms: C_22  and  C_25
REMARK    8  A    between atoms: C_23  and  C_27
REMARK    9  A    between atoms: C_32  and  C_39
REMARK                            x       y       z     vdW  Elec       q    Type
REMARK                         _______ _______ _______ _____ _____    ______ ____
ROOT
ATOM      3  O   UNL     1       6.331  -3.997  36.675  0.00  0.00    -0.267 OA
ATOM      7  N   UNL     1       8.402  -4.962  36.264  0.00  0.00    -0.283 N 
ATOM     14  C   UNL     1      10.290  -6.069  34.321  0.00  0.00    +0.077 C 
ATOM     15  C   UNL     1       7.888  -5.712  35.111  0.00  0.00    +0.164 C 
ATOM     16  C   UNL     1       8.847  -5.751  33.922  0.00  0.00    +0.054 C 
ATOM     17  C   UNL     1      10.742  -5.125  35.432  0.00  0.00    +0.041 C 
ATOM     18  C   UNL     1       9.809  -5.197  36.635  0.00  0.00    +0.111 C 
ATOM     20  C   UNL     1       7.503  -4.173  37.016  0.00  0.00    +0.283 C 
ENDROOT
BRANCH  20  24
ATOM      4  O   UNL     1       8.653  -2.372  38.119  0.00  0.00    -0.458 OA
ATOM     24  C   UNL     1       8.006  -3.554  38.239  0.00  0.00    +0.189 A 
ATOM     29  C   UNL     1       7.947  -3.960  39.544  0.00  0.00    +0.054 A 
ATOM     33  C   UNL     1       8.606  -2.953  40.289  0.00  0.00    +0.042 A 
ATOM     35  C   UNL     1       9.018  -2.009  39.377  0.00  0.00    +0.196 A 
ENDBRANCH  20  24
BRANCH  15  19
ATOM      2  O   UNL     1       8.371  -7.998  35.607  0.00  0.00    -0.274 OA
ATOM      9  N   UNL     1       6.236  -7.178  36.042  0.00  0.00    -0.302 N 
ATOM     19  C   UNL     1       7.550  -7.085  35.614  0.00  0.00    +0.234 C 
ATOM     41  H   UNL     1       5.663  -6.338  36.062  0.00  0.00    +0.150 HD
BRANCH   9  21
ATOM     21  C   UNL     1       5.655  -8.398  36.552  0.00  0.00    +0.163 C 
BRANCH  21  26
ATOM      6  O   UNL     1       4.517  -8.830  38.655  0.00  0.00    -0.274 OA
ATOM     11  N   UNL     1       4.546  -6.681  37.842  0.00  0.00    -0.328 N 
ATOM     26  C   UNL     1       4.840  -8.027  37.782  0.00  0.00    +0.231 C 
ATOM     43  H   UNL     1       4.841  -6.026  37.124  0.00  0.00    +0.145 HD
ATOM     44  H   UNL     1       4.018  -6.298  38.619  0.00  0.00    +0.145 HD
ENDBRANCH  21  26
BRANCH  21  22
ATOM     22  C   UNL     1       4.769  -9.098  35.513  0.00  0.00    +0.069 C 
BRANCH  22  25
ATOM     10  N   UNL     1       6.705 -11.462  33.514  0.00  0.00    -0.360 N 
ATOM     25  C   UNL     1       5.577  -9.862  34.490  0.00  0.00    -0.020 A 
ATOM     28  C   UNL     1       5.981  -9.369  33.239  0.00  0.00    +0.003 A 
ATOM     30  C   UNL     1       6.019 -11.134  34.653  0.00  0.00    +0.087 A 
ATOM     31  C   UNL     1       6.698 -10.404  32.634  0.00  0.00    +0.047 A 
ATOM     34  C   UNL     1       5.821  -8.156  32.543  0.00  0.00    +0.010 A 
ATOM     36  C   UNL     1       7.265 -10.283  31.360  0.00  0.00    +0.026 A 
ATOM     37  C   UNL     1       6.384  -8.021  31.269  0.00  0.00    +0.001 A 
ATOM     38  C   UNL     1       7.094  -9.069  30.688  0.00  0.00    +0.002 A 
ATOM     42  H   UNL     1       7.152 -12.352  33.343  0.00  0.00    +0.165 HD
ENDBRANCH  22  25
ENDBRANCH  21  22
ENDBRANCH   9  21
ENDBRANCH  15  19
BRANCH  14   8
ATOM      5  O   UNL     1      12.693  -7.501  33.966  0.00  0.00    -0.270 OA
ATOM      8  N   UNL     1      11.168  -5.976  33.179  0.00  0.00    -0.308 N 
ATOM     23  C   UNL     1      12.342  -6.721  33.080  0.00  0.00    +0.254 C 
ATOM     40  H   UNL     1      10.888  -5.385  32.400  0.00  0.00    +0.149 HD
BRANCH  23  27
ATOM      1  S   UNL     1      13.109  -7.755  30.665  0.00  0.00    +0.041 S 
ATOM     12  N   UNL     1      14.461  -5.700  30.187  0.00  0.00    -0.146 NA
ATOM     13  N   UNL     1      14.123  -6.871  29.668  0.00  0.00    -0.110 NA
ATOM     27  C   UNL     1      13.113  -6.540  31.843  0.00  0.00    +0.117 A 
ATOM     32  C   UNL     1      13.883  -5.511  31.432  0.00  0.00    +0.081 A 
ATOM     39  C   UNL     1      14.163  -4.249  32.145  0.00  0.00    +0.069 C 
ENDBRANCH  23  27
ENDBRANCH  14   8
TORSDOF 8
ENDMDL
MODEL 9
REMARK VINA RESULT:      -6.3     24.873     27.636
REMARK  Name = 7134303
REMARK  9 active torsions:
REMARK  status: ('A' for Active; 'I' for Inactive)
REMARK    1  A    between atoms: N_8  and  C_14
REMARK    2  A    between atoms: N_9  and  C_21
REMARK    3  A    between atoms: C_15  and  C_19
REMARK    4  A    between atoms: C_20  and  C_24
REMARK    5  A    between atoms: C_21  and  C_22
REMARK    6  A    between atoms: C_21  and  C_26
REMARK    7  A    between atoms: C_22  and  C_25
REMARK    8  A    between atoms: C_23  and  C_27
REMARK    9  A    between atoms: C_32  and  C_39
REMARK                            x       y       z     vdW  Elec       q    Type
REMARK                         _______ _______ _______ _____ _____    ______ ____
ROOT
ATOM      3  O   UNL     1      12.145   9.455   4.572  0.00  0.00    -0.267 OA
ATOM      7  N   UNL     1      12.641   7.517   3.395  0.00  0.00    -0.283 N 
ATOM     14  C   UNL     1      12.023   5.741   1.153  0.00  0.00    +0.077 C 
ATOM     15  C   UNL     1      11.243   7.341   2.984  0.00  0.00    +0.164 C 
ATOM     16  C   UNL     1      11.078   6.881   1.536  0.00  0.00    +0.054 C 
ATOM     17  C   UNL     1      13.460   6.114   1.510  0.00  0.00    +0.041 C 
ATOM     18  C   UNL     1      13.591   6.467   2.987  0.00  0.00    +0.111 C 
ATOM     20  C   UNL     1      12.966   8.593   4.251  0.00  0.00    +0.283 C 
ENDROOT
BRANCH  20  24
ATOM      4  O   UNL     1      14.597   8.025   5.925  0.00  0.00    -0.458 OA
ATOM     24  C   UNL     1      14.332   8.663   4.761  0.00  0.00    +0.189 A 
ATOM     29  C   UNL     1      15.448   9.279   4.266  0.00  0.00    +0.054 A 
ATOM     33  C   UNL     1      16.483   9.002   5.190  0.00  0.00    +0.042 A 
ATOM     35  C   UNL     1      15.915   8.236   6.182  0.00  0.00    +0.196 A 
ENDBRANCH  20  24
BRANCH  15  19
ATOM      2  O   UNL     1      10.100   5.333   3.590  0.00  0.00    -0.274 OA
ATOM      9  N   UNL     1      10.726   6.823   5.266  0.00  0.00    -0.302 N 
ATOM     19  C   UNL     1      10.631   6.377   3.958  0.00  0.00    +0.234 C 
ATOM     41  H   UNL     1      11.246   7.674   5.461  0.00  0.00    +0.150 HD
BRANCH   9  21
ATOM     21  C   UNL     1      10.195   6.089   6.392  0.00  0.00    +0.163 C 
BRANCH  21  26
ATOM      6  O   UNL     1      11.130   5.648   8.591  0.00  0.00    -0.274 OA
ATOM     11  N   UNL     1      12.555   6.240   6.890  0.00  0.00    -0.328 N 
ATOM     26  C   UNL     1      11.310   5.979   7.421  0.00  0.00    +0.231 C 
ATOM     43  H   UNL     1      12.691   6.490   5.915  0.00  0.00    +0.145 HD
ATOM     44  H   UNL     1      13.388   6.188   7.466  0.00  0.00    +0.145 HD
ENDBRANCH  21  26
BRANCH  21  22
ATOM     22  C   UNL     1       8.966   6.772   7.004  0.00  0.00    +0.069 C 
BRANCH  22  25
ATOM     10  N   UNL     1       9.289  10.409   7.019  0.00  0.00    -0.360 N 
ATOM     25  C   UNL     1       8.955   8.263   6.759  0.00  0.00    -0.020 A 
ATOM     28  C   UNL     1       8.373   8.901   5.653  0.00  0.00    +0.003 A 
ATOM     30  C   UNL     1       9.511   9.183   7.586  0.00  0.00    +0.087 A 
ATOM     31  C   UNL     1       8.598  10.268   5.837  0.00  0.00    +0.047 A 
ATOM     34  C   UNL     1       7.675   8.477   4.505  0.00  0.00    +0.010 A 
ATOM     36  C   UNL     1       8.157  11.234   4.926  0.00  0.00    +0.026 A 
ATOM     37  C   UNL     1       7.228   9.433   3.586  0.00  0.00    +0.001 A 
ATOM     38  C   UNL     1       7.466  10.789   3.795  0.00  0.00    +0.002 A 
ATOM     42  H   UNL     1       9.591  11.291   7.409  0.00  0.00    +0.165 HD
ENDBRANCH  22  25
ENDBRANCH  21  22
ENDBRANCH   9  21
ENDBRANCH  15  19
BRANCH  14   8
ATOM      5  O   UNL     1      10.125   4.003  -0.001  0.00  0.00    -0.270 OA
ATOM      8  N   UNL     1      11.907   5.430  -0.252  0.00  0.00    -0.308 N 
ATOM     23  C   UNL     1      10.937   4.557  -0.743  0.00  0.00    +0.254 C 
ATOM     40  H   UNL     1      12.522   5.907  -0.905  0.00  0.00    +0.149 HD
BRANCH  23  27
ATOM      1  S   UNL     1      10.330   5.593  -3.203  0.00  0.00    +0.041 S 
ATOM     12  N   UNL     1      11.164   3.508  -4.314  0.00  0.00    -0.146 NA
ATOM     13  N   UNL     1      10.632   4.691  -4.581  0.00  0.00    -0.110 NA
ATOM     27  C   UNL     1      10.926   4.368  -2.200  0.00  0.00    +0.117 A 
ATOM     32  C   UNL     1      11.332   3.323  -2.952  0.00  0.00    +0.081 A 
ATOM     39  C   UNL     1      11.916   2.048  -2.488  0.00  0.00    +0.069 C 
ENDBRANCH  23  27
ENDBRANCH  14   8
TORSDOF 8
ENDMDL
MODEL 10
REMARK VINA RESULT:      -6.3      9.098     12.733
REMARK  Name = 7134303
REMARK  9 active torsions:
REMARK  status: ('A' for Active; 'I' for Inactive)
REMARK    1  A    between atoms: N_8  and  C_14
REMARK    2  A    between atoms: N_9  and  C_21
REMARK    3  A    between atoms: C_15  and  C_19
REMARK    4  A    between atoms: C_20  and  C_24
REMARK    5  A    between atoms: C_21  and  C_22
REMARK    6  A    between atoms: C_21  and  C_26
REMARK    7  A    between atoms: C_22  and  C_25
REMARK    8  A    between atoms: C_23  and  C_27
REMARK    9  A    between atoms: C_32  and  C_39
REMARK                            x       y       z     vdW  Elec       q    Type
REMARK                         _______ _______ _______ _____ _____    ______ ____
ROOT
ATOM      3  O   UNL     1     -12.005  -2.926  12.647  0.00  0.00    -0.267 OA
ATOM      7  N   UNL     1     -12.090  -4.617  11.059  0.00  0.00    -0.283 N 
ATOM     14  C   UNL     1     -11.124  -5.689   8.513  0.00  0.00    +0.077 C 
ATOM     15  C   UNL     1     -11.754  -3.690   9.971  0.00  0.00    +0.164 C 
ATOM     16  C   UNL     1     -10.774  -4.265   8.949  0.00  0.00    +0.054 C 
ATOM     17  C   UNL     1     -11.309  -6.579   9.741  0.00  0.00    +0.041 C 
ATOM     18  C   UNL     1     -12.369  -6.013  10.679  0.00  0.00    +0.111 C 
ATOM     20  C   UNL     1     -12.249  -4.101  12.365  0.00  0.00    +0.283 C 
ENDROOT
BRANCH  20  24
ATOM      4  O   UNL     1     -14.052  -5.265  13.452  0.00  0.00    -0.458 OA
ATOM     24  C   UNL     1     -12.723  -5.015  13.400  0.00  0.00    +0.189 A 
ATOM     29  C   UNL     1     -12.050  -5.700  14.374  0.00  0.00    +0.054 A 
ATOM     33  C   UNL     1     -13.034  -6.430  15.082  0.00  0.00    +0.042 A 
ATOM     35  C   UNL     1     -14.236  -6.131  14.482  0.00  0.00    +0.196 A 
ENDBRANCH  20  24
BRANCH  15  19
ATOM      2  O   UNL     1     -13.114  -2.853   8.195  0.00  0.00    -0.274 OA
ATOM      9  N   UNL     1     -14.125  -3.431  10.211  0.00  0.00    -0.302 N 
ATOM     19  C   UNL     1     -13.055  -3.283   9.344  0.00  0.00    +0.234 C 
ATOM     41  H   UNL     1     -13.968  -3.858  11.120  0.00  0.00    +0.150 HD
BRANCH   9  21
ATOM     21  C   UNL     1     -15.483  -3.088   9.857  0.00  0.00    +0.163 C 
BRANCH  21  26
ATOM      6  O   UNL     1     -17.160  -4.757   9.303  0.00  0.00    -0.274 OA
ATOM     11  N   UNL     1     -16.049  -4.938  11.306  0.00  0.00    -0.328 N 
ATOM     26  C   UNL     1     -16.336  -4.323  10.105  0.00  0.00    +0.231 C 
ATOM     43  H   UNL     1     -15.348  -4.581  11.947  0.00  0.00    +0.145 HD
ATOM     44  H   UNL     1     -16.537  -5.781  11.588  0.00  0.00    +0.145 HD
ENDBRANCH  21  26
BRANCH  21  22
ATOM     22  C   UNL     1     -16.013  -1.899  10.667  0.00  0.00    +0.069 C 
BRANCH  22  25
ATOM     10  N   UNL     1     -15.903   0.772   8.181  0.00  0.00    -0.360 N 
ATOM     25  C   UNL     1     -16.080  -0.630   9.850  0.00  0.00    -0.020 A 
ATOM     28  C   UNL     1     -16.554   0.609  10.309  0.00  0.00    +0.003 A 
ATOM     30  C   UNL     1     -15.686  -0.526   8.556  0.00  0.00    +0.087 A 
ATOM     31  C   UNL     1     -16.433   1.488   9.230  0.00  0.00    +0.047 A 
ATOM     34  C   UNL     1     -17.076   1.094  11.523  0.00  0.00    +0.010 A 
ATOM     36  C   UNL     1     -16.810   2.834   9.307  0.00  0.00    +0.026 A 
ATOM     37  C   UNL     1     -17.457   2.437  11.616  0.00  0.00    +0.001 A 
ATOM     38  C   UNL     1     -17.325   3.292  10.523  0.00  0.00    +0.002 A 
ATOM     42  H   UNL     1     -15.704   1.151   7.265  0.00  0.00    +0.165 HD
ENDBRANCH  22  25
ENDBRANCH  21  22
ENDBRANCH   9  21
ENDBRANCH  15  19
BRANCH  14   8
ATOM      5  O   UNL     1     -11.567  -7.326   6.259  0.00  0.00    -0.270 OA
ATOM      8  N   UNL     1     -10.103  -6.223   7.643  0.00  0.00    -0.308 N 
ATOM     23  C   UNL     1     -10.407  -7.027   6.545  0.00  0.00    +0.254 C 
ATOM     40  H   UNL     1      -9.137  -5.956   7.810  0.00  0.00    +0.149 HD
BRANCH  23  27
ATOM      1  S   UNL     1      -7.917  -8.161   6.491  0.00  0.00    +0.041 S 
ATOM     12  N   UNL     1      -7.839  -7.931   3.997  0.00  0.00    -0.146 NA
ATOM     13  N   UNL     1      -7.130  -8.365   5.027  0.00  0.00    -0.110 NA
ATOM     27  C   UNL     1      -9.261  -7.465   5.736  0.00  0.00    +0.117 A 
ATOM     32  C   UNL     1      -9.060  -7.416   4.403  0.00  0.00    +0.081 A 
ATOM     39  C   UNL     1      -9.972  -6.889   3.368  0.00  0.00    +0.069 C 
ENDBRANCH  23  27
ENDBRANCH  14   8
TORSDOF 8
ENDMDL
