REMARK  Name = 38028541
REMARK  11 active torsions:
REMARK  status: ('A' for Active; 'I' for Inactive)
REMARK    1  A    between atoms: N_4  and  C_14
REMARK    2  A    between atoms: N_5  and  C_21
REMARK    3  A    between atoms: C_7  and  C_11
REMARK    4  A    between atoms: C_8  and  C_14
REMARK    5  A    between atoms: C_10  and  C_15
REMARK    6  A    between atoms: C_11  and  C_16
REMARK    7  A    between atoms: C_11  and  C_17
REMARK    8  A    between atoms: C_12  and  C_18
REMARK    9  A    between atoms: C_15  and  C_19
REMARK   10  A    between atoms: C_20  and  C_22
REMARK   11  A    between atoms: C_21  and  C_23
REMARK                            x       y       z     vdW  Elec       q    Type
REMARK                         _______ _______ _______ _____ _____    ______ ____
ROOT
ATOM      7  C   UNL     1      -2.469   2.255   0.113  0.00  0.00    +0.000 C 
ATOM      8  C   UNL     1      -2.310   2.135  -1.423  0.00  0.00    +0.032 C 
ATOM      9  C   UNL     1      -1.427   3.228   0.686  0.00  0.00    +0.012 C 
ATOM     10  C   UNL     1       0.015   2.785   0.378  0.00  0.00    +0.023 C 
ATOM     12  C   UNL     1       0.185   2.391  -1.076  0.00  0.00    -0.073 C 
ATOM     13  C   UNL     1      -0.866   2.116  -1.868  0.00  0.00    -0.022 C 
ATOM     18  C   UNL     1       1.590   2.362  -1.610  0.00  0.00    +0.039 C 
ENDROOT
BRANCH   7  11
ATOM     11  C   UNL     1      -3.877   2.712   0.505  0.00  0.00    -0.013 C 
ATOM     16  C   UNL     1      -4.000   4.227   0.375  0.00  0.00    +0.007 C 
ATOM     17  C   UNL     1      -4.207   2.262   1.925  0.00  0.00    +0.007 C 
ENDBRANCH   7  11
BRANCH   8  14
ATOM     14  C   UNL     1      -3.025   0.888  -1.957  0.00  0.00    +0.112 C 
BRANCH  14   4
ATOM      3  O   UNL     1      -4.256  -1.160  -0.367  0.00  0.00    -0.270 OA
ATOM      4  N   UNL     1      -2.403  -0.302  -1.468  0.00  0.00    -0.311 N 
ATOM     20  C   UNL     1      -3.077  -1.250  -0.699  0.00  0.00    +0.244 C 
ATOM     33  H   UNL     1      -1.455  -0.491  -1.780  0.00  0.00    +0.149 HD
BRANCH  20  22
ATOM      1  F   UNL     1      -2.777  -5.902   0.683  0.00  0.00    -0.205 F 
ATOM     22  C   UNL     1      -2.282  -2.420  -0.246  0.00  0.00    +0.039 A 
ATOM     24  C   UNL     1      -2.915  -3.636   0.011  0.00  0.00    +0.051 A 
ATOM     25  C   UNL     1      -0.902  -2.303  -0.078  0.00  0.00    +0.013 A 
ATOM     28  C   UNL     1      -2.169  -4.735   0.436  0.00  0.00    +0.124 A 
ATOM     29  C   UNL     1      -0.156  -3.402   0.348  0.00  0.00    +0.004 A 
ATOM     30  C   UNL     1      -0.789  -4.618   0.605  0.00  0.00    +0.038 A 
ENDBRANCH  20  22
ENDBRANCH  14   4
ENDBRANCH   8  14
BRANCH  10  15
ATOM     15  C   UNL     1       0.456   1.651   1.309  0.00  0.00    +0.103 C 
BRANCH  15  19
ATOM      2  O   UNL     1       2.676   2.607   1.421  0.00  0.00    -0.276 OA
ATOM      5  N   UNL     1       2.397   0.322   1.736  0.00  0.00    -0.311 N 
ATOM     19  C   UNL     1       1.957   1.614   1.489  0.00  0.00    +0.214 C 
ATOM     34  H   UNL     1       1.724  -0.439   1.766  0.00  0.00    +0.149 HD
BRANCH   5  21
ATOM     21  C   UNL     1       3.787  -0.012   1.946  0.00  0.00    +0.141 C 
BRANCH  21  23
ATOM      6  N   UNL     1       6.012   0.307  -1.094  0.00  0.00    -0.263 NA
ATOM     23  C   UNL     1       4.484  -0.350   0.661  0.00  0.00    -0.012 A 
ATOM     26  C   UNL     1       4.276  -1.572   0.032  0.00  0.00    +0.008 A 
ATOM     27  C   UNL     1       5.354   0.547   0.062  0.00  0.00    +0.115 A 
ATOM     31  C   UNL     1       4.935  -1.856  -1.159  0.00  0.00    +0.020 A 
ATOM     32  C   UNL     1       5.784  -0.892  -1.676  0.00  0.00    +0.111 A 
ENDBRANCH  21  23
ENDBRANCH   5  21
ENDBRANCH  15  19
ENDBRANCH  10  15
TORSDOF 8
