REMARK  Name = 56775480
REMARK  6 active torsions:
REMARK  status: ('A' for Active; 'I' for Inactive)
REMARK    1  A    between atoms: N_4  and  C_6
REMARK    2  A    between atoms: N_4  and  C_8
REMARK    3  A    between atoms: C_6  and  C_13
REMARK    4  A    between atoms: C_7  and  C_8
REMARK    5  A    between atoms: C_13  and  C_17
REMARK    6  A    between atoms: C_19  and  C_20
REMARK                            x       y       z     vdW  Elec       q    Type
REMARK                         _______ _______ _______ _____ _____    ______ ____
ROOT
ATOM      2  O   UNL     1      -2.749   3.629   0.970  0.00  0.00    -0.376 OA
ATOM      6  C   UNL     1      -1.814   1.993  -0.033  0.00  0.00    +0.072 C 
ATOM     11  C   UNL     1      -1.509   2.907   1.148  0.00  0.00    +0.184 C 
ATOM     12  C   UNL     1      -3.143   2.738  -0.098  0.00  0.00    +0.184 C 
ENDROOT
BRANCH   6   4
ATOM      4  N   UNL     1      -2.058   0.635   0.470  0.00  0.00    -0.306 NA
ATOM     26  H   UNL     1      -1.252   0.176   0.892  0.00  0.00    +0.123 HD
BRANCH   4   8
ATOM      8  C   UNL     1      -2.597  -0.189  -0.601  0.00  0.00    +0.085 C 
BRANCH   8   7
ATOM      7  C   UNL     1      -3.401  -1.358  -0.035  0.00  0.00    +0.003 C 
ATOM      9  C   UNL     1      -3.877  -2.284  -1.162  0.00  0.00    +0.005 C 
ATOM     10  C   UNL     1      -4.588  -0.850   0.793  0.00  0.00    +0.005 C 
ATOM     14  C   UNL     1      -4.728  -3.433  -0.626  0.00  0.00    +0.000 C 
ATOM     15  C   UNL     1      -5.438  -2.001   1.326  0.00  0.00    +0.000 C 
ATOM     16  C   UNL     1      -5.903  -2.924   0.204  0.00  0.00    +0.000 C 
ENDBRANCH   8   7
ENDBRANCH   4   8
ENDBRANCH   6   4
BRANCH   6  13
ATOM     13  C   UNL     1      -0.909   2.020  -1.226  0.00  0.00    +0.085 C 
BRANCH  13  17
ATOM      3  O   UNL     1       2.549   1.983  -0.176  0.00  0.00    -0.354 OA
ATOM      5  N   UNL     1       1.358   2.639  -0.465  0.00  0.00    -0.083 NA
ATOM     17  C   UNL     1       0.512   1.672  -0.832  0.00  0.00    +0.086 A 
ATOM     18  C   UNL     1       1.106   0.399  -0.793  0.00  0.00    +0.076 A 
ATOM     19  C   UNL     1       2.386   0.650  -0.375  0.00  0.00    +0.167 A 
BRANCH  19  20
ATOM      1  F   UNL     1       6.854  -2.504   0.647  0.00  0.00    -0.205 F 
ATOM     20  C   UNL     1       3.538  -0.163  -0.113  0.00  0.00    +0.020 A 
ATOM     21  C   UNL     1       3.470  -1.545  -0.285  0.00  0.00    +0.014 A 
ATOM     22  C   UNL     1       4.726   0.429   0.317  0.00  0.00    +0.014 A 
ATOM     23  C   UNL     1       4.590  -2.336  -0.029  0.00  0.00    +0.039 A 
ATOM     24  C   UNL     1       5.846  -0.362   0.573  0.00  0.00    +0.039 A 
ATOM     25  C   UNL     1       5.778  -1.745   0.400  0.00  0.00    +0.123 A 
ENDBRANCH  19  20
ENDBRANCH  13  17
ENDBRANCH   6  13
TORSDOF 6
