MODEL 1
REMARK VINA RESULT:      -6.2      0.000      0.000
REMARK  Name = 40780421
REMARK  8 active torsions:
REMARK  status: ('A' for Active; 'I' for Inactive)
REMARK    1  A    between atoms: N_4  and  C_11
REMARK    2  A    between atoms: N_5  and  C_19
REMARK    3  A    between atoms: N_7  and  C_25
REMARK    4  A    between atoms: N_8  and  C_21
REMARK    5  A    between atoms: C_9  and  C_12
REMARK    6  A    between atoms: C_15  and  C_17
REMARK    7  A    between atoms: C_16  and  C_18
REMARK    8  A    between atoms: C_25  and  C_27
REMARK                            x       y       z     vdW  Elec       q    Type
REMARK                         _______ _______ _______ _____ _____    ______ ____
ROOT
ATOM      5  N   UNL     1     -13.055   8.268  19.278  0.00  0.00    -0.234 N 
ATOM      6  N   UNL     1     -14.341   8.507  18.966  0.00  0.00    -0.171 NA
ATOM     12  C   UNL     1     -14.158   6.991  20.665  0.00  0.00    +0.003 A 
ATOM     15  C   UNL     1     -12.891   7.368  20.290  0.00  0.00    +0.046 A 
ATOM     16  C   UNL     1     -15.009   7.723  19.816  0.00  0.00    +0.064 A 
ATOM     17  C   UNL     1     -11.569   6.952  20.800  0.00  0.00    +0.066 C 
ATOM     18  C   UNL     1     -16.482   7.706  19.780  0.00  0.00    +0.068 C 
ENDROOT
BRANCH   5  19
ATOM     19  C   UNL     1     -12.040   8.926  18.582  0.00  0.00    +0.096 A 
ATOM     21  C   UNL     1     -11.594  10.188  18.972  0.00  0.00    +0.151 A 
ATOM     22  C   UNL     1     -11.473   8.296  17.474  0.00  0.00    +0.030 A 
ATOM     23  C   UNL     1     -10.579  10.821  18.253  0.00  0.00    +0.035 A 
ATOM     24  C   UNL     1     -10.457   8.930  16.756  0.00  0.00    +0.002 A 
ATOM     26  C   UNL     1     -10.011  10.192  17.146  0.00  0.00    +0.002 A 
BRANCH  21   8
ATOM      2  O   UNL     1     -11.654  10.660  21.228  0.00  0.00    -0.126 OA
ATOM      3  O   UNL     1     -13.128  11.624  19.919  0.00  0.00    -0.126 OA
ATOM      8  N   UNL     1     -12.154  10.858  20.097  0.00  0.00    +0.059 N 
ENDBRANCH  21   8
ENDBRANCH   5  19
BRANCH  12   9
ATOM      9  C   UNL     1     -14.546   6.009  21.746  0.00  0.00    +0.047 C 
ATOM     10  C   UNL     1     -15.086   6.687  23.022  0.00  0.00    +0.039 C 
ATOM     11  C   UNL     1     -16.163   5.743  23.574  0.00  0.00    +0.098 C 
ATOM     13  C   UNL     1     -15.665   5.078  21.377  0.00  0.00    -0.021 C 
ATOM     14  C   UNL     1     -16.540   4.934  22.376  0.00  0.00    -0.009 C 
BRANCH  11   4
ATOM      1  O   UNL     1     -17.662   4.551  25.733  0.00  0.00    -0.253 OA
ATOM      4  N   UNL     1     -15.660   4.866  24.598  0.00  0.00    -0.293 N 
ATOM      7  N   UNL     1     -15.719   3.516  26.465  0.00  0.00    -0.300 N 
ATOM     20  C   UNL     1     -16.458   4.330  25.611  0.00  0.00    +0.300 C 
ATOM     28  H   UNL     1     -14.666   4.657  24.618  0.00  0.00    +0.151 HD
ATOM     29  H   UNL     1     -14.730   3.382  26.279  0.00  0.00    +0.150 HD
BRANCH   7  25
ATOM     25  C   UNL     1     -16.302   2.838  27.598  0.00  0.00    +0.102 C 
ATOM     27  C   UNL     1     -15.610   3.218  28.890  0.00  0.00    +0.024 C 
ENDBRANCH   7  25
ENDBRANCH  11   4
ENDBRANCH  12   9
TORSDOF 5
ENDMDL
MODEL 2
REMARK VINA RESULT:      -6.1     29.021     33.167
REMARK  Name = 40780421
REMARK  8 active torsions:
REMARK  status: ('A' for Active; 'I' for Inactive)
REMARK    1  A    between atoms: N_4  and  C_11
REMARK    2  A    between atoms: N_5  and  C_19
REMARK    3  A    between atoms: N_7  and  C_25
REMARK    4  A    between atoms: N_8  and  C_21
REMARK    5  A    between atoms: C_9  and  C_12
REMARK    6  A    between atoms: C_15  and  C_17
REMARK    7  A    between atoms: C_16  and  C_18
REMARK    8  A    between atoms: C_25  and  C_27
REMARK                            x       y       z     vdW  Elec       q    Type
REMARK                         _______ _______ _______ _____ _____    ______ ____
ROOT
ATOM      5  N   UNL     1      12.836   4.569  -1.212  0.00  0.00    -0.234 N 
ATOM      6  N   UNL     1      14.028   4.085  -0.822  0.00  0.00    -0.171 NA
ATOM     12  C   UNL     1      12.642   4.432   0.960  0.00  0.00    +0.003 A 
ATOM     15  C   UNL     1      11.969   4.793  -0.182  0.00  0.00    +0.046 A 
ATOM     16  C   UNL     1      13.904   4.005   0.505  0.00  0.00    +0.064 A 
ATOM     17  C   UNL     1      10.604   5.323  -0.372  0.00  0.00    +0.066 C 
ATOM     18  C   UNL     1      15.034   3.507   1.309  0.00  0.00    +0.068 C 
ENDROOT
BRANCH   5  19
ATOM     19  C   UNL     1      12.587   4.790  -2.567  0.00  0.00    +0.096 A 
ATOM     21  C   UNL     1      11.882   3.865  -3.336  0.00  0.00    +0.151 A 
ATOM     22  C   UNL     1      13.063   5.965  -3.151  0.00  0.00    +0.030 A 
ATOM     23  C   UNL     1      11.653   4.114  -4.689  0.00  0.00    +0.035 A 
ATOM     24  C   UNL     1      12.832   6.214  -4.505  0.00  0.00    +0.002 A 
ATOM     26  C   UNL     1      12.127   5.288  -5.274  0.00  0.00    +0.002 A 
BRANCH  21   8
ATOM      2  O   UNL     1      12.196   1.744  -2.486  0.00  0.00    -0.126 OA
ATOM      3  O   UNL     1      10.154   2.543  -2.575  0.00  0.00    -0.126 OA
ATOM      8  N   UNL     1      11.385   2.656  -2.770  0.00  0.00    +0.059 N 
ENDBRANCH  21   8
ENDBRANCH   5  19
BRANCH  12   9
ATOM      9  C   UNL     1      12.138   4.485   2.383  0.00  0.00    +0.047 C 
ATOM     10  C   UNL     1      12.203   5.897   3.002  0.00  0.00    +0.039 C 
ATOM     11  C   UNL     1      10.987   6.004   3.931  0.00  0.00    +0.098 C 
ATOM     13  C   UNL     1      10.690   4.127   2.551  0.00  0.00    -0.021 C 
ATOM     14  C   UNL     1      10.069   4.955   3.396  0.00  0.00    -0.009 C 
BRANCH  11   4
ATOM      1  O   UNL     1       9.300   6.403   6.238  0.00  0.00    -0.253 OA
ATOM      4  N   UNL     1      11.306   5.701   5.301  0.00  0.00    -0.293 N 
ATOM      7  N   UNL     1      10.988   5.543   7.578  0.00  0.00    -0.300 N 
ATOM     20  C   UNL     1      10.427   5.926   6.362  0.00  0.00    +0.300 C 
ATOM     28  H   UNL     1      12.233   5.348   5.520  0.00  0.00    +0.151 HD
ATOM     29  H   UNL     1      11.922   5.148   7.582  0.00  0.00    +0.150 HD
BRANCH   7  25
ATOM     25  C   UNL     1      10.290   5.670   8.835  0.00  0.00    +0.102 C 
ATOM     27  C   UNL     1       9.499   4.419   9.159  0.00  0.00    +0.024 C 
ENDBRANCH   7  25
ENDBRANCH  11   4
ENDBRANCH  12   9
TORSDOF 5
ENDMDL
MODEL 3
REMARK VINA RESULT:      -6.1     19.247     21.926
REMARK  Name = 40780421
REMARK  8 active torsions:
REMARK  status: ('A' for Active; 'I' for Inactive)
REMARK    1  A    between atoms: N_4  and  C_11
REMARK    2  A    between atoms: N_5  and  C_19
REMARK    3  A    between atoms: N_7  and  C_25
REMARK    4  A    between atoms: N_8  and  C_21
REMARK    5  A    between atoms: C_9  and  C_12
REMARK    6  A    between atoms: C_15  and  C_17
REMARK    7  A    between atoms: C_16  and  C_18
REMARK    8  A    between atoms: C_25  and  C_27
REMARK                            x       y       z     vdW  Elec       q    Type
REMARK                         _______ _______ _______ _____ _____    ______ ____
ROOT
ATOM      5  N   UNL     1      -9.143 -11.174  19.268  0.00  0.00    -0.234 N 
ATOM      6  N   UNL     1      -8.084 -11.068  20.089  0.00  0.00    -0.171 NA
ATOM     12  C   UNL     1      -7.436 -11.243  17.906  0.00  0.00    +0.003 A 
ATOM     15  C   UNL     1      -8.809 -11.281  17.949  0.00  0.00    +0.046 A 
ATOM     16  C   UNL     1      -7.045 -11.112  19.251  0.00  0.00    +0.064 A 
ATOM     17  C   UNL     1      -9.807 -11.409  16.868  0.00  0.00    +0.066 C 
ATOM     18  C   UNL     1      -5.676 -11.025  19.790  0.00  0.00    +0.068 C 
ENDROOT
BRANCH   5  19
ATOM     19  C   UNL     1     -10.434 -11.164  19.797  0.00  0.00    +0.096 A 
ATOM     21  C   UNL     1     -11.054 -12.340  20.219  0.00  0.00    +0.151 A 
ATOM     22  C   UNL     1     -11.106  -9.945  19.898  0.00  0.00    +0.030 A 
ATOM     23  C   UNL     1     -12.346 -12.298  20.741  0.00  0.00    +0.035 A 
ATOM     24  C   UNL     1     -12.399  -9.904  20.422  0.00  0.00    +0.002 A 
ATOM     26  C   UNL     1     -13.019 -11.080  20.843  0.00  0.00    +0.002 A 
BRANCH  21   8
ATOM      2  O   UNL     1      -9.738 -14.010  21.112  0.00  0.00    -0.126 OA
ATOM      3  O   UNL     1     -10.493 -14.256  19.066  0.00  0.00    -0.126 OA
ATOM      8  N   UNL     1     -10.395 -13.599  20.128  0.00  0.00    +0.059 N 
ENDBRANCH  21   8
ENDBRANCH   5  19
BRANCH  12   9
ATOM      9  C   UNL     1      -6.550 -11.327  16.685  0.00  0.00    +0.047 C 
ATOM     10  C   UNL     1      -5.604 -10.119  16.533  0.00  0.00    +0.039 C 
ATOM     11  C   UNL     1      -4.311 -10.672  15.920  0.00  0.00    +0.098 C 
ATOM     13  C   UNL     1      -5.595 -12.486  16.680  0.00  0.00    -0.021 C 
ATOM     14  C   UNL     1      -4.379 -12.125  16.260  0.00  0.00    -0.009 C 
BRANCH  11   4
ATOM      1  O   UNL     1      -1.955 -10.476  14.264  0.00  0.00    -0.253 OA
ATOM      4  N   UNL     1      -4.266 -10.523  14.489  0.00  0.00    -0.293 N 
ATOM      7  N   UNL     1      -3.323 -10.297  12.398  0.00  0.00    -0.300 N 
ATOM     20  C   UNL     1      -3.078 -10.435  13.762  0.00  0.00    +0.300 C 
ATOM     28  H   UNL     1      -5.141 -10.430  13.980  0.00  0.00    +0.151 HD
ATOM     29  H   UNL     1      -4.284 -10.285  12.074  0.00  0.00    +0.150 HD
BRANCH   7  25
ATOM     25  C   UNL     1      -2.266 -10.185  11.422  0.00  0.00    +0.102 C 
ATOM     27  C   UNL     1      -2.607  -9.171  10.349  0.00  0.00    +0.024 C 
ENDBRANCH   7  25
ENDBRANCH  11   4
ENDBRANCH  12   9
TORSDOF 5
ENDMDL
MODEL 4
REMARK VINA RESULT:      -5.9     21.435     23.558
REMARK  Name = 40780421
REMARK  8 active torsions:
REMARK  status: ('A' for Active; 'I' for Inactive)
REMARK    1  A    between atoms: N_4  and  C_11
REMARK    2  A    between atoms: N_5  and  C_19
REMARK    3  A    between atoms: N_7  and  C_25
REMARK    4  A    between atoms: N_8  and  C_21
REMARK    5  A    between atoms: C_9  and  C_12
REMARK    6  A    between atoms: C_15  and  C_17
REMARK    7  A    between atoms: C_16  and  C_18
REMARK    8  A    between atoms: C_25  and  C_27
REMARK                            x       y       z     vdW  Elec       q    Type
REMARK                         _______ _______ _______ _____ _____    ______ ____
ROOT
ATOM      5  N   UNL     1      -4.010 -10.904  14.418  0.00  0.00    -0.234 N 
ATOM      6  N   UNL     1      -2.725 -10.851  14.028  0.00  0.00    -0.171 NA
ATOM     12  C   UNL     1      -4.133 -10.178  12.361  0.00  0.00    +0.003 A 
ATOM     15  C   UNL     1      -4.894 -10.510  13.456  0.00  0.00    +0.046 A 
ATOM     16  C   UNL     1      -2.806 -10.408  12.771  0.00  0.00    +0.064 A 
ATOM     17  C   UNL     1      -6.356 -10.486  13.659  0.00  0.00    +0.066 C 
ATOM     18  C   UNL     1      -1.572 -10.219  11.989  0.00  0.00    +0.068 C 
ENDROOT
BRANCH   5  19
ATOM     19  C   UNL     1      -4.326 -11.331  15.708  0.00  0.00    +0.096 A 
ATOM     21  C   UNL     1      -4.556 -12.678  15.990  0.00  0.00    +0.151 A 
ATOM     22  C   UNL     1      -4.412 -10.380  16.726  0.00  0.00    +0.030 A 
ATOM     23  C   UNL     1      -4.873 -13.073  17.289  0.00  0.00    +0.035 A 
ATOM     24  C   UNL     1      -4.729 -10.777  18.026  0.00  0.00    +0.002 A 
ATOM     26  C   UNL     1      -4.960 -12.124  18.307  0.00  0.00    +0.002 A 
BRANCH  21   8
ATOM      2  O   UNL     1      -5.518 -13.982  14.349  0.00  0.00    -0.126 OA
ATOM      3  O   UNL     1      -3.369 -14.205  14.736  0.00  0.00    -0.126 OA
ATOM      8  N   UNL     1      -4.477 -13.672  14.973  0.00  0.00    +0.059 N 
ENDBRANCH  21   8
ENDBRANCH   5  19
BRANCH  12   9
ATOM      9  C   UNL     1      -4.616  -9.680  11.019  0.00  0.00    +0.047 C 
ATOM     10  C   UNL     1      -5.593 -10.650  10.323  0.00  0.00    +0.039 C 
ATOM     11  C   UNL     1      -6.592  -9.767   9.564  0.00  0.00    +0.098 C 
ATOM     13  C   UNL     1      -5.409  -8.406  11.070  0.00  0.00    -0.021 C 
ATOM     14  C   UNL     1      -6.481  -8.457  10.274  0.00  0.00    -0.009 C 
BRANCH  11   4
ATOM      1  O   UNL     1      -8.303  -8.835   7.435  0.00  0.00    -0.253 OA
ATOM      4  N   UNL     1      -6.236  -9.587   8.182  0.00  0.00    -0.293 N 
ATOM      7  N   UNL     1      -6.525  -9.048   5.959  0.00  0.00    -0.300 N 
ATOM     20  C   UNL     1      -7.129  -9.130   7.211  0.00  0.00    +0.300 C 
ATOM     28  H   UNL     1      -5.302  -9.848   7.879  0.00  0.00    +0.151 HD
ATOM     29  H   UNL     1      -5.546  -9.302   5.872  0.00  0.00    +0.150 HD
BRANCH   7  25
ATOM     25  C   UNL     1      -7.227  -8.603   4.780  0.00  0.00    +0.102 C 
ATOM     27  C   UNL     1      -7.615  -9.767   3.891  0.00  0.00    +0.024 C 
ENDBRANCH   7  25
ENDBRANCH  11   4
ENDBRANCH  12   9
TORSDOF 5
ENDMDL
MODEL 5
REMARK VINA RESULT:      -5.8     27.356     32.095
REMARK  Name = 40780421
REMARK  8 active torsions:
REMARK  status: ('A' for Active; 'I' for Inactive)
REMARK    1  A    between atoms: N_4  and  C_11
REMARK    2  A    between atoms: N_5  and  C_19
REMARK    3  A    between atoms: N_7  and  C_25
REMARK    4  A    between atoms: N_8  and  C_21
REMARK    5  A    between atoms: C_9  and  C_12
REMARK    6  A    between atoms: C_15  and  C_17
REMARK    7  A    between atoms: C_16  and  C_18
REMARK    8  A    between atoms: C_25  and  C_27
REMARK                            x       y       z     vdW  Elec       q    Type
REMARK                         _______ _______ _______ _____ _____    ______ ____
ROOT
ATOM      5  N   UNL     1      11.020   6.181   4.845  0.00  0.00    -0.234 N 
ATOM      6  N   UNL     1      12.004   6.976   4.392  0.00  0.00    -0.171 NA
ATOM     12  C   UNL     1      11.639   5.212   2.987  0.00  0.00    +0.003 A 
ATOM     15  C   UNL     1      10.762   5.110   4.040  0.00  0.00    +0.046 A 
ATOM     16  C   UNL     1      12.379   6.379   3.257  0.00  0.00    +0.064 A 
ATOM     17  C   UNL     1       9.725   4.102   4.338  0.00  0.00    +0.066 C 
ATOM     18  C   UNL     1      13.464   6.968   2.453  0.00  0.00    +0.068 C 
ENDROOT
BRANCH   5  19
ATOM     19  C   UNL     1      10.370   6.495   6.039  0.00  0.00    +0.096 A 
ATOM     21  C   UNL     1       9.318   7.409   6.074  0.00  0.00    +0.151 A 
ATOM     22  C   UNL     1      10.796   5.875   7.215  0.00  0.00    +0.030 A 
ATOM     23  C   UNL     1       8.691   7.704   7.284  0.00  0.00    +0.035 A 
ATOM     24  C   UNL     1      10.167   6.171   8.426  0.00  0.00    +0.002 A 
ATOM     26  C   UNL     1       9.115   7.085   8.460  0.00  0.00    +0.002 A 
BRANCH  21   8
ATOM      2  O   UNL     1       9.320   9.190   4.609  0.00  0.00    -0.126 OA
ATOM      3  O   UNL     1       8.015   7.479   4.173  0.00  0.00    -0.126 OA
ATOM      8  N   UNL     1       8.861   8.059   4.892  0.00  0.00    +0.059 N 
ENDBRANCH  21   8
ENDBRANCH   5  19
BRANCH  12   9
ATOM      9  C   UNL     1      11.777   4.278   1.808  0.00  0.00    +0.047 C 
ATOM     10  C   UNL     1      11.620   4.986   0.446  0.00  0.00    +0.039 C 
ATOM     11  C   UNL     1      12.573   4.262  -0.515  0.00  0.00    +0.098 C 
ATOM     13  C   UNL     1      13.122   3.624   1.678  0.00  0.00    -0.021 C 
ATOM     14  C   UNL     1      13.549   3.615   0.412  0.00  0.00    -0.009 C 
BRANCH  11   4
ATOM      1  O   UNL     1      10.501   4.651  -2.487  0.00  0.00    -0.253 OA
ATOM      4  N   UNL     1      11.912   3.246  -1.291  0.00  0.00    -0.293 N 
ATOM      7  N   UNL     1      10.450   2.358  -2.834  0.00  0.00    -0.300 N 
ATOM     20  C   UNL     1      10.915   3.522  -2.229  0.00  0.00    +0.300 C 
ATOM     28  H   UNL     1      12.146   2.272  -1.120  0.00  0.00    +0.151 HD
ATOM     29  H   UNL     1      10.860   1.469  -2.565  0.00  0.00    +0.150 HD
BRANCH   7  25
ATOM     25  C   UNL     1       9.417   2.361  -3.843  0.00  0.00    +0.102 C 
ATOM     27  C   UNL     1       9.973   2.718  -5.206  0.00  0.00    +0.024 C 
ENDBRANCH   7  25
ENDBRANCH  11   4
ENDBRANCH  12   9
TORSDOF 5
ENDMDL
MODEL 6
REMARK VINA RESULT:      -5.8     19.930     21.176
REMARK  Name = 40780421
REMARK  8 active torsions:
REMARK  status: ('A' for Active; 'I' for Inactive)
REMARK    1  A    between atoms: N_4  and  C_11
REMARK    2  A    between atoms: N_5  and  C_19
REMARK    3  A    between atoms: N_7  and  C_25
REMARK    4  A    between atoms: N_8  and  C_21
REMARK    5  A    between atoms: C_9  and  C_12
REMARK    6  A    between atoms: C_15  and  C_17
REMARK    7  A    between atoms: C_16  and  C_18
REMARK    8  A    between atoms: C_25  and  C_27
REMARK                            x       y       z     vdW  Elec       q    Type
REMARK                         _______ _______ _______ _____ _____    ______ ____
ROOT
ATOM      5  N   UNL     1      -4.205 -11.979  15.607  0.00  0.00    -0.234 N 
ATOM      6  N   UNL     1      -4.163 -12.047  16.948  0.00  0.00    -0.171 NA
ATOM     12  C   UNL     1      -5.731 -10.547  16.236  0.00  0.00    +0.003 A 
ATOM     15  C   UNL     1      -5.129 -11.095  15.129  0.00  0.00    +0.046 A 
ATOM     16  C   UNL     1      -5.096 -11.170  17.327  0.00  0.00    +0.064 A 
ATOM     17  C   UNL     1      -5.350 -10.853  13.689  0.00  0.00    +0.066 C 
ATOM     18  C   UNL     1      -5.350 -10.957  18.762  0.00  0.00    +0.068 C 
ENDROOT
BRANCH   5  19
ATOM     19  C   UNL     1      -3.350 -12.775  14.845  0.00  0.00    +0.096 A 
ATOM     21  C   UNL     1      -2.110 -12.302  14.414  0.00  0.00    +0.151 A 
ATOM     22  C   UNL     1      -3.757 -14.068  14.514  0.00  0.00    +0.030 A 
ATOM     23  C   UNL     1      -1.279 -13.122  13.651  0.00  0.00    +0.035 A 
ATOM     24  C   UNL     1      -2.924 -14.887  13.751  0.00  0.00    +0.002 A 
ATOM     26  C   UNL     1      -1.685 -14.415  13.320  0.00  0.00    +0.002 A 
BRANCH  21   8
ATOM      2  O   UNL     1      -1.826 -10.074  13.892  0.00  0.00    -0.126 OA
ATOM      3  O   UNL     1      -1.129 -10.787  15.848  0.00  0.00    -0.126 OA
ATOM      8  N   UNL     1      -1.666 -10.988  14.734  0.00  0.00    +0.059 N 
ENDBRANCH  21   8
ENDBRANCH   5  19
BRANCH  12   9
ATOM      9  C   UNL     1      -6.827  -9.507  16.269  0.00  0.00    +0.047 C 
ATOM     10  C   UNL     1      -7.992  -9.816  15.307  0.00  0.00    +0.039 C 
ATOM     11  C   UNL     1      -9.259  -9.309  16.006  0.00  0.00    +0.098 C 
ATOM     13  C   UNL     1      -7.527  -9.376  17.591  0.00  0.00    -0.021 C 
ATOM     14  C   UNL     1      -8.850  -9.264  17.442  0.00  0.00    -0.009 C 
BRANCH  11   4
ATOM      1  O   UNL     1     -11.934  -8.328  15.540  0.00  0.00    -0.253 OA
ATOM      4  N   UNL     1      -9.637  -7.987  15.580  0.00  0.00    -0.293 N 
ATOM      7  N   UNL     1     -11.041  -6.264  14.969  0.00  0.00    -0.300 N 
ATOM     20  C   UNL     1     -10.961  -7.593  15.378  0.00  0.00    +0.300 C 
ATOM     28  H   UNL     1      -8.905  -7.313  15.370  0.00  0.00    +0.151 HD
ATOM     29  H   UNL     1     -10.183  -5.730  14.873  0.00  0.00    +0.150 HD
BRANCH   7  25
ATOM     25  C   UNL     1     -12.295  -5.606  14.691  0.00  0.00    +0.102 C 
ATOM     27  C   UNL     1     -12.238  -4.826  13.394  0.00  0.00    +0.024 C 
ENDBRANCH   7  25
ENDBRANCH  11   4
ENDBRANCH  12   9
TORSDOF 5
ENDMDL
MODEL 7
REMARK VINA RESULT:      -5.8     17.669     19.510
REMARK  Name = 40780421
REMARK  8 active torsions:
REMARK  status: ('A' for Active; 'I' for Inactive)
REMARK    1  A    between atoms: N_4  and  C_11
REMARK    2  A    between atoms: N_5  and  C_19
REMARK    3  A    between atoms: N_7  and  C_25
REMARK    4  A    between atoms: N_8  and  C_21
REMARK    5  A    between atoms: C_9  and  C_12
REMARK    6  A    between atoms: C_15  and  C_17
REMARK    7  A    between atoms: C_16  and  C_18
REMARK    8  A    between atoms: C_25  and  C_27
REMARK                            x       y       z     vdW  Elec       q    Type
REMARK                         _______ _______ _______ _____ _____    ______ ____
ROOT
ATOM      5  N   UNL     1     -12.999  -4.852   9.088  0.00  0.00    -0.234 N 
ATOM      6  N   UNL     1     -13.455  -6.042   8.660  0.00  0.00    -0.171 NA
ATOM     12  C   UNL     1     -11.180  -5.917   8.515  0.00  0.00    +0.003 A 
ATOM     15  C   UNL     1     -11.642  -4.727   9.022  0.00  0.00    +0.046 A 
ATOM     16  C   UNL     1     -12.340  -6.687   8.311  0.00  0.00    +0.064 A 
ATOM     17  C   UNL     1     -10.919  -3.508   9.437  0.00  0.00    +0.066 C 
ATOM     18  C   UNL     1     -12.433  -8.058   7.778  0.00  0.00    +0.068 C 
ENDROOT
BRANCH   5  19
ATOM     19  C   UNL     1     -13.899  -3.888   9.545  0.00  0.00    +0.096 A 
ATOM     21  C   UNL     1     -14.258  -3.812  10.890  0.00  0.00    +0.151 A 
ATOM     22  C   UNL     1     -14.443  -2.992   8.625  0.00  0.00    +0.030 A 
ATOM     23  C   UNL     1     -15.163  -2.839  11.315  0.00  0.00    +0.035 A 
ATOM     24  C   UNL     1     -15.348  -2.019   9.051  0.00  0.00    +0.002 A 
ATOM     26  C   UNL     1     -15.708  -1.942  10.396  0.00  0.00    +0.002 A 
BRANCH  21   8
ATOM      2  O   UNL     1     -12.689  -4.381  12.481  0.00  0.00    -0.126 OA
ATOM      3  O   UNL     1     -14.299  -5.808  12.043  0.00  0.00    -0.126 OA
ATOM      8  N   UNL     1     -13.721  -4.713  11.854  0.00  0.00    +0.059 N 
ENDBRANCH  21   8
ENDBRANCH   5  19
BRANCH  12   9
ATOM      9  C   UNL     1      -9.746  -6.306   8.238  0.00  0.00    +0.047 C 
ATOM     10  C   UNL     1      -9.336  -7.638   8.899  0.00  0.00    +0.039 C 
ATOM     11  C   UNL     1      -8.350  -8.302   7.929  0.00  0.00    +0.098 C 
ATOM     13  C   UNL     1      -9.431  -6.555   6.791  0.00  0.00    -0.021 C 
ATOM     14  C   UNL     1      -8.668  -7.640   6.629  0.00  0.00    -0.009 C 
BRANCH  11   4
ATOM      1  O   UNL     1      -6.397 -10.211   8.865  0.00  0.00    -0.253 OA
ATOM      4  N   UNL     1      -6.976  -8.041   8.269  0.00  0.00    -0.293 N 
ATOM      7  N   UNL     1      -4.830  -8.503   8.972  0.00  0.00    -0.300 N 
ATOM     20  C   UNL     1      -6.094  -9.027   8.716  0.00  0.00    +0.300 C 
ATOM     28  H   UNL     1      -6.635  -7.085   8.227  0.00  0.00    +0.151 HD
ATOM     29  H   UNL     1      -4.669  -7.514   8.808  0.00  0.00    +0.150 HD
BRANCH   7  25
ATOM     25  C   UNL     1      -3.730  -9.309   9.445  0.00  0.00    +0.102 C 
ATOM     27  C   UNL     1      -3.754  -9.450  10.952  0.00  0.00    +0.024 C 
ENDBRANCH   7  25
ENDBRANCH  11   4
ENDBRANCH  12   9
TORSDOF 5
ENDMDL
MODEL 8
REMARK VINA RESULT:      -5.7      3.857      5.436
REMARK  Name = 40780421
REMARK  8 active torsions:
REMARK  status: ('A' for Active; 'I' for Inactive)
REMARK    1  A    between atoms: N_4  and  C_11
REMARK    2  A    between atoms: N_5  and  C_19
REMARK    3  A    between atoms: N_7  and  C_25
REMARK    4  A    between atoms: N_8  and  C_21
REMARK    5  A    between atoms: C_9  and  C_12
REMARK    6  A    between atoms: C_15  and  C_17
REMARK    7  A    between atoms: C_16  and  C_18
REMARK    8  A    between atoms: C_25  and  C_27
REMARK                            x       y       z     vdW  Elec       q    Type
REMARK                         _______ _______ _______ _____ _____    ______ ____
ROOT
ATOM      5  N   UNL     1     -11.766   9.453  15.609  0.00  0.00    -0.234 N 
ATOM      6  N   UNL     1     -10.663   9.777  16.306  0.00  0.00    -0.171 NA
ATOM     12  C   UNL     1     -12.080   8.476  17.538  0.00  0.00    +0.003 A 
ATOM     15  C   UNL     1     -12.646   8.674  16.302  0.00  0.00    +0.046 A 
ATOM     16  C   UNL     1     -10.861   9.178  17.484  0.00  0.00    +0.064 A 
ATOM     17  C   UNL     1     -13.925   8.198  15.738  0.00  0.00    +0.066 C 
ATOM     18  C   UNL     1      -9.844   9.307  18.542  0.00  0.00    +0.068 C 
ENDROOT
BRANCH   5  19
ATOM     19  C   UNL     1     -11.917   9.911  14.300  0.00  0.00    +0.096 A 
ATOM     21  C   UNL     1     -11.607   9.101  13.208  0.00  0.00    +0.151 A 
ATOM     22  C   UNL     1     -12.387  11.209  14.096  0.00  0.00    +0.030 A 
ATOM     23  C   UNL     1     -11.766   9.589  11.911  0.00  0.00    +0.035 A 
ATOM     24  C   UNL     1     -12.546  11.696  12.798  0.00  0.00    +0.002 A 
ATOM     26  C   UNL     1     -12.236  10.887  11.705  0.00  0.00    +0.002 A 
BRANCH  21   8
ATOM      2  O   UNL     1     -11.936   6.821  13.319  0.00  0.00    -0.126 OA
ATOM      3  O   UNL     1      -9.902   7.599  13.595  0.00  0.00    -0.126 OA
ATOM      8  N   UNL     1     -11.124   7.773  13.383  0.00  0.00    +0.059 N 
ENDBRANCH  21   8
ENDBRANCH   5  19
BRANCH  12   9
ATOM      9  C   UNL     1     -12.644   7.683  18.694  0.00  0.00    +0.047 C 
ATOM     10  C   UNL     1     -11.574   6.882  19.464  0.00  0.00    +0.039 C 
ATOM     11  C   UNL     1     -12.019   6.891  20.932  0.00  0.00    +0.098 C 
ATOM     13  C   UNL     1     -13.267   8.513  19.779  0.00  0.00    -0.021 C 
ATOM     14  C   UNL     1     -12.927   8.075  20.995  0.00  0.00    -0.009 C 
BRANCH  11   4
ATOM      1  O   UNL     1     -14.375   6.755  22.595  0.00  0.00    -0.253 OA
ATOM      4  N   UNL     1     -12.756   5.710  21.297  0.00  0.00    -0.293 N 
ATOM      7  N   UNL     1     -14.405   4.453  22.303  0.00  0.00    -0.300 N 
ATOM     20  C   UNL     1     -13.891   5.733  22.110  0.00  0.00    +0.300 C 
ATOM     28  H   UNL     1     -12.412   4.805  20.990  0.00  0.00    +0.151 HD
ATOM     29  H   UNL     1     -13.945   3.669  21.853  0.00  0.00    +0.150 HD
BRANCH   7  25
ATOM     25  C   UNL     1     -15.578   4.195  23.104  0.00  0.00    +0.102 C 
ATOM     27  C   UNL     1     -15.211   3.876  24.539  0.00  0.00    +0.024 C 
ENDBRANCH   7  25
ENDBRANCH  11   4
ENDBRANCH  12   9
TORSDOF 5
ENDMDL
MODEL 9
REMARK VINA RESULT:      -5.7      2.009      2.983
REMARK  Name = 40780421
REMARK  8 active torsions:
REMARK  status: ('A' for Active; 'I' for Inactive)
REMARK    1  A    between atoms: N_4  and  C_11
REMARK    2  A    between atoms: N_5  and  C_19
REMARK    3  A    between atoms: N_7  and  C_25
REMARK    4  A    between atoms: N_8  and  C_21
REMARK    5  A    between atoms: C_9  and  C_12
REMARK    6  A    between atoms: C_15  and  C_17
REMARK    7  A    between atoms: C_16  and  C_18
REMARK    8  A    between atoms: C_25  and  C_27
REMARK                            x       y       z     vdW  Elec       q    Type
REMARK                         _______ _______ _______ _____ _____    ______ ____
ROOT
ATOM      5  N   UNL     1     -12.046  10.239  19.126  0.00  0.00    -0.234 N 
ATOM      6  N   UNL     1     -11.996  11.102  20.155  0.00  0.00    -0.171 NA
ATOM     12  C   UNL     1     -12.550   9.000  20.853  0.00  0.00    +0.003 A 
ATOM     15  C   UNL     1     -12.373   8.965  19.492  0.00  0.00    +0.046 A 
ATOM     16  C   UNL     1     -12.306  10.340  21.207  0.00  0.00    +0.064 A 
ATOM     17  C   UNL     1     -12.487   7.850  18.530  0.00  0.00    +0.066 C 
ATOM     18  C   UNL     1     -12.358  10.945  22.549  0.00  0.00    +0.068 C 
ENDROOT
BRANCH   5  19
ATOM     19  C   UNL     1     -11.772  10.685  17.833  0.00  0.00    +0.096 A 
ATOM     21  C   UNL     1     -12.787  11.141  16.993  0.00  0.00    +0.151 A 
ATOM     22  C   UNL     1     -10.450  10.666  17.385  0.00  0.00    +0.030 A 
ATOM     23  C   UNL     1     -12.481  11.578  15.704  0.00  0.00    +0.035 A 
ATOM     24  C   UNL     1     -10.145  11.104  16.095  0.00  0.00    +0.002 A 
ATOM     26  C   UNL     1     -11.161  11.560  15.255  0.00  0.00    +0.002 A 
BRANCH  21   8
ATOM      2  O   UNL     1     -14.577  12.201  17.987  0.00  0.00    -0.126 OA
ATOM      3  O   UNL     1     -14.865  10.167  17.214  0.00  0.00    -0.126 OA
ATOM      8  N   UNL     1     -14.145  11.171  17.420  0.00  0.00    +0.059 N 
ENDBRANCH  21   8
ENDBRANCH   5  19
BRANCH  12   9
ATOM      9  C   UNL     1     -12.925   7.853  21.764  0.00  0.00    +0.047 C 
ATOM     10  C   UNL     1     -14.440   7.562  21.786  0.00  0.00    +0.039 C 
ATOM     11  C   UNL     1     -14.572   6.042  21.951  0.00  0.00    +0.098 C 
ATOM     13  C   UNL     1     -12.347   6.524  21.372  0.00  0.00    -0.021 C 
ATOM     14  C   UNL     1     -13.246   5.542  21.478  0.00  0.00    -0.009 C 
BRANCH  11   4
ATOM      1  O   UNL     1     -15.837   3.628  22.901  0.00  0.00    -0.253 OA
ATOM      4  N   UNL     1     -14.766   5.647  23.320  0.00  0.00    -0.293 N 
ATOM      7  N   UNL     1     -15.446   4.323  25.080  0.00  0.00    -0.300 N 
ATOM     20  C   UNL     1     -15.391   4.456  23.695  0.00  0.00    +0.300 C 
ATOM     28  H   UNL     1     -14.478   6.282  24.059  0.00  0.00    +0.151 HD
ATOM     29  H   UNL     1     -15.041   5.052  25.658  0.00  0.00    +0.150 HD
BRANCH   7  25
ATOM     25  C   UNL     1     -16.041   3.181  25.733  0.00  0.00    +0.102 C 
ATOM     27  C   UNL     1     -16.355   3.473  27.186  0.00  0.00    +0.024 C 
ENDBRANCH   7  25
ENDBRANCH  11   4
ENDBRANCH  12   9
TORSDOF 5
ENDMDL
MODEL 10
REMARK VINA RESULT:      -5.7     20.560     21.480
REMARK  Name = 40780421
REMARK  8 active torsions:
REMARK  status: ('A' for Active; 'I' for Inactive)
REMARK    1  A    between atoms: N_4  and  C_11
REMARK    2  A    between atoms: N_5  and  C_19
REMARK    3  A    between atoms: N_7  and  C_25
REMARK    4  A    between atoms: N_8  and  C_21
REMARK    5  A    between atoms: C_9  and  C_12
REMARK    6  A    between atoms: C_15  and  C_17
REMARK    7  A    between atoms: C_16  and  C_18
REMARK    8  A    between atoms: C_25  and  C_27
REMARK                            x       y       z     vdW  Elec       q    Type
REMARK                         _______ _______ _______ _____ _____    ______ ____
ROOT
ATOM      5  N   UNL     1      -4.589 -12.193  14.801  0.00  0.00    -0.234 N 
ATOM      6  N   UNL     1      -5.295 -11.466  13.917  0.00  0.00    -0.171 NA
ATOM     12  C   UNL     1      -6.041 -11.143  16.051  0.00  0.00    +0.003 A 
ATOM     15  C   UNL     1      -4.997 -12.034  16.094  0.00  0.00    +0.046 A 
ATOM     16  C   UNL     1      -6.180 -10.828  14.687  0.00  0.00    +0.064 A 
ATOM     17  C   UNL     1      -4.369 -12.733  17.233  0.00  0.00    +0.066 C 
ATOM     18  C   UNL     1      -7.155  -9.915  14.064  0.00  0.00    +0.068 C 
ENDROOT
BRANCH   5  19
ATOM     19  C   UNL     1      -3.549 -13.008  14.355  0.00  0.00    +0.096 A 
ATOM     21  C   UNL     1      -2.242 -12.531  14.263  0.00  0.00    +0.151 A 
ATOM     22  C   UNL     1      -3.839 -14.324  13.993  0.00  0.00    +0.030 A 
ATOM     23  C   UNL     1      -1.224 -13.370  13.810  0.00  0.00    +0.035 A 
ATOM     24  C   UNL     1      -2.820 -15.163  13.540  0.00  0.00    +0.002 A 
ATOM     26  C   UNL     1      -1.512 -14.686  13.448  0.00  0.00    +0.002 A 
BRANCH  21   8
ATOM      2  O   UNL     1      -1.574 -10.951  15.804  0.00  0.00    -0.126 OA
ATOM      3  O   UNL     1      -1.976 -10.300  13.747  0.00  0.00    -0.126 OA
ATOM      8  N   UNL     1      -1.914 -11.193  14.623  0.00  0.00    +0.059 N 
ENDBRANCH  21   8
ENDBRANCH   5  19
BRANCH  12   9
ATOM      9  C   UNL     1      -6.857 -10.622  17.212  0.00  0.00    +0.047 C 
ATOM     10  C   UNL     1      -7.805 -11.678  17.815  0.00  0.00    +0.039 C 
ATOM     11  C   UNL     1      -7.856 -11.385  19.320  0.00  0.00    +0.098 C 
ATOM     13  C   UNL     1      -6.051 -10.194  18.405  0.00  0.00    -0.021 C 
ATOM     14  C   UNL     1      -6.601 -10.609  19.549  0.00  0.00    -0.009 C 
BRANCH  11   4
ATOM      1  O   UNL     1     -10.460 -12.311  20.155  0.00  0.00    -0.253 OA
ATOM      4  N   UNL     1      -8.987 -10.576  19.690  0.00  0.00    -0.293 N 
ATOM      7  N   UNL     1     -11.133 -10.103  20.387  0.00  0.00    -0.300 N 
ATOM     20  C   UNL     1     -10.217 -11.107  20.084  0.00  0.00    +0.300 C 
ATOM     28  H   UNL     1      -8.909  -9.565  19.620  0.00  0.00    +0.151 HD
ATOM     29  H   UNL     1     -10.838  -9.134  20.311  0.00  0.00    +0.150 HD
BRANCH   7  25
ATOM     25  C   UNL     1     -12.481 -10.379  20.821  0.00  0.00    +0.102 C 
ATOM     27  C   UNL     1     -13.502  -9.735  19.907  0.00  0.00    +0.024 C 
ENDBRANCH   7  25
ENDBRANCH  11   4
ENDBRANCH  12   9
TORSDOF 5
ENDMDL
