MODEL 1
REMARK VINA RESULT:      -8.6      0.000      0.000
REMARK  Name = 7143719
REMARK  2 active torsions:
REMARK  status: ('A' for Active; 'I' for Inactive)
REMARK    1  A    between atoms: N_5  and  C_20
REMARK    2  A    between atoms: C_16  and  C_18
REMARK                            x       y       z     vdW  Elec       q    Type
REMARK                         _______ _______ _______ _____ _____    ______ ____
ROOT
ATOM      1  O   UNL     1      10.780   7.197   2.212  0.00  0.00    -0.267 OA
ATOM      2  O   UNL     1      13.301   6.461   7.376  0.00  0.00    -0.252 OA
ATOM      3  N   UNL     1      10.072   6.848   4.407  0.00  0.00    -0.311 N 
ATOM      4  N   UNL     1      11.403   7.768   7.160  0.00  0.00    -0.284 N 
ATOM      5  N   UNL     1      13.517   8.620   6.556  0.00  0.00    -0.269 N 
ATOM      6  C   UNL     1       9.439   8.772   5.971  0.00  0.00    +0.027 C 
ATOM      7  C   UNL     1       9.322   6.455   6.779  0.00  0.00    +0.054 C 
ATOM      8  C   UNL     1       8.527   7.751   6.640  0.00  0.00    +0.018 C 
ATOM      9  C   UNL     1       9.774   8.279   4.558  0.00  0.00    +0.130 C 
ATOM     10  C   UNL     1      10.708   9.017   6.811  0.00  0.00    +0.114 C 
ATOM     11  C   UNL     1      10.540   6.703   7.688  0.00  0.00    +0.119 C 
ATOM     12  C   UNL     1       9.785   5.940   5.428  0.00  0.00    +0.027 A 
ATOM     13  C   UNL     1       9.951   4.624   5.226  0.00  0.00    +0.022 A 
ATOM     14  C   UNL     1      10.552   6.430   3.150  0.00  0.00    +0.259 A 
ATOM     15  C   UNL     1      12.791   7.536   7.046  0.00  0.00    +0.306 C 
ATOM     16  C   UNL     1      10.767   4.952   2.967  0.00  0.00    +0.047 A 
ATOM     17  C   UNL     1      10.455   4.127   3.978  0.00  0.00    +0.015 A 
ATOM     34  H   UNL     1      13.156   9.553   6.720  0.00  0.00    +0.156 HD
ENDROOT
BRANCH  16  18
ATOM     18  C   UNL     1      11.317   4.411   1.713  0.00  0.00    -0.012 A 
ATOM     19  C   UNL     1      10.607   4.549   0.519  0.00  0.00    +0.017 A 
ATOM     21  C   UNL     1      12.549   3.761   1.716  0.00  0.00    +0.009 A 
ATOM     22  C   UNL     1      11.119   4.038  -0.685  0.00  0.00    -0.017 A 
ATOM     23  C   UNL     1      13.073   3.246   0.530  0.00  0.00    +0.009 A 
ATOM     24  C   UNL     1      12.371   3.377  -0.679  0.00  0.00    -0.018 A 
ATOM     27  C   UNL     1      10.417   4.168  -1.894  0.00  0.00    +0.008 A 
ATOM     28  C   UNL     1      12.883   2.866  -1.883  0.00  0.00    +0.008 A 
ATOM     31  C   UNL     1      10.941   3.654  -3.080  0.00  0.00    +0.001 A 
ATOM     32  C   UNL     1      12.171   3.004  -3.075  0.00  0.00    +0.001 A 
ENDBRANCH  16  18
BRANCH   5  20
ATOM     20  C   UNL     1      14.760   8.582   5.877  0.00  0.00    +0.035 A 
ATOM     25  C   UNL     1      14.941   7.704   4.812  0.00  0.00    +0.023 A 
ATOM     26  C   UNL     1      15.794   9.422   6.280  0.00  0.00    +0.023 A 
ATOM     29  C   UNL     1      16.164   7.666   4.143  0.00  0.00    +0.002 A 
ATOM     30  C   UNL     1      17.018   9.386   5.610  0.00  0.00    +0.002 A 
ATOM     33  C   UNL     1      17.203   8.508   4.543  0.00  0.00    +0.000 A 
ENDBRANCH   5  20
TORSDOF 2
ENDMDL
MODEL 2
REMARK VINA RESULT:      -8.1     42.627     43.859
REMARK  Name = 7143719
REMARK  2 active torsions:
REMARK  status: ('A' for Active; 'I' for Inactive)
REMARK    1  A    between atoms: N_5  and  C_20
REMARK    2  A    between atoms: C_16  and  C_18
REMARK                            x       y       z     vdW  Elec       q    Type
REMARK                         _______ _______ _______ _____ _____    ______ ____
ROOT
ATOM      1  O   UNL     1      -9.843 -10.545  40.027  0.00  0.00    -0.267 OA
ATOM      2  O   UNL     1      -6.346  -6.066  38.901  0.00  0.00    -0.252 OA
ATOM      3  N   UNL     1      -7.547 -10.135  40.080  0.00  0.00    -0.311 N 
ATOM      4  N   UNL     1      -5.962  -7.439  40.724  0.00  0.00    -0.284 N 
ATOM      5  N   UNL     1      -7.622  -5.766  40.814  0.00  0.00    -0.269 N 
ATOM      6  C   UNL     1      -6.326  -9.422  42.212  0.00  0.00    +0.027 C 
ATOM      7  C   UNL     1      -5.070  -9.683  40.116  0.00  0.00    +0.054 C 
ATOM      8  C   UNL     1      -5.114 -10.099  41.584  0.00  0.00    +0.018 C 
ATOM      9  C   UNL     1      -7.593  -9.961  41.538  0.00  0.00    +0.130 C 
ATOM     10  C   UNL     1      -6.223  -7.888  42.101  0.00  0.00    +0.114 C 
ATOM     11  C   UNL     1      -4.885  -8.156  40.030  0.00  0.00    +0.119 C 
ATOM     12  C   UNL     1      -6.336 -10.090  39.386  0.00  0.00    +0.027 A 
ATOM     13  C   UNL     1      -6.301 -10.371  38.075  0.00  0.00    +0.022 A 
ATOM     14  C   UNL     1      -8.761 -10.457  39.442  0.00  0.00    +0.259 A 
ATOM     15  C   UNL     1      -6.636  -6.393  40.055  0.00  0.00    +0.306 C 
ATOM     16  C   UNL     1      -8.696 -10.728  37.964  0.00  0.00    +0.047 A 
ATOM     17  C   UNL     1      -7.501 -10.689  37.355  0.00  0.00    +0.015 A 
ATOM     34  H   UNL     1      -7.520  -5.760  41.823  0.00  0.00    +0.156 HD
ENDROOT
BRANCH  16  18
ATOM     18  C   UNL     1      -9.913 -11.021  37.186  0.00  0.00    -0.012 A 
ATOM     19  C   UNL     1     -10.004 -12.201  36.448  0.00  0.00    +0.017 A 
ATOM     21  C   UNL     1     -10.974 -10.119  37.189  0.00  0.00    +0.009 A 
ATOM     22  C   UNL     1     -11.157 -12.494  35.702  0.00  0.00    -0.017 A 
ATOM     23  C   UNL     1     -12.127 -10.393  36.453  0.00  0.00    +0.009 A 
ATOM     24  C   UNL     1     -12.235 -11.577  35.705  0.00  0.00    -0.018 A 
ATOM     27  C   UNL     1     -11.266 -13.677  34.953  0.00  0.00    +0.008 A 
ATOM     28  C   UNL     1     -13.389 -11.869  34.959  0.00  0.00    +0.008 A 
ATOM     31  C   UNL     1     -12.419 -13.952  34.218  0.00  0.00    +0.001 A 
ATOM     32  C   UNL     1     -13.478 -13.049  34.220  0.00  0.00    +0.001 A 
ENDBRANCH  16  18
BRANCH   5  20
ATOM     20  C   UNL     1      -8.761  -5.074  40.334  0.00  0.00    +0.035 A 
ATOM     25  C   UNL     1      -9.997  -5.714  40.300  0.00  0.00    +0.023 A 
ATOM     26  C   UNL     1      -8.639  -3.758  39.899  0.00  0.00    +0.023 A 
ATOM     29  C   UNL     1     -11.119  -5.033  39.828  0.00  0.00    +0.002 A 
ATOM     30  C   UNL     1      -9.761  -3.076  39.428  0.00  0.00    +0.002 A 
ATOM     33  C   UNL     1     -11.001  -3.713  39.392  0.00  0.00    +0.000 A 
ENDBRANCH   5  20
TORSDOF 2
ENDMDL
MODEL 3
REMARK VINA RESULT:      -8.0      3.559      8.970
REMARK  Name = 7143719
REMARK  2 active torsions:
REMARK  status: ('A' for Active; 'I' for Inactive)
REMARK    1  A    between atoms: N_5  and  C_20
REMARK    2  A    between atoms: C_16  and  C_18
REMARK                            x       y       z     vdW  Elec       q    Type
REMARK                         _______ _______ _______ _____ _____    ______ ____
ROOT
ATOM      1  O   UNL     1      11.969   7.416   1.440  0.00  0.00    -0.267 OA
ATOM      2  O   UNL     1       9.899   3.583  -2.379  0.00  0.00    -0.252 OA
ATOM      3  N   UNL     1      12.778   5.536   0.320  0.00  0.00    -0.311 N 
ATOM      4  N   UNL     1      12.052   4.407  -2.577  0.00  0.00    -0.284 N 
ATOM      5  N   UNL     1      10.209   5.696  -3.286  0.00  0.00    -0.269 N 
ATOM      6  C   UNL     1      14.083   5.698  -1.875  0.00  0.00    +0.027 C 
ATOM      7  C   UNL     1      13.633   3.495  -0.883  0.00  0.00    +0.054 C 
ATOM      8  C   UNL     1      14.738   4.397  -1.426  0.00  0.00    +0.018 C 
ATOM      9  C   UNL     1      13.478   6.391  -0.649  0.00  0.00    +0.130 C 
ATOM     10  C   UNL     1      13.027   5.438  -2.968  0.00  0.00    +0.114 C 
ATOM     11  C   UNL     1      12.635   3.183  -2.013  0.00  0.00    +0.119 C 
ATOM     12  C   UNL     1      12.906   4.147   0.279  0.00  0.00    +0.027 A 
ATOM     13  C   UNL     1      12.359   3.391   1.244  0.00  0.00    +0.022 A 
ATOM     14  C   UNL     1      12.071   6.191   1.348  0.00  0.00    +0.259 A 
ATOM     15  C   UNL     1      10.650   4.502  -2.718  0.00  0.00    +0.306 C 
ATOM     16  C   UNL     1      11.435   5.316   2.394  0.00  0.00    +0.047 A 
ATOM     17  C   UNL     1      11.609   3.987   2.312  0.00  0.00    +0.015 A 
ATOM     34  H   UNL     1      10.831   6.186  -3.919  0.00  0.00    +0.156 HD
ENDROOT
BRANCH  16  18
ATOM     18  C   UNL     1      10.627   5.891   3.482  0.00  0.00    -0.012 A 
ATOM     19  C   UNL     1      10.977   5.655   4.813  0.00  0.00    +0.017 A 
ATOM     21  C   UNL     1       9.513   6.672   3.185  0.00  0.00    +0.009 A 
ATOM     22  C   UNL     1      10.216   6.196   5.862  0.00  0.00    -0.017 A 
ATOM     23  C   UNL     1       8.745   7.217   4.214  0.00  0.00    +0.009 A 
ATOM     24  C   UNL     1       9.084   6.990   5.558  0.00  0.00    -0.018 A 
ATOM     27  C   UNL     1      10.553   5.968   7.206  0.00  0.00    +0.008 A 
ATOM     28  C   UNL     1       8.323   7.531   6.607  0.00  0.00    +0.008 A 
ATOM     31  C   UNL     1       9.786   6.514   8.235  0.00  0.00    +0.001 A 
ATOM     32  C   UNL     1       8.672   7.294   7.936  0.00  0.00    +0.001 A 
ENDBRANCH  16  18
BRANCH   5  20
ATOM     20  C   UNL     1       8.940   6.305  -3.119  0.00  0.00    +0.035 A 
ATOM     25  C   UNL     1       7.842   5.821  -3.825  0.00  0.00    +0.023 A 
ATOM     26  C   UNL     1       8.799   7.383  -2.251  0.00  0.00    +0.023 A 
ATOM     29  C   UNL     1       6.593   6.419  -3.661  0.00  0.00    +0.002 A 
ATOM     30  C   UNL     1       7.549   7.982  -2.086  0.00  0.00    +0.002 A 
ATOM     33  C   UNL     1       6.447   7.501  -2.791  0.00  0.00    +0.000 A 
ENDBRANCH   5  20
TORSDOF 2
ENDMDL
MODEL 4
REMARK VINA RESULT:      -7.8     26.394     30.441
REMARK  Name = 7143719
REMARK  2 active torsions:
REMARK  status: ('A' for Active; 'I' for Inactive)
REMARK    1  A    between atoms: N_5  and  C_20
REMARK    2  A    between atoms: C_16  and  C_18
REMARK                            x       y       z     vdW  Elec       q    Type
REMARK                         _______ _______ _______ _____ _____    ______ ____
ROOT
ATOM      1  O   UNL     1     -14.818   9.298  19.529  0.00  0.00    -0.267 OA
ATOM      2  O   UNL     1     -10.999   7.753  15.455  0.00  0.00    -0.252 OA
ATOM      3  N   UNL     1     -12.608   9.821  18.995  0.00  0.00    -0.311 N 
ATOM      4  N   UNL     1     -11.164   9.955  16.150  0.00  0.00    -0.284 N 
ATOM      5  N   UNL     1     -12.731   9.058  14.632  0.00  0.00    -0.269 N 
ATOM      6  C   UNL     1     -11.980  11.851  17.571  0.00  0.00    +0.027 C 
ATOM      7  C   UNL     1     -10.217  10.363  18.416  0.00  0.00    +0.054 C 
ATOM      8  C   UNL     1     -10.667  11.820  18.343  0.00  0.00    +0.018 C 
ATOM      9  C   UNL     1     -13.037  11.078  18.367  0.00  0.00    +0.130 C 
ATOM     10  C   UNL     1     -11.800  11.282  16.149  0.00  0.00    +0.114 C 
ATOM     11  C   UNL     1      -9.965   9.840  16.990  0.00  0.00    +0.119 C 
ATOM     12  C   UNL     1     -11.254   9.496  19.106  0.00  0.00    +0.027 A 
ATOM     13  C   UNL     1     -10.877   8.404  19.788  0.00  0.00    +0.022 A 
ATOM     14  C   UNL     1     -13.616   9.024  19.572  0.00  0.00    +0.259 A 
ATOM     15  C   UNL     1     -11.599   8.831  15.412  0.00  0.00    +0.306 C 
ATOM     16  C   UNL     1     -13.166   7.785  20.297  0.00  0.00    +0.047 A 
ATOM     17  C   UNL     1     -11.851   7.535  20.387  0.00  0.00    +0.015 A 
ATOM     34  H   UNL     1     -12.903  10.000  14.298  0.00  0.00    +0.156 HD
ENDROOT
BRANCH  16  18
ATOM     18  C   UNL     1     -14.139   6.852  20.891  0.00  0.00    -0.012 A 
ATOM     19  C   UNL     1     -13.842   6.200  22.089  0.00  0.00    +0.017 A 
ATOM     21  C   UNL     1     -15.356   6.619  20.257  0.00  0.00    +0.009 A 
ATOM     22  C   UNL     1     -14.759   5.307  22.667  0.00  0.00    -0.017 A 
ATOM     23  C   UNL     1     -16.279   5.735  20.816  0.00  0.00    +0.009 A 
ATOM     24  C   UNL     1     -15.996   5.072  22.022  0.00  0.00    -0.018 A 
ATOM     27  C   UNL     1     -14.476   4.643  23.871  0.00  0.00    +0.008 A 
ATOM     28  C   UNL     1     -16.913   4.179  22.600  0.00  0.00    +0.008 A 
ATOM     31  C   UNL     1     -15.399   3.760  24.432  0.00  0.00    +0.001 A 
ATOM     32  C   UNL     1     -16.615   3.527  23.796  0.00  0.00    +0.001 A 
ENDBRANCH  16  18
BRANCH   5  20
ATOM     20  C   UNL     1     -13.677   8.097  14.195  0.00  0.00    +0.035 A 
ATOM     25  C   UNL     1     -13.507   7.469  12.964  0.00  0.00    +0.023 A 
ATOM     26  C   UNL     1     -14.770   7.787  14.998  0.00  0.00    +0.023 A 
ATOM     29  C   UNL     1     -14.436   6.523  12.534  0.00  0.00    +0.002 A 
ATOM     30  C   UNL     1     -15.699   6.839  14.569  0.00  0.00    +0.002 A 
ATOM     33  C   UNL     1     -15.534   6.208  13.337  0.00  0.00    +0.000 A 
ENDBRANCH   5  20
TORSDOF 2
ENDMDL
MODEL 5
REMARK VINA RESULT:      -7.6      2.936      6.662
REMARK  Name = 7143719
REMARK  2 active torsions:
REMARK  status: ('A' for Active; 'I' for Inactive)
REMARK    1  A    between atoms: N_5  and  C_20
REMARK    2  A    between atoms: C_16  and  C_18
REMARK                            x       y       z     vdW  Elec       q    Type
REMARK                         _______ _______ _______ _____ _____    ______ ____
ROOT
ATOM      1  O   UNL     1      10.138   5.499   3.457  0.00  0.00    -0.267 OA
ATOM      2  O   UNL     1      15.116   7.487   1.259  0.00  0.00    -0.252 OA
ATOM      3  N   UNL     1      11.434   5.090   1.561  0.00  0.00    -0.311 N 
ATOM      4  N   UNL     1      14.600   5.232   1.175  0.00  0.00    -0.284 N 
ATOM      5  N   UNL     1      15.412   6.200   3.166  0.00  0.00    -0.269 N 
ATOM      6  C   UNL     1      13.157   3.202   1.454  0.00  0.00    +0.027 C 
ATOM      7  C   UNL     1      12.835   4.671  -0.489  0.00  0.00    +0.054 C 
ATOM      8  C   UNL     1      12.877   3.211  -0.043  0.00  0.00    +0.018 C 
ATOM      9  C   UNL     1      11.985   3.876   2.177  0.00  0.00    +0.130 C 
ATOM     10  C   UNL     1      14.500   3.891   1.771  0.00  0.00    +0.114 C 
ATOM     11  C   UNL     1      14.211   5.315  -0.239  0.00  0.00    +0.119 C 
ATOM     12  C   UNL     1      11.762   5.446   0.252  0.00  0.00    +0.027 A 
ATOM     13  C   UNL     1      11.155   6.490  -0.334  0.00  0.00    +0.022 A 
ATOM     14  C   UNL     1      10.482   5.806   2.313  0.00  0.00    +0.259 A 
ATOM     15  C   UNL     1      15.046   6.398   1.836  0.00  0.00    +0.306 C 
ATOM     16  C   UNL     1       9.848   6.995   1.644  0.00  0.00    +0.047 A 
ATOM     17  C   UNL     1      10.189   7.277   0.377  0.00  0.00    +0.015 A 
ATOM     34  H   UNL     1      15.748   5.284   3.441  0.00  0.00    +0.156 HD
ENDROOT
BRANCH  16  18
ATOM     18  C   UNL     1       8.881   7.847   2.357  0.00  0.00    -0.012 A 
ATOM     19  C   UNL     1       8.043   8.704   1.642  0.00  0.00    +0.017 A 
ATOM     21  C   UNL     1       8.801   7.798   3.747  0.00  0.00    +0.009 A 
ATOM     22  C   UNL     1       7.116   9.522   2.308  0.00  0.00    -0.017 A 
ATOM     23  C   UNL     1       7.887   8.604   4.425  0.00  0.00    +0.009 A 
ATOM     24  C   UNL     1       7.036   9.471   3.720  0.00  0.00    -0.018 A 
ATOM     27  C   UNL     1       6.266  10.391   1.604  0.00  0.00    +0.008 A 
ATOM     28  C   UNL     1       6.109  10.290   4.386  0.00  0.00    +0.008 A 
ATOM     31  C   UNL     1       5.350  11.196   2.281  0.00  0.00    +0.001 A 
ATOM     32  C   UNL     1       5.273  11.147   3.670  0.00  0.00    +0.001 A 
ENDBRANCH  16  18
BRANCH   5  20
ATOM     20  C   UNL     1      15.417   7.164   4.205  0.00  0.00    +0.035 A 
ATOM     25  C   UNL     1      16.575   7.890   4.471  0.00  0.00    +0.023 A 
ATOM     26  C   UNL     1      14.264   7.380   4.954  0.00  0.00    +0.023 A 
ATOM     29  C   UNL     1      16.580   8.839   5.492  0.00  0.00    +0.002 A 
ATOM     30  C   UNL     1      14.268   8.330   5.976  0.00  0.00    +0.002 A 
ATOM     33  C   UNL     1      15.426   9.059   6.246  0.00  0.00    +0.000 A 
ENDBRANCH   5  20
TORSDOF 2
ENDMDL
MODEL 6
REMARK VINA RESULT:      -7.6     25.779     28.616
REMARK  Name = 7143719
REMARK  2 active torsions:
REMARK  status: ('A' for Active; 'I' for Inactive)
REMARK    1  A    between atoms: N_5  and  C_20
REMARK    2  A    between atoms: C_16  and  C_18
REMARK                            x       y       z     vdW  Elec       q    Type
REMARK                         _______ _______ _______ _____ _____    ______ ____
ROOT
ATOM      1  O   UNL     1      -6.965 -12.489  14.465  0.00  0.00    -0.267 OA
ATOM      2  O   UNL     1      -9.539  -8.546  17.840  0.00  0.00    -0.252 OA
ATOM      3  N   UNL     1      -7.086 -12.037  16.750  0.00  0.00    -0.311 N 
ATOM      4  N   UNL     1      -9.464 -10.773  18.465  0.00  0.00    -0.284 N 
ATOM      5  N   UNL     1     -11.034 -10.031  16.870  0.00  0.00    -0.269 N 
ATOM      6  C   UNL     1      -8.781 -13.178  18.290  0.00  0.00    +0.027 C 
ATOM      7  C   UNL     1      -7.212 -11.528  19.213  0.00  0.00    +0.054 C 
ATOM      8  C   UNL     1      -7.743 -12.949  19.382  0.00  0.00    +0.018 C 
ATOM      9  C   UNL     1      -8.085 -13.100  16.927  0.00  0.00    +0.130 C 
ATOM     10  C   UNL     1      -9.938 -12.165  18.405  0.00  0.00    +0.114 C 
ATOM     11  C   UNL     1      -8.369 -10.530  19.412  0.00  0.00    +0.119 C 
ATOM     12  C   UNL     1      -6.589 -11.326  17.845  0.00  0.00    +0.027 A 
ATOM     13  C   UNL     1      -5.591 -10.445  17.678  0.00  0.00    +0.022 A 
ATOM     14  C   UNL     1      -6.579 -11.853  15.448  0.00  0.00    +0.259 A 
ATOM     15  C   UNL     1      -9.982  -9.692  17.719  0.00  0.00    +0.306 C 
ATOM     16  C   UNL     1      -5.488 -10.830  15.287  0.00  0.00    +0.047 A 
ATOM     17  C   UNL     1      -5.039 -10.192  16.378  0.00  0.00    +0.015 A 
ATOM     34  H   UNL     1     -11.620 -10.819  17.122  0.00  0.00    +0.156 HD
ENDROOT
BRANCH  16  18
ATOM     18  C   UNL     1      -4.925 -10.518  13.962  0.00  0.00    -0.012 A 
ATOM     19  C   UNL     1      -5.683  -9.811  13.028  0.00  0.00    +0.017 A 
ATOM     21  C   UNL     1      -3.633 -10.928  13.641  0.00  0.00    +0.009 A 
ATOM     22  C   UNL     1      -5.159  -9.506  11.761  0.00  0.00    -0.017 A 
ATOM     23  C   UNL     1      -3.097 -10.634  12.387  0.00  0.00    +0.009 A 
ATOM     24  C   UNL     1      -3.847  -9.923  11.436  0.00  0.00    -0.018 A 
ATOM     27  C   UNL     1      -5.909  -8.795  10.810  0.00  0.00    +0.008 A 
ATOM     28  C   UNL     1      -3.323  -9.618  10.169  0.00  0.00    +0.008 A 
ATOM     31  C   UNL     1      -5.373  -8.500   9.556  0.00  0.00    +0.001 A 
ATOM     32  C   UNL     1      -4.083  -8.912   9.236  0.00  0.00    +0.001 A 
ENDBRANCH  16  18
BRANCH   5  20
ATOM     20  C   UNL     1     -11.428  -9.361  15.685  0.00  0.00    +0.035 A 
ATOM     25  C   UNL     1     -12.417  -8.382  15.738  0.00  0.00    +0.023 A 
ATOM     26  C   UNL     1     -10.824  -9.685  14.474  0.00  0.00    +0.023 A 
ATOM     29  C   UNL     1     -12.804  -7.722  14.573  0.00  0.00    +0.002 A 
ATOM     30  C   UNL     1     -11.210  -9.023  13.307  0.00  0.00    +0.002 A 
ATOM     33  C   UNL     1     -12.200  -8.043  13.356  0.00  0.00    +0.000 A 
ENDBRANCH   5  20
TORSDOF 2
ENDMDL
MODEL 7
REMARK VINA RESULT:      -7.5     24.440     27.991
REMARK  Name = 7143719
REMARK  2 active torsions:
REMARK  status: ('A' for Active; 'I' for Inactive)
REMARK    1  A    between atoms: N_5  and  C_20
REMARK    2  A    between atoms: C_16  and  C_18
REMARK                            x       y       z     vdW  Elec       q    Type
REMARK                         _______ _______ _______ _____ _____    ______ ____
ROOT
ATOM      1  O   UNL     1      16.978  -2.471  29.757  0.00  0.00    -0.267 OA
ATOM      2  O   UNL     1      20.242  -3.889  25.186  0.00  0.00    -0.252 OA
ATOM      3  N   UNL     1      19.241  -2.865  29.350  0.00  0.00    -0.311 N 
ATOM      4  N   UNL     1      20.975  -2.323  26.724  0.00  0.00    -0.284 N 
ATOM      5  N   UNL     1      19.401  -1.730  25.070  0.00  0.00    -0.269 N 
ATOM      6  C   UNL     1      20.896  -0.981  28.839  0.00  0.00    +0.027 C 
ATOM      7  C   UNL     1      21.679  -3.309  28.899  0.00  0.00    +0.054 C 
ATOM      8  C   UNL     1      21.937  -1.910  29.452  0.00  0.00    +0.018 C 
ATOM      9  C   UNL     1      19.506  -1.420  29.315  0.00  0.00    +0.130 C 
ATOM     10  C   UNL     1      21.001  -0.969  27.301  0.00  0.00    +0.114 C 
ATOM     11  C   UNL     1      21.869  -3.291  27.371  0.00  0.00    +0.119 C 
ATOM     12  C   UNL     1      20.280  -3.791  29.238  0.00  0.00    +0.027 A 
ATOM     13  C   UNL     1      20.035  -5.101  29.393  0.00  0.00    +0.022 A 
ATOM     14  C   UNL     1      17.915  -3.260  29.613  0.00  0.00    +0.259 A 
ATOM     15  C   UNL     1      20.195  -2.735  25.621  0.00  0.00    +0.306 C 
ATOM     16  C   UNL     1      17.663  -4.738  29.743  0.00  0.00    +0.047 A 
ATOM     17  C   UNL     1      18.705  -5.578  29.644  0.00  0.00    +0.015 A 
ATOM     34  H   UNL     1      19.713  -0.770  25.159  0.00  0.00    +0.156 HD
ENDROOT
BRANCH  16  18
ATOM     18  C   UNL     1      16.306  -5.265  29.963  0.00  0.00    -0.012 A 
ATOM     19  C   UNL     1      15.536  -4.793  31.028  0.00  0.00    +0.017 A 
ATOM     21  C   UNL     1      15.788  -6.234  29.108  0.00  0.00    +0.009 A 
ATOM     22  C   UNL     1      14.240  -5.286  31.251  0.00  0.00    -0.017 A 
ATOM     23  C   UNL     1      14.503  -6.736  29.314  0.00  0.00    +0.009 A 
ATOM     24  C   UNL     1      13.715  -6.272  30.381  0.00  0.00    -0.018 A 
ATOM     27  C   UNL     1      13.453  -4.823  32.318  0.00  0.00    +0.008 A 
ATOM     28  C   UNL     1      12.419  -6.765  30.604  0.00  0.00    +0.008 A 
ATOM     31  C   UNL     1      12.167  -5.324  32.524  0.00  0.00    +0.001 A 
ATOM     32  C   UNL     1      11.652  -6.294  31.669  0.00  0.00    +0.001 A 
ENDBRANCH  16  18
BRANCH   5  20
ATOM     20  C   UNL     1      18.200  -1.893  24.338  0.00  0.00    +0.035 A 
ATOM     25  C   UNL     1      18.074  -1.318  23.076  0.00  0.00    +0.023 A 
ATOM     26  C   UNL     1      17.151  -2.628  24.884  0.00  0.00    +0.023 A 
ATOM     29  C   UNL     1      16.891  -1.479  22.355  0.00  0.00    +0.002 A 
ATOM     30  C   UNL     1      15.968  -2.790  24.162  0.00  0.00    +0.002 A 
ATOM     33  C   UNL     1      15.838  -2.215  22.898  0.00  0.00    +0.000 A 
ENDBRANCH   5  20
TORSDOF 2
ENDMDL
MODEL 8
REMARK VINA RESULT:      -7.3     24.119     26.219
REMARK  Name = 7143719
REMARK  2 active torsions:
REMARK  status: ('A' for Active; 'I' for Inactive)
REMARK    1  A    between atoms: N_5  and  C_20
REMARK    2  A    between atoms: C_16  and  C_18
REMARK                            x       y       z     vdW  Elec       q    Type
REMARK                         _______ _______ _______ _____ _____    ______ ____
ROOT
ATOM      1  O   UNL     1      -5.870 -12.325  10.945  0.00  0.00    -0.267 OA
ATOM      2  O   UNL     1      -3.799  -9.922  15.792  0.00  0.00    -0.252 OA
ATOM      3  N   UNL     1      -3.866 -12.378  12.138  0.00  0.00    -0.311 N 
ATOM      4  N   UNL     1      -3.344 -12.132  15.278  0.00  0.00    -0.284 N 
ATOM      5  N   UNL     1      -5.430 -11.522  16.193  0.00  0.00    -0.269 N 
ATOM      6  C   UNL     1      -3.335 -14.196  13.857  0.00  0.00    +0.027 C 
ATOM      7  C   UNL     1      -1.703 -12.412  13.427  0.00  0.00    +0.054 C 
ATOM      8  C   UNL     1      -1.880 -13.926  13.496  0.00  0.00    +0.018 C 
ATOM      9  C   UNL     1      -4.227 -13.675  12.724  0.00  0.00    +0.130 C 
ATOM     10  C   UNL     1      -3.698 -13.559  15.214  0.00  0.00    +0.114 C 
ATOM     11  C   UNL     1      -1.990 -11.806  14.813  0.00  0.00    +0.119 C 
ATOM     12  C   UNL     1      -2.624 -11.792  12.393  0.00  0.00    +0.027 A 
ATOM     13  C   UNL     1      -2.265 -10.668  11.754  0.00  0.00    +0.022 A 
ATOM     14  C   UNL     1      -4.782 -11.817  11.226  0.00  0.00    +0.259 A 
ATOM     15  C   UNL     1      -4.177 -11.096  15.756  0.00  0.00    +0.306 C 
ATOM     16  C   UNL     1      -4.368 -10.536  10.554  0.00  0.00    +0.047 A 
ATOM     17  C   UNL     1      -3.155 -10.031  10.826  0.00  0.00    +0.015 A 
ATOM     34  H   UNL     1      -5.520 -12.468  16.546  0.00  0.00    +0.156 HD
ENDROOT
BRANCH  16  18
ATOM     18  C   UNL     1      -5.270  -9.835   9.625  0.00  0.00    -0.012 A 
ATOM     19  C   UNL     1      -5.315 -10.205   8.280  0.00  0.00    +0.017 A 
ATOM     21  C   UNL     1      -6.081  -8.802  10.088  0.00  0.00    +0.009 A 
ATOM     22  C   UNL     1      -6.170  -9.546   7.382  0.00  0.00    -0.017 A 
ATOM     23  C   UNL     1      -6.936  -8.136   9.210  0.00  0.00    +0.009 A 
ATOM     24  C   UNL     1      -6.993  -8.496   7.853  0.00  0.00    -0.018 A 
ATOM     27  C   UNL     1      -6.227  -9.906   6.025  0.00  0.00    +0.008 A 
ATOM     28  C   UNL     1      -7.848  -7.837   6.955  0.00  0.00    +0.008 A 
ATOM     31  C   UNL     1      -7.082  -9.241   5.147  0.00  0.00    +0.001 A 
ATOM     32  C   UNL     1      -7.891  -8.208   5.611  0.00  0.00    +0.001 A 
ENDBRANCH  16  18
BRANCH   5  20
ATOM     20  C   UNL     1      -6.621 -10.757  16.252  0.00  0.00    +0.035 A 
ATOM     25  C   UNL     1      -7.423 -10.636  15.121  0.00  0.00    +0.023 A 
ATOM     26  C   UNL     1      -6.983 -10.129  17.441  0.00  0.00    +0.023 A 
ATOM     29  C   UNL     1      -8.596  -9.884  15.178  0.00  0.00    +0.002 A 
ATOM     30  C   UNL     1      -8.157  -9.377  17.499  0.00  0.00    +0.002 A 
ATOM     33  C   UNL     1      -8.963  -9.254  16.368  0.00  0.00    +0.000 A 
ENDBRANCH   5  20
TORSDOF 2
ENDMDL
MODEL 9
REMARK VINA RESULT:      -7.3     31.950     34.578
REMARK  Name = 7143719
REMARK  2 active torsions:
REMARK  status: ('A' for Active; 'I' for Inactive)
REMARK    1  A    between atoms: N_5  and  C_20
REMARK    2  A    between atoms: C_16  and  C_18
REMARK                            x       y       z     vdW  Elec       q    Type
REMARK                         _______ _______ _______ _____ _____    ______ ____
ROOT
ATOM      1  O   UNL     1       8.867 -11.947  32.090  0.00  0.00    -0.267 OA
ATOM      2  O   UNL     1       4.630  -9.045  34.770  0.00  0.00    -0.252 OA
ATOM      3  N   UNL     1       8.392  -9.717  32.583  0.00  0.00    -0.311 N 
ATOM      4  N   UNL     1       6.847  -8.454  35.076  0.00  0.00    -0.284 N 
ATOM      5  N   UNL     1       5.932 -10.302  36.221  0.00  0.00    -0.269 N 
ATOM      6  C   UNL     1       9.316  -8.540  34.658  0.00  0.00    +0.027 C 
ATOM      7  C   UNL     1       7.858  -7.313  33.107  0.00  0.00    +0.054 C 
ATOM      8  C   UNL     1       9.206  -7.270  33.823  0.00  0.00    +0.018 C 
ATOM      9  C   UNL     1       9.328  -9.748  33.715  0.00  0.00    +0.130 C 
ATOM     10  C   UNL     1       8.173  -8.626  35.689  0.00  0.00    +0.114 C 
ATOM     11  C   UNL     1       6.730  -7.315  34.156  0.00  0.00    +0.119 C 
ATOM     12  C   UNL     1       7.739  -8.538  32.220  0.00  0.00    +0.027 A 
ATOM     13  C   UNL     1       6.983  -8.500  31.112  0.00  0.00    +0.022 A 
ATOM     14  C   UNL     1       8.276 -10.899  31.824  0.00  0.00    +0.259 A 
ATOM     15  C   UNL     1       5.715  -9.265  35.315  0.00  0.00    +0.306 C 
ATOM     16  C   UNL     1       7.390 -10.836  30.610  0.00  0.00    +0.047 A 
ATOM     17  C   UNL     1       6.804  -9.670  30.301  0.00  0.00    +0.015 A 
ATOM     34  H   UNL     1       6.644 -10.177  36.932  0.00  0.00    +0.156 HD
ENDROOT
BRANCH  16  18
ATOM     18  C   UNL     1       7.154 -12.027  29.775  0.00  0.00    -0.012 A 
ATOM     19  C   UNL     1       6.047 -12.842  30.018  0.00  0.00    +0.017 A 
ATOM     21  C   UNL     1       8.034 -12.340  28.743  0.00  0.00    +0.009 A 
ATOM     22  C   UNL     1       5.808 -13.981  29.231  0.00  0.00    -0.017 A 
ATOM     23  C   UNL     1       7.813 -13.468  27.952  0.00  0.00    +0.009 A 
ATOM     24  C   UNL     1       6.704 -14.299  28.182  0.00  0.00    -0.018 A 
ATOM     27  C   UNL     1       4.700 -14.812  29.461  0.00  0.00    +0.008 A 
ATOM     28  C   UNL     1       6.465 -15.437  27.396  0.00  0.00    +0.008 A 
ATOM     31  C   UNL     1       4.478 -15.939  28.670  0.00  0.00    +0.001 A 
ATOM     32  C   UNL     1       5.359 -16.252  27.640  0.00  0.00    +0.001 A 
ENDBRANCH  16  18
BRANCH   5  20
ATOM     20  C   UNL     1       5.226 -11.527  36.305  0.00  0.00    +0.035 A 
ATOM     25  C   UNL     1       5.494 -12.544  35.392  0.00  0.00    +0.023 A 
ATOM     26  C   UNL     1       4.269 -11.708  37.299  0.00  0.00    +0.023 A 
ATOM     29  C   UNL     1       4.800 -13.751  35.474  0.00  0.00    +0.002 A 
ATOM     30  C   UNL     1       3.576 -12.916  37.382  0.00  0.00    +0.002 A 
ATOM     33  C   UNL     1       3.840 -13.937  36.470  0.00  0.00    +0.000 A 
ENDBRANCH   5  20
TORSDOF 2
ENDMDL
MODEL 10
REMARK VINA RESULT:      -7.3     30.053     32.824
REMARK  Name = 7143719
REMARK  2 active torsions:
REMARK  status: ('A' for Active; 'I' for Inactive)
REMARK    1  A    between atoms: N_5  and  C_20
REMARK    2  A    between atoms: C_16  and  C_18
REMARK                            x       y       z     vdW  Elec       q    Type
REMARK                         _______ _______ _______ _____ _____    ______ ____
ROOT
ATOM      1  O   UNL     1       7.351  -7.997  31.710  0.00  0.00    -0.267 OA
ATOM      2  O   UNL     1      12.093  -7.016  34.891  0.00  0.00    -0.252 OA
ATOM      3  N   UNL     1       7.820  -7.492  33.938  0.00  0.00    -0.311 N 
ATOM      4  N   UNL     1      10.182  -5.746  35.190  0.00  0.00    -0.284 N 
ATOM      5  N   UNL     1      11.636  -5.311  33.386  0.00  0.00    -0.269 N 
ATOM      6  C   UNL     1       7.785  -5.100  34.844  0.00  0.00    +0.027 C 
ATOM      7  C   UNL     1       8.342  -6.964  36.345  0.00  0.00    +0.054 C 
ATOM      8  C   UNL     1       7.430  -5.751  36.175  0.00  0.00    +0.018 C 
ATOM      9  C   UNL     1       7.463  -6.085  33.714  0.00  0.00    +0.130 C 
ATOM     10  C   UNL     1       9.263  -4.659  34.819  0.00  0.00    +0.114 C 
ATOM     11  C   UNL     1       9.806  -6.491  36.399  0.00  0.00    +0.119 C 
ATOM     12  C   UNL     1       8.163  -7.955  35.210  0.00  0.00    +0.027 A 
ATOM     13  C   UNL     1       8.367  -9.265  35.418  0.00  0.00    +0.022 A 
ATOM     14  C   UNL     1       7.690  -8.362  32.838  0.00  0.00    +0.259 A 
ATOM     15  C   UNL     1      11.365  -6.098  34.504  0.00  0.00    +0.306 C 
ATOM     16  C   UNL     1       7.963  -9.820  33.093  0.00  0.00    +0.047 A 
ATOM     17  C   UNL     1       8.270 -10.207  34.340  0.00  0.00    +0.015 A 
ATOM     34  H   UNL     1      11.289  -4.358  33.373  0.00  0.00    +0.156 HD
ENDROOT
BRANCH  16  18
ATOM     18  C   UNL     1       7.910 -10.808  32.002  0.00  0.00    -0.012 A 
ATOM     19  C   UNL     1       6.719 -11.479  31.724  0.00  0.00    +0.017 A 
ATOM     21  C   UNL     1       9.050 -11.075  31.248  0.00  0.00    +0.009 A 
ATOM     22  C   UNL     1       6.652 -12.425  30.687  0.00  0.00    -0.017 A 
ATOM     23  C   UNL     1       9.003 -12.011  30.215  0.00  0.00    +0.009 A 
ATOM     24  C   UNL     1       7.811 -12.695  29.921  0.00  0.00    -0.018 A 
ATOM     27  C   UNL     1       5.462 -13.109  30.394  0.00  0.00    +0.008 A 
ATOM     28  C   UNL     1       7.745 -13.641  28.885  0.00  0.00    +0.008 A 
ATOM     31  C   UNL     1       5.414 -14.045  29.361  0.00  0.00    +0.001 A 
ATOM     32  C   UNL     1       6.554 -14.311  28.608  0.00  0.00    +0.001 A 
ENDBRANCH  16  18
BRANCH   5  20
ATOM     20  C   UNL     1      12.401  -5.673  32.249  0.00  0.00    +0.035 A 
ATOM     25  C   UNL     1      13.607  -5.027  31.992  0.00  0.00    +0.023 A 
ATOM     26  C   UNL     1      11.942  -6.673  31.397  0.00  0.00    +0.023 A 
ATOM     29  C   UNL     1      14.361  -5.384  30.874  0.00  0.00    +0.002 A 
ATOM     30  C   UNL     1      12.696  -7.031  30.279  0.00  0.00    +0.002 A 
ATOM     33  C   UNL     1      13.905  -6.386  30.017  0.00  0.00    +0.000 A 
ENDBRANCH   5  20
TORSDOF 2
ENDMDL
