MODEL 1
REMARK VINA RESULT:      -7.0      0.000      0.000
REMARK  Name = 45783993
REMARK  14 active torsions:
REMARK  status: ('A' for Active; 'I' for Inactive)
REMARK    1  A    between atoms: O_2  and  C_28
REMARK    2  A    between atoms: O_2  and  C_31
REMARK    3  A    between atoms: N_5  and  C_15
REMARK    4  A    between atoms: N_6  and  C_27
REMARK    5  A    between atoms: N_9  and  C_36
REMARK    6  A    between atoms: C_10  and  C_14
REMARK    7  A    between atoms: C_11  and  C_15
REMARK    8  A    between atoms: C_13  and  C_18
REMARK    9  A    between atoms: C_14  and  C_21
REMARK   10  A    between atoms: C_14  and  C_22
REMARK   11  A    between atoms: C_17  and  C_25
REMARK   12  A    between atoms: C_18  and  C_26
REMARK   13  A    between atoms: C_27  and  C_28
REMARK   14  A    between atoms: C_29  and  C_30
REMARK                            x       y       z     vdW  Elec       q    Type
REMARK                         _______ _______ _______ _____ _____    ______ ____
ROOT
ATOM     10  C   UNL     1      -5.407 -10.447  10.709  0.00  0.00    +0.000 C 
ATOM     11  C   UNL     1      -4.631 -10.089   9.419  0.00  0.00    +0.029 C 
ATOM     12  C   UNL     1      -4.484 -11.149  11.713  0.00  0.00    +0.012 C 
ATOM     13  C   UNL     1      -3.233 -10.320  12.079  0.00  0.00    +0.024 C 
ATOM     16  C   UNL     1      -3.271  -9.506   9.704  0.00  0.00    -0.023 C 
ATOM     17  C   UNL     1      -2.635  -9.588  10.887  0.00  0.00    -0.073 C 
ATOM     25  C   UNL     1      -1.316  -8.894  11.088  0.00  0.00    +0.039 C 
ENDROOT
BRANCH  10  14
ATOM     14  C   UNL     1      -6.061  -9.205  11.330  0.00  0.00    -0.013 C 
ATOM     21  C   UNL     1      -6.565  -9.517  12.735  0.00  0.00    +0.007 C 
ATOM     22  C   UNL     1      -7.199  -8.704  10.446  0.00  0.00    +0.007 C 
ENDBRANCH  10  14
BRANCH  11  15
ATOM     15  C   UNL     1      -4.477 -11.304   8.497  0.00  0.00    +0.092 C 
BRANCH  15   5
ATOM      5  N   UNL     1      -4.955 -10.996   7.152  0.00  0.00    -0.299 NA
ATOM      6  N   UNL     1      -6.550 -11.532   4.800  0.00  0.00    -0.298 NA
ATOM     19  C   UNL     1      -6.407 -10.784   7.150  0.00  0.00    +0.100 C 
ATOM     20  C   UNL     1      -4.592 -12.063   6.212  0.00  0.00    +0.100 C 
ATOM     23  C   UNL     1      -6.911 -10.463   5.739  0.00  0.00    +0.100 C 
ATOM     24  C   UNL     1      -5.096 -11.744   4.800  0.00  0.00    +0.100 C 
BRANCH   6  27
ATOM     27  C   UNL     1      -7.029 -11.225   3.454  0.00  0.00    +0.112 C 
BRANCH  27  28
ATOM     28  C   UNL     1      -7.769  -9.896   3.438  0.00  0.00    +0.174 C 
BRANCH  28   2
ATOM      2  O   UNL     1      -7.726  -9.365   2.120  0.00  0.00    -0.382 OA
ATOM     31  C   UNL     1      -7.973  -7.966   2.114  0.00  0.00    +0.194 C 
ENDBRANCH  28   2
ENDBRANCH  27  28
ENDBRANCH   6  27
ENDBRANCH  15   5
ENDBRANCH  11  15
BRANCH  13  18
ATOM     18  C   UNL     1      -2.226 -11.239  12.781  0.00  0.00    +0.105 C 
BRANCH  18  26
ATOM      1  O   UNL     1      -3.545 -11.342  14.831  0.00  0.00    -0.420 OA
ATOM      7  N   UNL     1      -1.392 -10.830  15.153  0.00  0.00    -0.112 NA
ATOM      8  N   UNL     1      -2.015 -10.855  16.387  0.00  0.00    -0.107 NA
ATOM     26  C   UNL     1      -2.323 -11.121  14.275  0.00  0.00    +0.218 A 
ATOM     29  C   UNL     1      -3.269 -11.157  16.151  0.00  0.00    +0.248 A 
BRANCH  29  30
ATOM     30  C   UNL     1      -4.373 -11.321  17.052  0.00  0.00    +0.039 A 
ATOM     32  C   UNL     1      -5.680 -11.181  16.585  0.00  0.00    +0.015 A 
ATOM     33  C   UNL     1      -4.140 -11.619  18.394  0.00  0.00    +0.015 A 
ATOM     34  C   UNL     1      -6.754 -11.340  17.461  0.00  0.00    +0.033 A 
ATOM     35  C   UNL     1      -5.214 -11.779  19.270  0.00  0.00    +0.033 A 
ATOM     36  C   UNL     1      -6.521 -11.639  18.803  0.00  0.00    +0.126 A 
BRANCH  36   9
ATOM      3  O   UNL     1      -8.325 -10.807  19.973  0.00  0.00    -0.126 OA
ATOM      4  O   UNL     1      -7.840 -12.938  20.177  0.00  0.00    -0.126 OA
ATOM      9  N   UNL     1      -7.614 -11.803  19.694  0.00  0.00    +0.056 N 
ENDBRANCH  36   9
ENDBRANCH  29  30
ENDBRANCH  18  26
ENDBRANCH  13  18
TORSDOF 10
ENDMDL
MODEL 2
REMARK VINA RESULT:      -6.9      1.733      2.083
REMARK  Name = 45783993
REMARK  14 active torsions:
REMARK  status: ('A' for Active; 'I' for Inactive)
REMARK    1  A    between atoms: O_2  and  C_28
REMARK    2  A    between atoms: O_2  and  C_31
REMARK    3  A    between atoms: N_5  and  C_15
REMARK    4  A    between atoms: N_6  and  C_27
REMARK    5  A    between atoms: N_9  and  C_36
REMARK    6  A    between atoms: C_10  and  C_14
REMARK    7  A    between atoms: C_11  and  C_15
REMARK    8  A    between atoms: C_13  and  C_18
REMARK    9  A    between atoms: C_14  and  C_21
REMARK   10  A    between atoms: C_14  and  C_22
REMARK   11  A    between atoms: C_17  and  C_25
REMARK   12  A    between atoms: C_18  and  C_26
REMARK   13  A    between atoms: C_27  and  C_28
REMARK   14  A    between atoms: C_29  and  C_30
REMARK                            x       y       z     vdW  Elec       q    Type
REMARK                         _______ _______ _______ _____ _____    ______ ____
ROOT
ATOM     10  C   UNL     1      -5.584 -10.799  11.216  0.00  0.00    +0.000 C 
ATOM     11  C   UNL     1      -5.015 -10.662   9.784  0.00  0.00    +0.029 C 
ATOM     12  C   UNL     1      -4.486 -11.247  12.190  0.00  0.00    +0.012 C 
ATOM     13  C   UNL     1      -3.264 -10.302  12.211  0.00  0.00    +0.024 C 
ATOM     16  C   UNL     1      -3.677  -9.969   9.756  0.00  0.00    -0.023 C 
ATOM     17  C   UNL     1      -2.886  -9.788  10.830  0.00  0.00    -0.073 C 
ATOM     25  C   UNL     1      -1.608  -9.005  10.706  0.00  0.00    +0.039 C 
ENDROOT
BRANCH  10  14
ATOM     14  C   UNL     1      -6.242  -9.494  11.683  0.00  0.00    -0.013 C 
ATOM     21  C   UNL     1      -6.821  -9.661  13.085  0.00  0.00    +0.007 C 
ATOM     22  C   UNL     1      -7.325  -9.061  10.700  0.00  0.00    +0.007 C 
ENDBRANCH  10  14
BRANCH  11  15
ATOM     15  C   UNL     1      -4.893 -12.024   9.092  0.00  0.00    +0.092 C 
BRANCH  15   5
ATOM      5  N   UNL     1      -4.488 -11.860   7.698  0.00  0.00    -0.299 NA
ATOM      6  N   UNL     1      -4.609 -12.525   4.886  0.00  0.00    -0.298 NA
ATOM     19  C   UNL     1      -5.628 -11.457   6.867  0.00  0.00    +0.100 C 
ATOM     20  C   UNL     1      -3.888 -13.097   7.181  0.00  0.00    +0.100 C 
ATOM     23  C   UNL     1      -5.206 -11.288   5.404  0.00  0.00    +0.100 C 
ATOM     24  C   UNL     1      -3.466 -12.928   5.717  0.00  0.00    +0.100 C 
BRANCH   6  27
ATOM     27  C   UNL     1      -4.204 -12.362   3.491  0.00  0.00    +0.112 C 
BRANCH  27  28
ATOM     28  C   UNL     1      -2.743 -12.743   3.309  0.00  0.00    +0.174 C 
BRANCH  28   2
ATOM      2  O   UNL     1      -2.413 -12.639   1.930  0.00  0.00    -0.382 OA
ATOM     31  C   UNL     1      -3.422 -13.208   1.108  0.00  0.00    +0.194 C 
ENDBRANCH  28   2
ENDBRANCH  27  28
ENDBRANCH   6  27
ENDBRANCH  15   5
ENDBRANCH  11  15
BRANCH  13  18
ATOM     18  C   UNL     1      -2.106 -11.017  12.919  0.00  0.00    +0.105 C 
BRANCH  18  26
ATOM      1  O   UNL     1      -3.464 -11.118  14.943  0.00  0.00    -0.420 OA
ATOM      7  N   UNL     1      -1.308 -10.652  15.310  0.00  0.00    -0.112 NA
ATOM      8  N   UNL     1      -1.953 -10.679  16.533  0.00  0.00    -0.107 NA
ATOM     26  C   UNL     1      -2.228 -10.914  14.412  0.00  0.00    +0.218 A 
ATOM     29  C   UNL     1      -3.209 -10.954  16.271  0.00  0.00    +0.248 A 
BRANCH  29  30
ATOM     30  C   UNL     1      -4.332 -11.106  17.149  0.00  0.00    +0.039 A 
ATOM     32  C   UNL     1      -5.456 -10.295  16.990  0.00  0.00    +0.015 A 
ATOM     33  C   UNL     1      -4.301 -12.063  18.162  0.00  0.00    +0.015 A 
ATOM     34  C   UNL     1      -6.548 -10.442  17.845  0.00  0.00    +0.033 A 
ATOM     35  C   UNL     1      -5.393 -12.212  19.017  0.00  0.00    +0.033 A 
ATOM     36  C   UNL     1      -6.517 -11.401  18.858  0.00  0.00    +0.126 A 
BRANCH  36   9
ATOM      3  O   UNL     1      -8.467 -10.621  19.810  0.00  0.00    -0.126 OA
ATOM      4  O   UNL     1      -7.746 -12.613  20.386  0.00  0.00    -0.126 OA
ATOM      9  N   UNL     1      -7.630 -11.552  19.727  0.00  0.00    +0.056 N 
ENDBRANCH  36   9
ENDBRANCH  29  30
ENDBRANCH  18  26
ENDBRANCH  13  18
TORSDOF 10
ENDMDL
MODEL 3
REMARK VINA RESULT:      -6.8     27.570     31.168
REMARK  Name = 45783993
REMARK  14 active torsions:
REMARK  status: ('A' for Active; 'I' for Inactive)
REMARK    1  A    between atoms: O_2  and  C_28
REMARK    2  A    between atoms: O_2  and  C_31
REMARK    3  A    between atoms: N_5  and  C_15
REMARK    4  A    between atoms: N_6  and  C_27
REMARK    5  A    between atoms: N_9  and  C_36
REMARK    6  A    between atoms: C_10  and  C_14
REMARK    7  A    between atoms: C_11  and  C_15
REMARK    8  A    between atoms: C_13  and  C_18
REMARK    9  A    between atoms: C_14  and  C_21
REMARK   10  A    between atoms: C_14  and  C_22
REMARK   11  A    between atoms: C_17  and  C_25
REMARK   12  A    between atoms: C_18  and  C_26
REMARK   13  A    between atoms: C_27  and  C_28
REMARK   14  A    between atoms: C_29  and  C_30
REMARK                            x       y       z     vdW  Elec       q    Type
REMARK                         _______ _______ _______ _____ _____    ______ ____
ROOT
ATOM     10  C   UNL     1      13.788   9.556  18.015  0.00  0.00    +0.000 C 
ATOM     11  C   UNL     1      12.675  10.161  18.902  0.00  0.00    +0.029 C 
ATOM     12  C   UNL     1      14.777   8.750  18.869  0.00  0.00    +0.012 C 
ATOM     13  C   UNL     1      14.104   7.627  19.688  0.00  0.00    +0.024 C 
ATOM     16  C   UNL     1      12.144   9.181  19.916  0.00  0.00    -0.023 C 
ATOM     17  C   UNL     1      12.761   8.039  20.272  0.00  0.00    -0.073 C 
ATOM     25  C   UNL     1      12.100   7.088  21.232  0.00  0.00    +0.039 C 
ENDROOT
BRANCH  10  14
ATOM     14  C   UNL     1      13.200   8.696  16.888  0.00  0.00    -0.013 C 
ATOM     21  C   UNL     1      14.189   8.587  15.731  0.00  0.00    +0.007 C 
ATOM     22  C   UNL     1      11.873   9.278  16.412  0.00  0.00    +0.007 C 
ENDBRANCH  10  14
BRANCH  11  15
ATOM     15  C   UNL     1      13.152  11.426  19.624  0.00  0.00    +0.092 C 
BRANCH  15   5
ATOM      5  N   UNL     1      12.769  11.391  21.033  0.00  0.00    -0.299 NA
ATOM      6  N   UNL     1      12.668  12.500  23.702  0.00  0.00    -0.298 NA
ATOM     19  C   UNL     1      11.881  12.513  21.360  0.00  0.00    +0.100 C 
ATOM     20  C   UNL     1      13.956  11.408  21.897  0.00  0.00    +0.100 C 
ATOM     23  C   UNL     1      11.481  12.480  22.839  0.00  0.00    +0.100 C 
ATOM     24  C   UNL     1      13.556  11.376  23.376  0.00  0.00    +0.100 C 
BRANCH   6  27
ATOM     27  C   UNL     1      12.285  12.466  25.112  0.00  0.00    +0.112 C 
BRANCH  27  28
ATOM     28  C   UNL     1      10.772  12.410  25.257  0.00  0.00    +0.174 C 
BRANCH  28   2
ATOM      2  O   UNL     1      10.296  13.707  25.590  0.00  0.00    -0.382 OA
ATOM     31  C   UNL     1      11.267  14.447  26.318  0.00  0.00    +0.194 C 
ENDBRANCH  28   2
ENDBRANCH  27  28
ENDBRANCH   6  27
ENDBRANCH  15   5
ENDBRANCH  11  15
BRANCH  13  18
ATOM     18  C   UNL     1      15.093   7.139  20.754  0.00  0.00    +0.105 C 
BRANCH  18  26
ATOM      1  O   UNL     1      17.474   6.613  20.833  0.00  0.00    -0.420 OA
ATOM      7  N   UNL     1      16.439   5.896  18.984  0.00  0.00    -0.112 NA
ATOM      8  N   UNL     1      17.770   5.533  18.897  0.00  0.00    -0.107 NA
ATOM     26  C   UNL     1      16.312   6.523  20.130  0.00  0.00    +0.218 A 
ATOM     29  C   UNL     1      18.336   5.971  19.996  0.00  0.00    +0.248 A 
BRANCH  29  30
ATOM     30  C   UNL     1      19.695   5.881  20.444  0.00  0.00    +0.039 A 
ATOM     32  C   UNL     1      20.344   7.014  20.936  0.00  0.00    +0.015 A 
ATOM     33  C   UNL     1      20.368   4.661  20.388  0.00  0.00    +0.015 A 
ATOM     34  C   UNL     1      21.666   6.926  21.373  0.00  0.00    +0.033 A 
ATOM     35  C   UNL     1      21.690   4.572  20.824  0.00  0.00    +0.033 A 
ATOM     36  C   UNL     1      22.339   5.705  21.317  0.00  0.00    +0.126 A 
BRANCH  36   9
ATOM      3  O   UNL     1      24.503   6.496  21.404  0.00  0.00    -0.126 OA
ATOM      4  O   UNL     1      24.016   4.659  22.503  0.00  0.00    -0.126 OA
ATOM      9  N   UNL     1      23.684   5.615  21.762  0.00  0.00    +0.056 N 
ENDBRANCH  36   9
ENDBRANCH  29  30
ENDBRANCH  18  26
ENDBRANCH  13  18
TORSDOF 10
ENDMDL
MODEL 4
REMARK VINA RESULT:      -6.5      4.117      6.283
REMARK  Name = 45783993
REMARK  14 active torsions:
REMARK  status: ('A' for Active; 'I' for Inactive)
REMARK    1  A    between atoms: O_2  and  C_28
REMARK    2  A    between atoms: O_2  and  C_31
REMARK    3  A    between atoms: N_5  and  C_15
REMARK    4  A    between atoms: N_6  and  C_27
REMARK    5  A    between atoms: N_9  and  C_36
REMARK    6  A    between atoms: C_10  and  C_14
REMARK    7  A    between atoms: C_11  and  C_15
REMARK    8  A    between atoms: C_13  and  C_18
REMARK    9  A    between atoms: C_14  and  C_21
REMARK   10  A    between atoms: C_14  and  C_22
REMARK   11  A    between atoms: C_17  and  C_25
REMARK   12  A    between atoms: C_18  and  C_26
REMARK   13  A    between atoms: C_27  and  C_28
REMARK   14  A    between atoms: C_29  and  C_30
REMARK                            x       y       z     vdW  Elec       q    Type
REMARK                         _______ _______ _______ _____ _____    ______ ____
ROOT
ATOM     10  C   UNL     1      -5.793  -9.827  11.792  0.00  0.00    +0.000 C 
ATOM     11  C   UNL     1      -6.519 -11.170  12.040  0.00  0.00    +0.029 C 
ATOM     12  C   UNL     1      -4.316  -9.933  12.195  0.00  0.00    +0.012 C 
ATOM     13  C   UNL     1      -3.562 -11.066  11.465  0.00  0.00    +0.024 C 
ATOM     16  C   UNL     1      -5.713 -12.358  11.580  0.00  0.00    -0.023 C 
ATOM     17  C   UNL     1      -4.395 -12.329  11.307  0.00  0.00    -0.073 C 
ATOM     25  C   UNL     1      -3.705 -13.554  10.771  0.00  0.00    +0.039 C 
ENDROOT
BRANCH  10  14
ATOM     14  C   UNL     1      -5.940  -9.373  10.334  0.00  0.00    -0.013 C 
ATOM     21  C   UNL     1      -5.141  -8.095  10.092  0.00  0.00    +0.007 C 
ATOM     22  C   UNL     1      -7.410  -9.164   9.986  0.00  0.00    +0.007 C 
ENDBRANCH  10  14
BRANCH  11  15
ATOM     15  C   UNL     1      -6.887 -11.351  13.517  0.00  0.00    +0.092 C 
BRANCH  15   5
ATOM      5  N   UNL     1      -7.812 -10.307  13.950  0.00  0.00    -0.299 NA
ATOM      6  N   UNL     1     -10.199  -9.376  15.290  0.00  0.00    -0.298 NA
ATOM     19  C   UNL     1      -7.896 -10.259  15.414  0.00  0.00    +0.100 C 
ATOM     20  C   UNL     1      -9.143 -10.515  13.367  0.00  0.00    +0.100 C 
ATOM     23  C   UNL     1      -8.868  -9.167  15.871  0.00  0.00    +0.100 C 
ATOM     24  C   UNL     1     -10.116  -9.423  13.823  0.00  0.00    +0.100 C 
BRANCH   6  27
ATOM     27  C   UNL     1     -11.126  -8.333  15.723  0.00  0.00    +0.112 C 
BRANCH  27  28
ATOM     28  C   UNL     1     -10.373  -7.186  16.380  0.00  0.00    +0.174 C 
BRANCH  28   2
ATOM      2  O   UNL     1     -10.392  -6.066  15.504  0.00  0.00    -0.382 OA
ATOM     31  C   UNL     1     -11.695  -5.830  14.988  0.00  0.00    +0.194 C 
ENDBRANCH  28   2
ENDBRANCH  27  28
ENDBRANCH   6  27
ENDBRANCH  15   5
ENDBRANCH  11  15
BRANCH  13  18
ATOM     18  C   UNL     1      -2.233 -11.315  12.188  0.00  0.00    +0.105 C 
BRANCH  18  26
ATOM      1  O   UNL     1      -3.466 -11.541  14.282  0.00  0.00    -0.420 OA
ATOM      7  N   UNL     1      -1.537 -10.424  14.471  0.00  0.00    -0.112 NA
ATOM      8  N   UNL     1      -2.124 -10.477  15.722  0.00  0.00    -0.107 NA
ATOM     26  C   UNL     1      -2.354 -11.058  13.663  0.00  0.00    +0.218 A 
ATOM     29  C   UNL     1      -3.247 -11.137  15.564  0.00  0.00    +0.248 A 
BRANCH  29  30
ATOM     30  C   UNL     1      -4.260 -11.493  16.515  0.00  0.00    +0.039 A 
ATOM     32  C   UNL     1      -4.897 -12.731  16.424  0.00  0.00    +0.015 A 
ATOM     33  C   UNL     1      -4.609 -10.602  17.530  0.00  0.00    +0.015 A 
ATOM     34  C   UNL     1      -5.882 -13.077  17.349  0.00  0.00    +0.033 A 
ATOM     35  C   UNL     1      -5.593 -10.948  18.455  0.00  0.00    +0.033 A 
ATOM     36  C   UNL     1      -6.230 -12.186  18.364  0.00  0.00    +0.126 A 
BRANCH  36   9
ATOM      3  O   UNL     1      -7.263 -11.946  20.412  0.00  0.00    -0.126 OA
ATOM      4  O   UNL     1      -8.058 -13.435  19.008  0.00  0.00    -0.126 OA
ATOM      9  N   UNL     1      -7.232 -12.539  19.307  0.00  0.00    +0.056 N 
ENDBRANCH  36   9
ENDBRANCH  29  30
ENDBRANCH  18  26
ENDBRANCH  13  18
TORSDOF 10
ENDMDL
MODEL 5
REMARK VINA RESULT:      -6.5      3.521      6.298
REMARK  Name = 45783993
REMARK  14 active torsions:
REMARK  status: ('A' for Active; 'I' for Inactive)
REMARK    1  A    between atoms: O_2  and  C_28
REMARK    2  A    between atoms: O_2  and  C_31
REMARK    3  A    between atoms: N_5  and  C_15
REMARK    4  A    between atoms: N_6  and  C_27
REMARK    5  A    between atoms: N_9  and  C_36
REMARK    6  A    between atoms: C_10  and  C_14
REMARK    7  A    between atoms: C_11  and  C_15
REMARK    8  A    between atoms: C_13  and  C_18
REMARK    9  A    between atoms: C_14  and  C_21
REMARK   10  A    between atoms: C_14  and  C_22
REMARK   11  A    between atoms: C_17  and  C_25
REMARK   12  A    between atoms: C_18  and  C_26
REMARK   13  A    between atoms: C_27  and  C_28
REMARK   14  A    between atoms: C_29  and  C_30
REMARK                            x       y       z     vdW  Elec       q    Type
REMARK                         _______ _______ _______ _____ _____    ______ ____
ROOT
ATOM     10  C   UNL     1      -3.576 -10.445  15.280  0.00  0.00    +0.000 C 
ATOM     11  C   UNL     1      -4.671 -11.190  14.481  0.00  0.00    +0.029 C 
ATOM     12  C   UNL     1      -3.966 -10.345  16.761  0.00  0.00    +0.012 C 
ATOM     13  C   UNL     1      -4.237 -11.717  17.417  0.00  0.00    +0.024 C 
ATOM     16  C   UNL     1      -5.175 -12.418  15.195  0.00  0.00    -0.023 C 
ATOM     17  C   UNL     1      -4.982 -12.677  16.502  0.00  0.00    -0.073 C 
ATOM     25  C   UNL     1      -5.455 -13.976  17.094  0.00  0.00    +0.039 C 
ENDROOT
BRANCH  10  14
ATOM     14  C   UNL     1      -2.206 -11.117  15.111  0.00  0.00    -0.013 C 
ATOM     21  C   UNL     1      -1.103 -10.224  15.673  0.00  0.00    +0.007 C 
ATOM     22  C   UNL     1      -1.947 -11.436  13.642  0.00  0.00    +0.007 C 
ENDBRANCH  10  14
BRANCH  11  15
ATOM     15  C   UNL     1      -5.855 -10.274  14.154  0.00  0.00    +0.092 C 
BRANCH  15   5
ATOM      5  N   UNL     1      -6.095 -10.233  12.714  0.00  0.00    -0.299 NA
ATOM      6  N   UNL     1      -6.163  -8.895  10.151  0.00  0.00    -0.298 NA
ATOM     19  C   UNL     1      -4.860  -9.910  11.988  0.00  0.00    +0.100 C 
ATOM     20  C   UNL     1      -7.149  -9.265  12.388  0.00  0.00    +0.100 C 
ATOM     23  C   UNL     1      -5.111  -9.864  10.477  0.00  0.00    +0.100 C 
ATOM     24  C   UNL     1      -7.400  -9.219  10.876  0.00  0.00    +0.100 C 
BRANCH   6  27
ATOM     27  C   UNL     1      -6.403  -8.853   8.710  0.00  0.00    +0.112 C 
BRANCH  27  28
ATOM     28  C   UNL     1      -7.756  -8.226   8.410  0.00  0.00    +0.174 C 
BRANCH  28   2
ATOM      2  O   UNL     1      -7.585  -6.824   8.249  0.00  0.00    -0.382 OA
ATOM     31  C   UNL     1      -8.831  -6.142   8.264  0.00  0.00    +0.194 C 
ENDBRANCH  28   2
ENDBRANCH  27  28
ENDBRANCH   6  27
ENDBRANCH  15   5
ENDBRANCH  11  15
BRANCH  13  18
ATOM     18  C   UNL     1      -4.955 -11.488  18.752  0.00  0.00    +0.105 C 
BRANCH  18  26
ATOM      1  O   UNL     1      -6.881 -10.344  17.783  0.00  0.00    -0.420 OA
ATOM      7  N   UNL     1      -7.407 -12.114  19.045  0.00  0.00    -0.112 NA
ATOM      8  N   UNL     1      -8.582 -11.568  18.563  0.00  0.00    -0.107 NA
ATOM     26  C   UNL     1      -6.440 -11.368  18.563  0.00  0.00    +0.218 A 
ATOM     29  C   UNL     1      -8.228 -10.537  17.833  0.00  0.00    +0.248 A 
BRANCH  29  30
ATOM     30  C   UNL     1      -9.024  -9.602  17.093  0.00  0.00    +0.039 A 
ATOM     32  C   UNL     1      -9.043  -9.653  15.698  0.00  0.00    +0.015 A 
ATOM     33  C   UNL     1      -9.778  -8.641  17.765  0.00  0.00    +0.015 A 
ATOM     34  C   UNL     1      -9.817  -8.744  14.978  0.00  0.00    +0.033 A 
ATOM     35  C   UNL     1     -10.553  -7.732  17.046  0.00  0.00    +0.033 A 
ATOM     36  C   UNL     1     -10.572  -7.783  15.652  0.00  0.00    +0.126 A 
BRANCH  36   9
ATOM      3  O   UNL     1     -11.320  -5.643  15.229  0.00  0.00    -0.126 OA
ATOM      4  O   UNL     1     -12.079  -7.282  13.980  0.00  0.00    -0.126 OA
ATOM      9  N   UNL     1     -11.362  -6.859  14.918  0.00  0.00    +0.056 N 
ENDBRANCH  36   9
ENDBRANCH  29  30
ENDBRANCH  18  26
ENDBRANCH  13  18
TORSDOF 10
ENDMDL
MODEL 6
REMARK VINA RESULT:      -6.4      3.549      9.477
REMARK  Name = 45783993
REMARK  14 active torsions:
REMARK  status: ('A' for Active; 'I' for Inactive)
REMARK    1  A    between atoms: O_2  and  C_28
REMARK    2  A    between atoms: O_2  and  C_31
REMARK    3  A    between atoms: N_5  and  C_15
REMARK    4  A    between atoms: N_6  and  C_27
REMARK    5  A    between atoms: N_9  and  C_36
REMARK    6  A    between atoms: C_10  and  C_14
REMARK    7  A    between atoms: C_11  and  C_15
REMARK    8  A    between atoms: C_13  and  C_18
REMARK    9  A    between atoms: C_14  and  C_21
REMARK   10  A    between atoms: C_14  and  C_22
REMARK   11  A    between atoms: C_17  and  C_25
REMARK   12  A    between atoms: C_18  and  C_26
REMARK   13  A    between atoms: C_27  and  C_28
REMARK   14  A    between atoms: C_29  and  C_30
REMARK                            x       y       z     vdW  Elec       q    Type
REMARK                         _______ _______ _______ _____ _____    ______ ____
ROOT
ATOM     10  C   UNL     1      -7.158 -12.044  17.040  0.00  0.00    +0.000 C 
ATOM     11  C   UNL     1      -7.222 -11.823  18.570  0.00  0.00    +0.029 C 
ATOM     12  C   UNL     1      -5.948 -11.315  16.442  0.00  0.00    +0.012 C 
ATOM     13  C   UNL     1      -4.604 -11.734  17.079  0.00  0.00    +0.024 C 
ATOM     16  C   UNL     1      -5.875 -11.964  19.233  0.00  0.00    -0.023 C 
ATOM     17  C   UNL     1      -4.696 -11.938  18.583  0.00  0.00    -0.073 C 
ATOM     25  C   UNL     1      -3.413 -12.174  19.332  0.00  0.00    +0.039 C 
ENDROOT
BRANCH  10  14
ATOM     14  C   UNL     1      -7.133 -13.538  16.692  0.00  0.00    -0.013 C 
ATOM     21  C   UNL     1      -7.264 -13.735  15.185  0.00  0.00    +0.007 C 
ATOM     22  C   UNL     1      -8.244 -14.277  17.432  0.00  0.00    +0.007 C 
ENDBRANCH  10  14
BRANCH  11  15
ATOM     15  C   UNL     1      -7.816 -10.455  18.920  0.00  0.00    +0.092 C 
BRANCH  15   5
ATOM      5  N   UNL     1      -8.823 -10.063  17.937  0.00  0.00    -0.299 NA
ATOM      6  N   UNL     1     -10.880  -8.304  16.919  0.00  0.00    -0.298 NA
ATOM     19  C   UNL     1      -8.490  -8.765  17.338  0.00  0.00    +0.100 C 
ATOM     20  C   UNL     1     -10.157 -10.018  18.547  0.00  0.00    +0.100 C 
ATOM     23  C   UNL     1      -9.547  -8.350  16.309  0.00  0.00    +0.100 C 
ATOM     24  C   UNL     1     -11.215  -9.603  17.517  0.00  0.00    +0.100 C 
BRANCH   6  27
ATOM     27  C   UNL     1     -11.888  -7.910  15.937  0.00  0.00    +0.112 C 
BRANCH  27  28
ATOM     28  C   UNL     1     -11.421  -6.698  15.146  0.00  0.00    +0.174 C 
BRANCH  28   2
ATOM      2  O   UNL     1     -12.252  -6.551  14.002  0.00  0.00    -0.382 OA
ATOM     31  C   UNL     1     -12.290  -5.203  13.554  0.00  0.00    +0.194 C 
ENDBRANCH  28   2
ENDBRANCH  27  28
ENDBRANCH   6  27
ENDBRANCH  15   5
ENDBRANCH  11  15
BRANCH  13  18
ATOM     18  C   UNL     1      -3.534 -10.711  16.680  0.00  0.00    +0.105 C 
BRANCH  18  26
ATOM      1  O   UNL     1      -3.632 -10.829  14.244  0.00  0.00    -0.420 OA
ATOM      7  N   UNL     1      -1.716 -11.579  15.121  0.00  0.00    -0.112 NA
ATOM      8  N   UNL     1      -1.634 -11.703  13.746  0.00  0.00    -0.107 NA
ATOM     26  C   UNL     1      -2.898 -11.065  15.366  0.00  0.00    +0.218 A 
ATOM     29  C   UNL     1      -2.774 -11.254  13.276  0.00  0.00    +0.248 A 
BRANCH  29  30
ATOM     30  C   UNL     1      -3.246 -11.143  11.927  0.00  0.00    +0.039 A 
ATOM     32  C   UNL     1      -3.492 -12.294  11.178  0.00  0.00    +0.015 A 
ATOM     33  C   UNL     1      -3.460  -9.886  11.363  0.00  0.00    +0.015 A 
ATOM     34  C   UNL     1      -3.951 -12.187   9.865  0.00  0.00    +0.033 A 
ATOM     35  C   UNL     1      -3.919  -9.777  10.051  0.00  0.00    +0.033 A 
ATOM     36  C   UNL     1      -4.165 -10.928   9.301  0.00  0.00    +0.126 A 
BRANCH  36   9
ATOM      3  O   UNL     1      -5.085  -9.717   7.569  0.00  0.00    -0.126 OA
ATOM      4  O   UNL     1      -4.585 -11.826   7.220  0.00  0.00    -0.126 OA
ATOM      9  N   UNL     1      -4.634 -10.819   7.966  0.00  0.00    +0.056 N 
ENDBRANCH  36   9
ENDBRANCH  29  30
ENDBRANCH  18  26
ENDBRANCH  13  18
TORSDOF 10
ENDMDL
MODEL 7
REMARK VINA RESULT:      -6.3     28.103     32.369
REMARK  Name = 45783993
REMARK  14 active torsions:
REMARK  status: ('A' for Active; 'I' for Inactive)
REMARK    1  A    between atoms: O_2  and  C_28
REMARK    2  A    between atoms: O_2  and  C_31
REMARK    3  A    between atoms: N_5  and  C_15
REMARK    4  A    between atoms: N_6  and  C_27
REMARK    5  A    between atoms: N_9  and  C_36
REMARK    6  A    between atoms: C_10  and  C_14
REMARK    7  A    between atoms: C_11  and  C_15
REMARK    8  A    between atoms: C_13  and  C_18
REMARK    9  A    between atoms: C_14  and  C_21
REMARK   10  A    between atoms: C_14  and  C_22
REMARK   11  A    between atoms: C_17  and  C_25
REMARK   12  A    between atoms: C_18  and  C_26
REMARK   13  A    between atoms: C_27  and  C_28
REMARK   14  A    between atoms: C_29  and  C_30
REMARK                            x       y       z     vdW  Elec       q    Type
REMARK                         _______ _______ _______ _____ _____    ______ ____
ROOT
ATOM     10  C   UNL     1      18.763   6.786  21.532  0.00  0.00    +0.000 C 
ATOM     11  C   UNL     1      20.272   6.920  21.844  0.00  0.00    +0.029 C 
ATOM     12  C   UNL     1      18.016   8.067  21.925  0.00  0.00    +0.012 C 
ATOM     13  C   UNL     1      18.572   9.335  21.239  0.00  0.00    +0.024 C 
ATOM     16  C   UNL     1      20.833   8.257  21.430  0.00  0.00    -0.023 C 
ATOM     17  C   UNL     1      20.090   9.343  21.145  0.00  0.00    -0.073 C 
ATOM     25  C   UNL     1      20.749  10.605  20.657  0.00  0.00    +0.039 C 
ENDROOT
BRANCH  10  14
ATOM     14  C   UNL     1      18.528   6.437  20.056  0.00  0.00    -0.013 C 
ATOM     21  C   UNL     1      17.042   6.529  19.719  0.00  0.00    +0.007 C 
ATOM     22  C   UNL     1      19.066   5.044  19.745  0.00  0.00    +0.007 C 
ENDBRANCH  10  14
BRANCH  11  15
ATOM     15  C   UNL     1      20.565   6.689  23.331  0.00  0.00    +0.092 C 
BRANCH  15   5
ATOM      5  N   UNL     1      21.335   5.463  23.521  0.00  0.00    -0.299 NA
ATOM      6  N   UNL     1      23.719   3.850  23.238  0.00  0.00    -0.298 NA
ATOM     19  C   UNL     1      22.531   5.719  24.332  0.00  0.00    +0.100 C 
ATOM     20  C   UNL     1      21.710   4.877  22.228  0.00  0.00    +0.100 C 
ATOM     23  C   UNL     1      23.343   4.434  24.530  0.00  0.00    +0.100 C 
ATOM     24  C   UNL     1      22.522   3.592  22.425  0.00  0.00    +0.100 C 
BRANCH   6  27
ATOM     27  C   UNL     1      24.491   2.624  23.427  0.00  0.00    +0.112 C 
BRANCH  27  28
ATOM     28  C   UNL     1      24.050   1.554  22.439  0.00  0.00    +0.174 C 
BRANCH  28   2
ATOM      2  O   UNL     1      25.195   1.067  21.752  0.00  0.00    -0.382 OA
ATOM     31  C   UNL     1      26.053   2.126  21.351  0.00  0.00    +0.194 C 
ENDBRANCH  28   2
ENDBRANCH  27  28
ENDBRANCH   6  27
ENDBRANCH  15   5
ENDBRANCH  11  15
BRANCH  13  18
ATOM     18  C   UNL     1      18.013  10.566  21.961  0.00  0.00    +0.105 C 
BRANCH  18  26
ATOM      1  O   UNL     1      16.065  10.193  20.539  0.00  0.00    -0.420 OA
ATOM      7  N   UNL     1      15.634  11.370  22.392  0.00  0.00    -0.112 NA
ATOM      8  N   UNL     1      14.452  11.234  21.688  0.00  0.00    -0.107 NA
ATOM     26  C   UNL     1      16.547  10.746  21.685  0.00  0.00    +0.218 A 
ATOM     29  C   UNL     1      14.751  10.541  20.614  0.00  0.00    +0.248 A 
BRANCH  29  30
ATOM     30  C   UNL     1      13.923  10.103  19.529  0.00  0.00    +0.039 A 
ATOM     32  C   UNL     1      14.235  10.473  18.220  0.00  0.00    +0.015 A 
ATOM     33  C   UNL     1      12.806   9.307  19.780  0.00  0.00    +0.015 A 
ATOM     34  C   UNL     1      13.430  10.046  17.164  0.00  0.00    +0.033 A 
ATOM     35  C   UNL     1      12.000   8.879  18.725  0.00  0.00    +0.033 A 
ATOM     36  C   UNL     1      12.312   9.249  17.416  0.00  0.00    +0.126 A 
BRANCH  36   9
ATOM      3  O   UNL     1      10.460   8.150  16.595  0.00  0.00    -0.126 OA
ATOM      4  O   UNL     1      11.828   9.103  15.167  0.00  0.00    -0.126 OA
ATOM      9  N   UNL     1      11.494   8.813  16.341  0.00  0.00    +0.056 N 
ENDBRANCH  36   9
ENDBRANCH  29  30
ENDBRANCH  18  26
ENDBRANCH  13  18
TORSDOF 10
ENDMDL
MODEL 8
REMARK VINA RESULT:      -6.2     23.677     27.800
REMARK  Name = 45783993
REMARK  14 active torsions:
REMARK  status: ('A' for Active; 'I' for Inactive)
REMARK    1  A    between atoms: O_2  and  C_28
REMARK    2  A    between atoms: O_2  and  C_31
REMARK    3  A    between atoms: N_5  and  C_15
REMARK    4  A    between atoms: N_6  and  C_27
REMARK    5  A    between atoms: N_9  and  C_36
REMARK    6  A    between atoms: C_10  and  C_14
REMARK    7  A    between atoms: C_11  and  C_15
REMARK    8  A    between atoms: C_13  and  C_18
REMARK    9  A    between atoms: C_14  and  C_21
REMARK   10  A    between atoms: C_14  and  C_22
REMARK   11  A    between atoms: C_17  and  C_25
REMARK   12  A    between atoms: C_18  and  C_26
REMARK   13  A    between atoms: C_27  and  C_28
REMARK   14  A    between atoms: C_29  and  C_30
REMARK                            x       y       z     vdW  Elec       q    Type
REMARK                         _______ _______ _______ _____ _____    ______ ____
ROOT
ATOM     10  C   UNL     1      10.815   9.969   7.181  0.00  0.00    +0.000 C 
ATOM     11  C   UNL     1      11.975   8.946   7.140  0.00  0.00    +0.029 C 
ATOM     12  C   UNL     1       9.542   9.363   6.577  0.00  0.00    +0.012 C 
ATOM     13  C   UNL     1       9.098   8.056   7.270  0.00  0.00    +0.024 C 
ATOM     16  C   UNL     1      11.544   7.565   7.562  0.00  0.00    -0.023 C 
ATOM     17  C   UNL     1      10.264   7.152   7.638  0.00  0.00    -0.073 C 
ATOM     25  C   UNL     1       9.942   5.777   8.156  0.00  0.00    +0.039 C 
ENDROOT
BRANCH  10  14
ATOM     14  C   UNL     1      10.567  10.475   8.608  0.00  0.00    -0.013 C 
ATOM     21  C   UNL     1       9.309  11.337   8.655  0.00  0.00    +0.007 C 
ATOM     22  C   UNL     1      11.775  11.255   9.115  0.00  0.00    +0.007 C 
ENDBRANCH  10  14
BRANCH  11  15
ATOM     15  C   UNL     1      12.614   8.871   5.749  0.00  0.00    +0.092 C 
BRANCH  15   5
ATOM      5  N   UNL     1      14.059   8.687   5.854  0.00  0.00    -0.299 NA
ATOM      6  N   UNL     1      16.781   9.118   4.978  0.00  0.00    -0.298 NA
ATOM     19  C   UNL     1      14.735   9.972   6.068  0.00  0.00    +0.100 C 
ATOM     20  C   UNL     1      14.589   8.022   4.657  0.00  0.00    +0.100 C 
ATOM     23  C   UNL     1      16.252   9.781   6.176  0.00  0.00    +0.100 C 
ATOM     24  C   UNL     1      16.106   7.831   4.764  0.00  0.00    +0.100 C 
BRANCH   6  27
ATOM     27  C   UNL     1      18.227   8.934   5.082  0.00  0.00    +0.112 C 
BRANCH  27  28
ATOM     28  C   UNL     1      18.626   8.618   6.515  0.00  0.00    +0.174 C 
BRANCH  28   2
ATOM      2  O   UNL     1      19.994   8.957   6.694  0.00  0.00    -0.382 OA
ATOM     31  C   UNL     1      20.852   7.906   6.273  0.00  0.00    +0.194 C 
ENDBRANCH  28   2
ENDBRANCH  27  28
ENDBRANCH   6  27
ENDBRANCH  15   5
ENDBRANCH  11  15
BRANCH  13  18
ATOM     18  C   UNL     1       8.061   7.358   6.381  0.00  0.00    +0.105 C 
BRANCH  18  26
ATOM      1  O   UNL     1       9.614   6.424   4.747  0.00  0.00    -0.420 OA
ATOM      7  N   UNL     1       8.088   7.808   3.874  0.00  0.00    -0.112 NA
ATOM      8  N   UNL     1       8.894   7.356   2.845  0.00  0.00    -0.107 NA
ATOM     26  C   UNL     1       8.545   7.238   4.964  0.00  0.00    +0.218 A 
ATOM     29  C   UNL     1       9.769   6.552   3.400  0.00  0.00    +0.248 A 
BRANCH  29  30
ATOM     30  C   UNL     1      10.844   5.801   2.819  0.00  0.00    +0.039 A 
ATOM     32  C   UNL     1      12.032   6.443   2.468  0.00  0.00    +0.015 A 
ATOM     33  C   UNL     1      10.702   4.431   2.604  0.00  0.00    +0.015 A 
ATOM     34  C   UNL     1      13.078   5.713   1.903  0.00  0.00    +0.033 A 
ATOM     35  C   UNL     1      11.747   3.701   2.039  0.00  0.00    +0.033 A 
ATOM     36  C   UNL     1      12.936   4.342   1.688  0.00  0.00    +0.126 A 
BRANCH  36   9
ATOM      3  O   UNL     1      14.056   3.480  -0.134  0.00  0.00    -0.126 OA
ATOM      4  O   UNL     1      14.857   3.081   1.871  0.00  0.00    -0.126 OA
ATOM      9  N   UNL     1      14.000   3.599   1.114  0.00  0.00    +0.056 N 
ENDBRANCH  36   9
ENDBRANCH  29  30
ENDBRANCH  18  26
ENDBRANCH  13  18
TORSDOF 10
ENDMDL
MODEL 9
REMARK VINA RESULT:      -6.2      2.881     10.471
REMARK  Name = 45783993
REMARK  14 active torsions:
REMARK  status: ('A' for Active; 'I' for Inactive)
REMARK    1  A    between atoms: O_2  and  C_28
REMARK    2  A    between atoms: O_2  and  C_31
REMARK    3  A    between atoms: N_5  and  C_15
REMARK    4  A    between atoms: N_6  and  C_27
REMARK    5  A    between atoms: N_9  and  C_36
REMARK    6  A    between atoms: C_10  and  C_14
REMARK    7  A    between atoms: C_11  and  C_15
REMARK    8  A    between atoms: C_13  and  C_18
REMARK    9  A    between atoms: C_14  and  C_21
REMARK   10  A    between atoms: C_14  and  C_22
REMARK   11  A    between atoms: C_17  and  C_25
REMARK   12  A    between atoms: C_18  and  C_26
REMARK   13  A    between atoms: C_27  and  C_28
REMARK   14  A    between atoms: C_29  and  C_30
REMARK                            x       y       z     vdW  Elec       q    Type
REMARK                         _______ _______ _______ _____ _____    ______ ____
ROOT
ATOM     10  C   UNL     1      -5.037 -12.041  15.474  0.00  0.00    +0.000 C 
ATOM     11  C   UNL     1      -4.704 -11.113  16.667  0.00  0.00    +0.029 C 
ATOM     12  C   UNL     1      -4.430 -11.487  14.178  0.00  0.00    +0.012 C 
ATOM     13  C   UNL     1      -2.902 -11.280  14.257  0.00  0.00    +0.024 C 
ATOM     16  C   UNL     1      -3.268 -10.655  16.662  0.00  0.00    -0.023 C 
ATOM     17  C   UNL     1      -2.444 -10.731  15.600  0.00  0.00    -0.073 C 
ATOM     25  C   UNL     1      -1.002 -10.324  15.729  0.00  0.00    +0.039 C 
ENDROOT
BRANCH  10  14
ATOM     14  C   UNL     1      -4.568 -13.478  15.736  0.00  0.00    -0.013 C 
ATOM     21  C   UNL     1      -4.982 -14.390  14.586  0.00  0.00    +0.007 C 
ATOM     22  C   UNL     1      -5.131 -13.989  17.059  0.00  0.00    +0.007 C 
ENDBRANCH  10  14
BRANCH  11  15
ATOM     15  C   UNL     1      -5.625  -9.889  16.705  0.00  0.00    +0.092 C 
BRANCH  15   5
ATOM      5  N   UNL     1      -6.990 -10.279  17.048  0.00  0.00    -0.299 NA
ATOM      6  N   UNL     1      -9.508  -9.905  18.420  0.00  0.00    -0.298 NA
ATOM     19  C   UNL     1      -7.949  -9.256  16.616  0.00  0.00    +0.100 C 
ATOM     20  C   UNL     1      -7.116 -10.525  18.490  0.00  0.00    +0.100 C 
ATOM     23  C   UNL     1      -9.382  -9.662  16.978  0.00  0.00    +0.100 C 
ATOM     24  C   UNL     1      -8.549 -10.931  18.851  0.00  0.00    +0.100 C 
BRANCH   6  27
ATOM     27  C   UNL     1     -10.874 -10.295  18.763  0.00  0.00    +0.112 C 
BRANCH  27  28
ATOM     28  C   UNL     1     -10.915 -10.951  20.135  0.00  0.00    +0.174 C 
BRANCH  28   2
ATOM      2  O   UNL     1     -12.268 -11.027  20.565  0.00  0.00    -0.382 OA
ATOM     31  C   UNL     1     -12.888  -9.748  20.564  0.00  0.00    +0.194 C 
ENDBRANCH  28   2
ENDBRANCH  27  28
ENDBRANCH   6  27
ENDBRANCH  15   5
ENDBRANCH  11  15
BRANCH  13  18
ATOM     18  C   UNL     1      -2.465 -10.405  13.076  0.00  0.00    +0.105 C 
BRANCH  18  26
ATOM      1  O   UNL     1      -3.859 -10.040  11.106  0.00  0.00    -0.420 OA
ATOM      7  N   UNL     1      -2.895 -12.057  11.185  0.00  0.00    -0.112 NA
ATOM      8  N   UNL     1      -3.647 -11.987  10.027  0.00  0.00    -0.107 NA
ATOM     26  C   UNL     1      -3.048 -10.898  11.782  0.00  0.00    +0.218 A 
ATOM     29  C   UNL     1      -4.192 -10.794  10.022  0.00  0.00    +0.248 A 
BRANCH  29  30
ATOM     30  C   UNL     1      -5.067 -10.173   9.071  0.00  0.00    +0.039 A 
ATOM     32  C   UNL     1      -5.923  -9.149   9.476  0.00  0.00    +0.015 A 
ATOM     33  C   UNL     1      -5.062 -10.591   7.741  0.00  0.00    +0.015 A 
ATOM     34  C   UNL     1      -6.774  -8.544   8.551  0.00  0.00    +0.033 A 
ATOM     35  C   UNL     1      -5.912  -9.987   6.815  0.00  0.00    +0.033 A 
ATOM     36  C   UNL     1      -6.768  -8.963   7.220  0.00  0.00    +0.126 A 
BRANCH  36   9
ATOM      3  O   UNL     1      -8.511  -7.550   6.689  0.00  0.00    -0.126 OA
ATOM      4  O   UNL     1      -7.494  -8.614   5.060  0.00  0.00    -0.126 OA
ATOM      9  N   UNL     1      -7.633  -8.346   6.278  0.00  0.00    +0.056 N 
ENDBRANCH  36   9
ENDBRANCH  29  30
ENDBRANCH  18  26
ENDBRANCH  13  18
TORSDOF 10
ENDMDL
MODEL 10
REMARK VINA RESULT:      -6.1      3.660     10.826
REMARK  Name = 45783993
REMARK  14 active torsions:
REMARK  status: ('A' for Active; 'I' for Inactive)
REMARK    1  A    between atoms: O_2  and  C_28
REMARK    2  A    between atoms: O_2  and  C_31
REMARK    3  A    between atoms: N_5  and  C_15
REMARK    4  A    between atoms: N_6  and  C_27
REMARK    5  A    between atoms: N_9  and  C_36
REMARK    6  A    between atoms: C_10  and  C_14
REMARK    7  A    between atoms: C_11  and  C_15
REMARK    8  A    between atoms: C_13  and  C_18
REMARK    9  A    between atoms: C_14  and  C_21
REMARK   10  A    between atoms: C_14  and  C_22
REMARK   11  A    between atoms: C_17  and  C_25
REMARK   12  A    between atoms: C_18  and  C_26
REMARK   13  A    between atoms: C_27  and  C_28
REMARK   14  A    between atoms: C_29  and  C_30
REMARK                            x       y       z     vdW  Elec       q    Type
REMARK                         _______ _______ _______ _____ _____    ______ ____
ROOT
ATOM     10  C   UNL     1      -6.934 -12.277  16.742  0.00  0.00    +0.000 C 
ATOM     11  C   UNL     1      -7.223 -11.940  18.224  0.00  0.00    +0.029 C 
ATOM     12  C   UNL     1      -5.654 -11.573  16.271  0.00  0.00    +0.012 C 
ATOM     13  C   UNL     1      -4.415 -11.916  17.127  0.00  0.00    +0.024 C 
ATOM     16  C   UNL     1      -5.987 -12.003  19.084  0.00  0.00    -0.023 C 
ATOM     17  C   UNL     1      -4.726 -12.005  18.613  0.00  0.00    -0.073 C 
ATOM     25  C   UNL     1      -3.565 -12.159  19.558  0.00  0.00    +0.039 C 
ENDROOT
BRANCH  10  14
ATOM     14  C   UNL     1      -6.847 -13.793  16.520  0.00  0.00    -0.013 C 
ATOM     21  C   UNL     1      -6.797 -14.110  15.029  0.00  0.00    +0.007 C 
ATOM     22  C   UNL     1      -8.027 -14.497  17.183  0.00  0.00    +0.007 C 
ENDBRANCH  10  14
BRANCH  11  15
ATOM     15  C   UNL     1      -7.872 -10.560  18.374  0.00  0.00    +0.092 C 
BRANCH  15   5
ATOM      5  N   UNL     1      -9.317 -10.685  18.545  0.00  0.00    -0.299 NA
ATOM      6  N   UNL     1     -11.856  -9.880  19.671  0.00  0.00    -0.298 NA
ATOM     19  C   UNL     1     -10.004  -9.471  18.089  0.00  0.00    +0.100 C 
ATOM     20  C   UNL     1      -9.654 -10.969  19.945  0.00  0.00    +0.100 C 
ATOM     23  C   UNL     1     -11.520  -9.599  18.270  0.00  0.00    +0.100 C 
ATOM     24  C   UNL     1     -11.171 -11.096  20.128  0.00  0.00    +0.100 C 
BRANCH   6  27
ATOM     27  C   UNL     1     -13.302 -10.004  19.844  0.00  0.00    +0.112 C 
BRANCH  27  28
ATOM     28  C   UNL     1     -13.628 -11.031  20.917  0.00  0.00    +0.174 C 
BRANCH  28   2
ATOM      2  O   UNL     1     -15.033 -11.249  20.930  0.00  0.00    -0.382 OA
ATOM     31  C   UNL     1     -15.751 -10.023  20.908  0.00  0.00    +0.194 C 
ENDBRANCH  28   2
ENDBRANCH  27  28
ENDBRANCH   6  27
ENDBRANCH  15   5
ENDBRANCH  11  15
BRANCH  13  18
ATOM     18  C   UNL     1      -3.306 -10.907  16.809  0.00  0.00    +0.105 C 
BRANCH  18  26
ATOM      1  O   UNL     1      -3.786 -10.499  14.451  0.00  0.00    -0.420 OA
ATOM      7  N   UNL     1      -1.791 -11.438  14.831  0.00  0.00    -0.112 NA
ATOM      8  N   UNL     1      -1.929 -11.264  13.466  0.00  0.00    -0.107 NA
ATOM     26  C   UNL     1      -2.898 -10.976  15.365  0.00  0.00    +0.218 A 
ATOM     29  C   UNL     1      -3.108 -10.714  13.290  0.00  0.00    +0.248 A 
BRANCH  29  30
ATOM     30  C   UNL     1      -3.778 -10.311  12.088  0.00  0.00    +0.039 A 
ATOM     32  C   UNL     1      -5.167 -10.183  12.075  0.00  0.00    +0.015 A 
ATOM     33  C   UNL     1      -3.042 -10.049  10.933  0.00  0.00    +0.015 A 
ATOM     34  C   UNL     1      -5.820  -9.791  10.906  0.00  0.00    +0.033 A 
ATOM     35  C   UNL     1      -3.694  -9.657   9.764  0.00  0.00    +0.033 A 
ATOM     36  C   UNL     1      -5.083  -9.528   9.750  0.00  0.00    +0.126 A 
BRANCH  36   9
ATOM      3  O   UNL     1      -5.385  -9.623   7.467  0.00  0.00    -0.126 OA
ATOM      4  O   UNL     1      -6.678  -8.291   8.638  0.00  0.00    -0.126 OA
ATOM      9  N   UNL     1      -5.747  -9.128   8.561  0.00  0.00    +0.056 N 
ENDBRANCH  36   9
ENDBRANCH  29  30
ENDBRANCH  18  26
ENDBRANCH  13  18
TORSDOF 10
ENDMDL
