REMARK  Name = 11879598
REMARK  6 active torsions:
REMARK  status: ('A' for Active; 'I' for Inactive)
REMARK    1  A    between atoms: O_3  and  C_18
REMARK    2  A    between atoms: O_3  and  C_21
REMARK    3  A    between atoms: N_6  and  C_14
REMARK    4  A    between atoms: N_7  and  C_15
REMARK    5  A    between atoms: N_11  and  C_24
REMARK    6  A    between atoms: C_19  and  C_20
REMARK                            x       y       z     vdW  Elec       q    Type
REMARK                         _______ _______ _______ _____ _____    ______ ____
ROOT
ATOM      6  N   UNL     1       0.330  -0.459   0.771  0.00  0.00    -0.187 N 
ATOM      8  N   UNL     1      -0.086  -0.418   2.040  0.00  0.00    -0.041 NA
ATOM      9  N   UNL     1       1.879   0.614   1.830  0.00  0.00    -0.071 NA
ATOM     10  N   UNL     1       0.868   0.241   2.686  0.00  0.00    -0.020 NA
ATOM     18  C   UNL     1       1.523   0.168   0.647  0.00  0.00    +0.342 A 
ENDROOT
BRANCH   6  14
ATOM      1  O   UNL     1      -2.047  -2.708   0.566  0.00  0.00    -0.370 OA
ATOM      2  O   UNL     1      -2.311  -0.595  -1.748  0.00  0.00    -0.370 OA
ATOM     12  C   UNL     1      -1.865  -0.528  -0.381  0.00  0.00    +0.176 C 
ATOM     13  C   UNL     1      -2.748  -1.462   0.424  0.00  0.00    +0.171 C 
ATOM     14  C   UNL     1      -0.472  -1.117  -0.264  0.00  0.00    +0.171 C 
ATOM     15  C   UNL     1      -3.978  -1.648  -0.436  0.00  0.00    +0.130 C 
ATOM     16  C   UNL     1      -0.745  -2.598  -0.024  0.00  0.00    +0.190 C 
ATOM     17  C   UNL     1      -3.417  -1.503  -1.839  0.00  0.00    +0.185 C 
BRANCH  15   7
ATOM      4  O   UNL     1      -6.812  -1.857  -0.845  0.00  0.00    -0.270 OA
ATOM      7  N   UNL     1      -4.965  -0.632  -0.161  0.00  0.00    -0.304 N 
ATOM     19  C   UNL     1      -6.319  -0.826  -0.393  0.00  0.00    +0.244 C 
ATOM     36  H   UNL     1      -4.619   0.284   0.105  0.00  0.00    +0.149 HD
BRANCH  19  20
ATOM     20  C   UNL     1      -7.204   0.326  -0.082  0.00  0.00    +0.037 A 
ATOM     22  C   UNL     1      -8.396   0.453  -0.764  0.00  0.00    +0.013 A 
ATOM     23  C   UNL     1      -6.806   1.232   0.879  0.00  0.00    +0.013 A 
ATOM     32  C   UNL     1      -9.227   1.535  -0.473  0.00  0.00    +0.001 A 
ATOM     33  C   UNL     1      -7.637   2.313   1.171  0.00  0.00    +0.001 A 
ATOM     35  C   UNL     1      -8.847   2.465   0.495  0.00  0.00    +0.000 A 
ENDBRANCH  19  20
ENDBRANCH  15   7
ENDBRANCH   6  14
BRANCH  18   3
ATOM      3  O   UNL     1       2.197   0.300  -0.480  0.00  0.00    -0.423 OA
BRANCH   3  21
ATOM     21  C   UNL     1       3.418   0.956  -0.549  0.00  0.00    +0.134 A 
ATOM     24  C   UNL     1       5.807   0.892  -0.432  0.00  0.00    +0.033 A 
ATOM     25  C   UNL     1       4.580   0.232  -0.362  0.00  0.00    +0.069 A 
ATOM     28  C   UNL     1       3.436   2.314  -0.803  0.00  0.00    +0.046 A 
ATOM     31  C   UNL     1       5.849   2.263  -0.687  0.00  0.00    +0.023 A 
ATOM     34  C   UNL     1       4.663   2.974  -0.873  0.00  0.00    +0.005 A 
BRANCH  24  11
ATOM      5  O   UNL     1       9.450  -1.067   0.326  0.00  0.00    -0.377 OA
ATOM     11  N   UNL     1       6.997   0.180  -0.246  0.00  0.00    -0.325 N 
ATOM     26  C   UNL     1       7.197  -0.512   1.035  0.00  0.00    +0.133 C 
ATOM     27  C   UNL     1       8.224   0.617  -0.919  0.00  0.00    +0.133 C 
ATOM     29  C   UNL     1       8.245  -1.606   0.871  0.00  0.00    +0.178 C 
ATOM     30  C   UNL     1       9.218  -0.538  -0.979  0.00  0.00    +0.178 C 
ENDBRANCH  24  11
ENDBRANCH   3  21
ENDBRANCH  18   3
TORSDOF 6
