REMARK  Name = 51137899
REMARK  4 active torsions:
REMARK  status: ('A' for Active; 'I' for Inactive)
REMARK    1  A    between atoms: N_2  and  C_6
REMARK    2  A    between atoms: N_4  and  C_19
REMARK    3  A    between atoms: C_7  and  C_15
REMARK    4  A    between atoms: C_16  and  C_20
REMARK                            x       y       z     vdW  Elec       q    Type
REMARK                         _______ _______ _______ _____ _____    ______ ____
ROOT
ATOM      2  N   UNL     1       1.239   0.735  -0.665  0.00  0.00    -0.299 NA
ATOM      7  C   UNL     1      -1.045   0.577  -1.176  0.00  0.00    +0.070 C 
ATOM      8  C   UNL     1       0.090  -0.145  -0.436  0.00  0.00    +0.096 C 
ATOM      9  C   UNL     1       0.721   2.089  -0.472  0.00  0.00    +0.085 C 
ATOM     10  C   UNL     1      -0.610   2.052  -1.212  0.00  0.00    +0.028 C 
ENDROOT
BRANCH   7  15
ATOM      4  N   UNL     1      -3.196  -0.715  -0.941  0.00  0.00    -0.330 N 
ATOM      5  N   UNL     1      -2.963   1.055   0.383  0.00  0.00    -0.232 NA
ATOM     15  C   UNL     1      -2.402   0.329  -0.558  0.00  0.00    +0.115 A 
ATOM     17  C   UNL     1      -4.347  -0.660  -0.197  0.00  0.00    +0.069 A 
ATOM     18  C   UNL     1      -4.177   0.453   0.621  0.00  0.00    +0.089 A 
ATOM     19  C   UNL     1      -2.883  -1.704  -1.948  0.00  0.00    +0.150 C 
ATOM     21  C   UNL     1      -5.487  -1.464  -0.171  0.00  0.00    +0.028 A 
ATOM     22  C   UNL     1      -5.195   0.800   1.525  0.00  0.00    +0.030 A 
ATOM     23  C   UNL     1      -6.490  -1.104   0.735  0.00  0.00    +0.002 A 
ATOM     24  C   UNL     1      -6.349   0.007   1.569  0.00  0.00    +0.002 A 
ENDBRANCH   7  15
BRANCH   2   6
ATOM      1  O   UNL     1       7.317   0.200   0.093  0.00  0.00    -0.276 OA
ATOM      3  N   UNL     1       5.119  -0.337   0.621  0.00  0.00    -0.302 N 
ATOM      6  C   UNL     1       2.357   0.434   0.226  0.00  0.00    +0.060 C 
ATOM     11  C   UNL     1       2.825  -1.011   0.014  0.00  0.00    +0.038 C 
ATOM     12  C   UNL     1       3.510   1.414  -0.028  0.00  0.00    +0.038 C 
ATOM     13  C   UNL     1       4.056  -1.319   0.867  0.00  0.00    +0.109 C 
ATOM     14  C   UNL     1       4.725   1.058   0.826  0.00  0.00    +0.109 C 
ATOM     16  C   UNL     1       6.431  -0.642   0.260  0.00  0.00    +0.212 C 
ATOM     20  C   UNL     1       6.756  -2.101   0.064  0.00  0.00    +0.109 C 
ENDBRANCH   2   6
TORSDOF 2
