REMARK  Name = 7143951
REMARK  3 active torsions:
REMARK  status: ('A' for Active; 'I' for Inactive)
REMARK    1  A    between atoms: N_2  and  C_11
REMARK    2  A    between atoms: C_11  and  C_16
REMARK    3  A    between atoms: C_14  and  C_17
REMARK                            x       y       z     vdW  Elec       q    Type
REMARK                         _______ _______ _______ _____ _____    ______ ____
ROOT
ATOM      1  O   UNL     1      -1.077  -2.055   1.496  0.00  0.00    -0.267 OA
ATOM      2  N   UNL     1       3.621  -0.450   0.790  0.00  0.00    -0.297 NA
ATOM      3  N   UNL     1       0.877  -1.976   0.226  0.00  0.00    -0.311 N 
ATOM      4  C   UNL     1       3.117  -2.889   1.074  0.00  0.00    +0.024 C 
ATOM      5  C   UNL     1       2.981  -1.883  -1.154  0.00  0.00    +0.050 C 
ATOM      6  C   UNL     1       3.404  -3.141  -0.400  0.00  0.00    +0.017 C 
ATOM      7  C   UNL     1       3.912  -1.661   1.566  0.00  0.00    +0.090 C 
ATOM      8  C   UNL     1       3.807  -0.677  -0.651  0.00  0.00    +0.094 C 
ATOM      9  C   UNL     1       1.603  -2.725   1.262  0.00  0.00    +0.130 C 
ATOM     10  C   UNL     1       1.497  -1.621  -0.975  0.00  0.00    +0.026 A 
ATOM     12  C   UNL     1       0.786  -1.037  -1.952  0.00  0.00    +0.022 A 
ATOM     13  C   UNL     1      -0.489  -1.727   0.464  0.00  0.00    +0.259 A 
ATOM     14  C   UNL     1      -1.251  -1.040  -0.637  0.00  0.00    +0.047 A 
ATOM     15  C   UNL     1      -0.607  -0.739  -1.774  0.00  0.00    +0.015 A 
ENDROOT
BRANCH  14  17
ATOM     17  C   UNL     1      -2.674  -0.692  -0.478  0.00  0.00    -0.012 A 
ATOM     20  C   UNL     1      -3.036   0.544   0.059  0.00  0.00    +0.017 A 
ATOM     21  C   UNL     1      -3.660  -1.598  -0.864  0.00  0.00    +0.009 A 
ATOM     24  C   UNL     1      -4.388   0.890   0.216  0.00  0.00    -0.017 A 
ATOM     26  C   UNL     1      -5.008  -1.271  -0.715  0.00  0.00    +0.009 A 
ATOM     27  C   UNL     1      -5.389  -0.031  -0.176  0.00  0.00    -0.018 A 
ATOM     28  C   UNL     1      -4.769   2.130   0.755  0.00  0.00    +0.008 A 
ATOM     29  C   UNL     1      -6.741   0.315  -0.019  0.00  0.00    +0.008 A 
ATOM     30  C   UNL     1      -6.117   2.457   0.904  0.00  0.00    +0.001 A 
ATOM     31  C   UNL     1      -7.101   1.551   0.518  0.00  0.00    +0.001 A 
ENDBRANCH  14  17
BRANCH   2  11
ATOM     11  C   UNL     1       4.431   0.675   1.250  0.00  0.00    +0.119 C 
BRANCH  11  16
ATOM     16  C   UNL     1       4.057   1.942   0.531  0.00  0.00    -0.033 A 
ATOM     18  C   UNL     1       4.707   2.277  -0.649  0.00  0.00    +0.005 A 
ATOM     19  C   UNL     1       3.066   2.761   1.057  0.00  0.00    +0.005 A 
ATOM     22  C   UNL     1       4.359   3.452  -1.316  0.00  0.00    +0.000 A 
ATOM     23  C   UNL     1       2.719   3.936   0.390  0.00  0.00    +0.000 A 
ATOM     25  C   UNL     1       3.365   4.281  -0.797  0.00  0.00    +0.000 A 
ENDBRANCH  11  16
ENDBRANCH   2  11
TORSDOF 3
