REMARK  Name = 75367103
REMARK  5 active torsions:
REMARK  status: ('A' for Active; 'I' for Inactive)
REMARK    1  A    between atoms: O_2  and  C_10
REMARK    2  A    between atoms: N_5  and  C_8
REMARK    3  A    between atoms: N_5  and  C_9
REMARK    4  A    between atoms: N_6  and  C_18
REMARK    5  A    between atoms: C_11  and  C_18
REMARK                            x       y       z     vdW  Elec       q    Type
REMARK                         _______ _______ _______ _____ _____    ______ ____
ROOT
ATOM      1  O   UNL     1       0.141  -0.947  -0.496  0.00  0.00    -0.371 OA
ATOM      8  C   UNL     1       2.214   0.193  -0.279  0.00  0.00    +0.111 C 
ATOM     10  C   UNL     1       1.185   1.143  -0.865  0.00  0.00    +0.164 C 
ATOM     11  C   UNL     1      -0.112   0.467  -0.443  0.00  0.00    +0.165 C 
ATOM     14  C   UNL     1       1.564  -1.155  -0.545  0.00  0.00    +0.181 C 
ENDROOT
BRANCH  10   2
ATOM      2  O   UNL     1       1.292   2.453  -0.342  0.00  0.00    -0.388 OA
ATOM     25  H   UNL     1       1.219   2.403   0.626  0.00  0.00    +0.210 HD
ENDBRANCH  10   2
BRANCH   8   5
ATOM      5  N   UNL     1       3.531   0.315  -0.883  0.00  0.00    -0.306 NA
ATOM     24  H   UNL     1       3.775   1.299  -0.996  0.00  0.00    +0.123 HD
BRANCH   5   9
ATOM      9  C   UNL     1       4.545  -0.358  -0.074  0.00  0.00    +0.054 C 
ATOM     12  C   UNL     1       5.776  -0.668  -0.933  0.00  0.00    +0.019 C 
ATOM     13  C   UNL     1       4.916   0.515   1.130  0.00  0.00    +0.019 C 
ATOM     15  C   UNL     1       6.888  -1.304  -0.102  0.00  0.00    +0.002 C 
ATOM     16  C   UNL     1       6.029  -0.123   1.958  0.00  0.00    +0.002 C 
ATOM     17  C   UNL     1       7.253  -0.443   1.104  0.00  0.00    +0.000 C 
ENDBRANCH   5   9
ENDBRANCH   8   5
BRANCH  11  18
ATOM     18  C   UNL     1      -1.288   0.812  -1.339  0.00  0.00    +0.140 C 
BRANCH  18   6
ATOM      3  O   UNL     1      -7.074  -1.186   0.591  0.00  0.00    -0.377 OA
ATOM      4  O   UNL     1      -3.160   1.839   0.494  0.00  0.00    -0.253 OA
ATOM      6  N   UNL     1      -2.497   0.147  -0.906  0.00  0.00    -0.297 N 
ATOM      7  N   UNL     1      -4.500  -0.047   0.334  0.00  0.00    -0.281 N 
ATOM     19  C   UNL     1      -3.372   0.724   0.006  0.00  0.00    +0.302 C 
ATOM     20  C   UNL     1      -4.750  -1.436  -0.079  0.00  0.00    +0.137 C 
ATOM     21  C   UNL     1      -5.472   0.481   1.293  0.00  0.00    +0.137 C 
ATOM     22  C   UNL     1      -6.214  -1.633  -0.458  0.00  0.00    +0.179 C 
ATOM     23  C   UNL     1      -6.896   0.210   0.832  0.00  0.00    +0.179 C 
ATOM     26  H   UNL     1      -2.659  -0.772  -1.292  0.00  0.00    +0.150 HD
ENDBRANCH  18   6
ENDBRANCH  11  18
TORSDOF 5
