MODEL 1
REMARK VINA RESULT:      -8.3      0.000      0.000
REMARK  Name = 51136824
REMARK  5 active torsions:
REMARK  status: ('A' for Active; 'I' for Inactive)
REMARK    1  A    between atoms: N_3  and  C_14
REMARK    2  A    between atoms: C_10  and  C_15
REMARK    3  A    between atoms: C_14  and  C_16
REMARK    4  A    between atoms: C_22  and  C_23
REMARK    5  A    between atoms: C_27  and  C_31
REMARK                            x       y       z     vdW  Elec       q    Type
REMARK                         _______ _______ _______ _____ _____    ______ ____
ROOT
ATOM      1  O   UNL     1      14.241   6.618  20.589  0.00  0.00    -0.336 OA
ATOM      6  N   UNL     1      15.807   7.719  19.424  0.00  0.00    -0.190 NA
ATOM      7  N   UNL     1      15.397   6.605  21.380  0.00  0.00    -0.056 NA
ATOM     15  C   UNL     1      14.570   7.293  19.456  0.00  0.00    +0.245 A 
ATOM     22  C   UNL     1      16.275   7.272  20.627  0.00  0.00    +0.202 A 
ENDROOT
BRANCH  22  23
ATOM      2  O   UNL     1      23.983   2.250  20.547  0.00  0.00    -0.276 OA
ATOM      4  N   UNL     1      20.689   5.647  21.710  0.00  0.00    -0.312 N 
ATOM      5  N   UNL     1      22.554   3.533  21.852  0.00  0.00    -0.299 N 
ATOM      8  N   UNL     1      20.264   7.970  21.853  0.00  0.00    -0.240 NA
ATOM     17  C   UNL     1      21.773   5.709  22.700  0.00  0.00    +0.125 C 
ATOM     18  C   UNL     1      20.954   4.833  20.513  0.00  0.00    +0.125 C 
ATOM     19  C   UNL     1      22.249   4.301  23.060  0.00  0.00    +0.126 C 
ATOM     20  C   UNL     1      21.439   3.442  20.913  0.00  0.00    +0.126 C 
ATOM     21  C   UNL     1      19.809   6.727  21.580  0.00  0.00    +0.122 A 
ATOM     23  C   UNL     1      17.628   7.509  21.043  0.00  0.00    +0.027 A 
ATOM     25  C   UNL     1      18.514   6.445  21.176  0.00  0.00    +0.055 A 
ATOM     27  C   UNL     1      23.765   2.906  21.569  0.00  0.00    +0.213 C 
ATOM     28  C   UNL     1      18.058   8.803  21.315  0.00  0.00    +0.031 A 
ATOM     30  C   UNL     1      19.375   8.980  21.713  0.00  0.00    +0.113 A 
ATOM     31  C   UNL     1      24.858   3.058  22.597  0.00  0.00    +0.109 C 
ENDBRANCH  22  23
BRANCH  15  10
ATOM      3  N   UNL     1      12.613   8.620  18.680  0.00  0.00    -0.287 NA
ATOM     10  C   UNL     1      13.475   7.449  18.422  0.00  0.00    +0.146 C 
ATOM     11  C   UNL     1      14.025   7.673  17.001  0.00  0.00    +0.030 C 
ATOM     12  C   UNL     1      13.370   8.961  16.520  0.00  0.00    +0.017 C 
ATOM     13  C   UNL     1      12.124   9.069  17.375  0.00  0.00    +0.085 C 
BRANCH   3  14
ATOM     14  C   UNL     1      11.523   8.338  19.606  0.00  0.00    +0.121 C 
BRANCH  14  16
ATOM      9  N   UNL     1      10.750   9.855  22.988  0.00  0.00    -0.263 NA
ATOM     16  C   UNL     1      11.496   9.314  20.752  0.00  0.00    -0.015 A 
ATOM     24  C   UNL     1      12.156  10.536  20.669  0.00  0.00    +0.008 A 
ATOM     26  C   UNL     1      10.814   9.024  21.923  0.00  0.00    +0.115 A 
ATOM     29  C   UNL     1      12.113  11.417  21.743  0.00  0.00    +0.020 A 
ATOM     32  C   UNL     1      11.403  11.034  22.869  0.00  0.00    +0.111 A 
ENDBRANCH  14  16
ENDBRANCH   3  14
ENDBRANCH  15  10
TORSDOF 4
ENDMDL
MODEL 2
REMARK VINA RESULT:      -7.5     27.619     30.399
REMARK  Name = 51136824
REMARK  5 active torsions:
REMARK  status: ('A' for Active; 'I' for Inactive)
REMARK    1  A    between atoms: N_3  and  C_14
REMARK    2  A    between atoms: C_10  and  C_15
REMARK    3  A    between atoms: C_14  and  C_16
REMARK    4  A    between atoms: C_22  and  C_23
REMARK    5  A    between atoms: C_27  and  C_31
REMARK                            x       y       z     vdW  Elec       q    Type
REMARK                         _______ _______ _______ _____ _____    ______ ____
ROOT
ATOM      1  O   UNL     1      -3.776 -11.020  17.423  0.00  0.00    -0.336 OA
ATOM      6  N   UNL     1      -5.163 -10.858  15.670  0.00  0.00    -0.190 NA
ATOM      7  N   UNL     1      -2.961 -10.894  16.290  0.00  0.00    -0.056 NA
ATOM     15  C   UNL     1      -5.057 -10.989  16.968  0.00  0.00    +0.245 A 
ATOM     22  C   UNL     1      -3.850 -10.803  15.298  0.00  0.00    +0.202 A 
ENDROOT
BRANCH  22  23
ATOM      2  O   UNL     1      -8.010  -7.543   7.768  0.00  0.00    -0.276 OA
ATOM      4  N   UNL     1      -4.973 -10.011  10.671  0.00  0.00    -0.312 N 
ATOM      5  N   UNL     1      -6.870  -9.343   8.691  0.00  0.00    -0.299 N 
ATOM      8  N   UNL     1      -2.707 -10.378  11.247  0.00  0.00    -0.240 NA
ATOM     17  C   UNL     1      -4.780 -10.494   9.297  0.00  0.00    +0.125 C 
ATOM     18  C   UNL     1      -5.770  -8.782  10.817  0.00  0.00    +0.125 C 
ATOM     19  C   UNL     1      -6.123 -10.596   8.573  0.00  0.00    +0.126 C 
ATOM     20  C   UNL     1      -7.095  -8.917  10.070  0.00  0.00    +0.126 C 
ATOM     21  C   UNL     1      -3.997 -10.270  11.639  0.00  0.00    +0.122 A 
ATOM     23  C   UNL     1      -3.463 -10.660  13.924  0.00  0.00    +0.027 A 
ATOM     25  C   UNL     1      -4.422 -10.401  12.951  0.00  0.00    +0.055 A 
ATOM     27  C   UNL     1      -7.367  -8.587   7.632  0.00  0.00    +0.213 C 
ATOM     28  C   UNL     1      -2.126 -10.778  13.560  0.00  0.00    +0.031 A 
ATOM     30  C   UNL     1      -1.802 -10.630  12.220  0.00  0.00    +0.113 A 
ATOM     31  C   UNL     1      -7.082  -9.105   6.244  0.00  0.00    +0.109 C 
ENDBRANCH  22  23
BRANCH  15  10
ATOM      3  N   UNL     1      -7.469 -10.698  17.503  0.00  0.00    -0.287 NA
ATOM     10  C   UNL     1      -6.147 -11.109  18.013  0.00  0.00    +0.146 C 
ATOM     11  C   UNL     1      -6.347 -12.555  18.500  0.00  0.00    +0.030 C 
ATOM     12  C   UNL     1      -7.825 -12.848  18.280  0.00  0.00    +0.017 C 
ATOM     13  C   UNL     1      -8.460 -11.472  18.251  0.00  0.00    +0.085 C 
BRANCH   3  14
ATOM     14  C   UNL     1      -7.705  -9.263  17.606  0.00  0.00    +0.121 C 
BRANCH  14  16
ATOM      9  N   UNL     1     -10.010  -8.850  14.631  0.00  0.00    -0.263 NA
ATOM     16  C   UNL     1      -8.876  -8.826  16.767  0.00  0.00    -0.015 A 
ATOM     24  C   UNL     1      -9.882  -8.027  17.300  0.00  0.00    +0.008 A 
ATOM     26  C   UNL     1      -8.986  -9.207  15.439  0.00  0.00    +0.115 A 
ATOM     29  C   UNL     1     -10.951  -7.639  16.501  0.00  0.00    +0.020 A 
ATOM     32  C   UNL     1     -10.968  -8.072  15.185  0.00  0.00    +0.111 A 
ENDBRANCH  14  16
ENDBRANCH   3  14
ENDBRANCH  15  10
TORSDOF 4
ENDMDL
MODEL 3
REMARK VINA RESULT:      -7.4     27.663     31.551
REMARK  Name = 51136824
REMARK  5 active torsions:
REMARK  status: ('A' for Active; 'I' for Inactive)
REMARK    1  A    between atoms: N_3  and  C_14
REMARK    2  A    between atoms: C_10  and  C_15
REMARK    3  A    between atoms: C_14  and  C_16
REMARK    4  A    between atoms: C_22  and  C_23
REMARK    5  A    between atoms: C_27  and  C_31
REMARK                            x       y       z     vdW  Elec       q    Type
REMARK                         _______ _______ _______ _____ _____    ______ ____
ROOT
ATOM      1  O   UNL     1      -4.667 -12.777  16.215  0.00  0.00    -0.336 OA
ATOM      6  N   UNL     1      -5.119 -10.593  16.000  0.00  0.00    -0.190 NA
ATOM      7  N   UNL     1      -5.947 -12.588  16.752  0.00  0.00    -0.056 NA
ATOM     15  C   UNL     1      -4.253 -11.552  15.795  0.00  0.00    +0.245 A 
ATOM     22  C   UNL     1      -6.143 -11.277  16.589  0.00  0.00    +0.202 A 
ENDROOT
BRANCH  22  23
ATOM      2  O   UNL     1     -12.686 -13.183  22.768  0.00  0.00    -0.276 OA
ATOM      4  N   UNL     1     -10.381 -11.326  18.899  0.00  0.00    -0.312 N 
ATOM      5  N   UNL     1     -12.253 -12.638  20.554  0.00  0.00    -0.299 N 
ATOM      8  N   UNL     1      -9.695  -9.335  17.818  0.00  0.00    -0.240 NA
ATOM     17  C   UNL     1     -11.806 -10.985  18.784  0.00  0.00    +0.125 C 
ATOM     18  C   UNL     1      -9.948 -11.861  20.199  0.00  0.00    +0.125 C 
ATOM     19  C   UNL     1     -12.673 -12.160  19.235  0.00  0.00    +0.126 C 
ATOM     20  C   UNL     1     -10.846 -13.022  20.621  0.00  0.00    +0.126 C 
ATOM     21  C   UNL     1      -9.439 -10.624  18.139  0.00  0.00    +0.122 A 
ATOM     23  C   UNL     1      -7.348 -10.619  17.005  0.00  0.00    +0.027 A 
ATOM     25  C   UNL     1      -8.293 -11.304  17.762  0.00  0.00    +0.055 A 
ATOM     27  C   UNL     1     -13.070 -12.759  21.675  0.00  0.00    +0.213 C 
ATOM     28  C   UNL     1      -7.575  -9.293  16.655  0.00  0.00    +0.031 A 
ATOM     30  C   UNL     1      -8.754  -8.701  17.083  0.00  0.00    +0.113 A 
ATOM     31  C   UNL     1     -14.508 -12.335  21.509  0.00  0.00    +0.109 C 
ENDBRANCH  22  23
BRANCH  15  10
ATOM      3  N   UNL     1      -2.833 -10.589  13.992  0.00  0.00    -0.287 NA
ATOM     10  C   UNL     1      -2.877 -11.485  15.165  0.00  0.00    +0.146 C 
ATOM     11  C   UNL     1      -1.810 -10.927  16.124  0.00  0.00    +0.030 C 
ATOM     12  C   UNL     1      -1.178  -9.758  15.381  0.00  0.00    +0.017 C 
ATOM     13  C   UNL     1      -1.469 -10.063  13.925  0.00  0.00    +0.085 C 
BRANCH   3  14
ATOM     14  C   UNL     1      -3.229 -11.245  12.752  0.00  0.00    +0.121 C 
BRANCH  14  16
ATOM      9  N   UNL     1      -5.607  -8.776  11.145  0.00  0.00    -0.263 NA
ATOM     16  C   UNL     1      -3.808 -10.269  11.763  0.00  0.00    -0.015 A 
ATOM     24  C   UNL     1      -3.131  -9.950  10.591  0.00  0.00    +0.008 A 
ATOM     26  C   UNL     1      -5.031  -9.659  11.991  0.00  0.00    +0.115 A 
ATOM     29  C   UNL     1      -3.690  -9.045   9.695  0.00  0.00    +0.020 A 
ATOM     32  C   UNL     1      -4.919  -8.491  10.015  0.00  0.00    +0.111 A 
ENDBRANCH  14  16
ENDBRANCH   3  14
ENDBRANCH  15  10
TORSDOF 4
ENDMDL
MODEL 4
REMARK VINA RESULT:      -7.3     16.738     21.216
REMARK  Name = 51136824
REMARK  5 active torsions:
REMARK  status: ('A' for Active; 'I' for Inactive)
REMARK    1  A    between atoms: N_3  and  C_14
REMARK    2  A    between atoms: C_10  and  C_15
REMARK    3  A    between atoms: C_14  and  C_16
REMARK    4  A    between atoms: C_22  and  C_23
REMARK    5  A    between atoms: C_27  and  C_31
REMARK                            x       y       z     vdW  Elec       q    Type
REMARK                         _______ _______ _______ _____ _____    ______ ____
ROOT
ATOM      1  O   UNL     1      10.456   7.025   3.784  0.00  0.00    -0.336 OA
ATOM      6  N   UNL     1      10.875   4.824   3.827  0.00  0.00    -0.190 NA
ATOM      7  N   UNL     1      10.974   6.701   2.523  0.00  0.00    -0.056 NA
ATOM     15  C   UNL     1      10.432   5.863   4.488  0.00  0.00    +0.245 A 
ATOM     22  C   UNL     1      11.196   5.388   2.625  0.00  0.00    +0.202 A 
ENDROOT
BRANCH  22  23
ATOM      2  O   UNL     1       9.422   4.783  -6.381  0.00  0.00    -0.276 OA
ATOM      4  N   UNL     1      10.932   3.681  -1.882  0.00  0.00    -0.312 N 
ATOM      5  N   UNL     1       9.657   3.598  -4.399  0.00  0.00    -0.299 N 
ATOM      8  N   UNL     1      12.798   3.095  -0.549  0.00  0.00    -0.240 NA
ATOM     17  C   UNL     1      11.048   2.472  -2.708  0.00  0.00    +0.125 C 
ATOM     18  C   UNL     1      10.679   4.936  -2.607  0.00  0.00    +0.125 C 
ATOM     19  C   UNL     1       9.852   2.354  -3.653  0.00  0.00    +0.126 C 
ATOM     20  C   UNL     1       9.488   4.775  -3.549  0.00  0.00    +0.126 C 
ATOM     21  C   UNL     1      11.627   3.760  -0.670  0.00  0.00    +0.122 A 
ATOM     23  C   UNL     1      11.739   4.610   1.549  0.00  0.00    +0.027 A 
ATOM     25  C   UNL     1      11.060   4.523   0.338  0.00  0.00    +0.055 A 
ATOM     27  C   UNL     1       9.606   3.718  -5.785  0.00  0.00    +0.213 C 
ATOM     28  C   UNL     1      12.946   3.941   1.712  0.00  0.00    +0.031 A 
ATOM     30  C   UNL     1      13.430   3.203   0.642  0.00  0.00    +0.113 A 
ATOM     31  C   UNL     1       9.794   2.449  -6.578  0.00  0.00    +0.109 C 
ENDBRANCH  22  23
BRANCH  15  10
ATOM      3  N   UNL     1      10.550   7.015   6.690  0.00  0.00    -0.287 NA
ATOM     10  C   UNL     1       9.904   5.945   5.906  0.00  0.00    +0.146 C 
ATOM     11  C   UNL     1       8.401   6.270   5.963  0.00  0.00    +0.030 C 
ATOM     12  C   UNL     1       8.294   7.502   6.851  0.00  0.00    +0.017 C 
ATOM     13  C   UNL     1       9.564   7.458   7.676  0.00  0.00    +0.085 C 
BRANCH   3  14
ATOM     14  C   UNL     1      11.799   6.597   7.315  0.00  0.00    +0.121 C 
BRANCH  14  16
ATOM      9  N   UNL     1      13.793   9.720   6.539  0.00  0.00    -0.263 NA
ATOM     16  C   UNL     1      12.948   7.487   6.921  0.00  0.00    -0.015 A 
ATOM     24  C   UNL     1      14.187   6.953   6.584  0.00  0.00    +0.008 A 
ATOM     26  C   UNL     1      12.804   8.865   6.884  0.00  0.00    +0.115 A 
ATOM     29  C   UNL     1      15.228   7.800   6.224  0.00  0.00    +0.020 A 
ATOM     32  C   UNL     1      14.983   9.163   6.217  0.00  0.00    +0.111 A 
ENDBRANCH  14  16
ENDBRANCH   3  14
ENDBRANCH  15  10
TORSDOF 4
ENDMDL
MODEL 5
REMARK VINA RESULT:      -7.3      2.767      4.579
REMARK  Name = 51136824
REMARK  5 active torsions:
REMARK  status: ('A' for Active; 'I' for Inactive)
REMARK    1  A    between atoms: N_3  and  C_14
REMARK    2  A    between atoms: C_10  and  C_15
REMARK    3  A    between atoms: C_14  and  C_16
REMARK    4  A    between atoms: C_22  and  C_23
REMARK    5  A    between atoms: C_27  and  C_31
REMARK                            x       y       z     vdW  Elec       q    Type
REMARK                         _______ _______ _______ _____ _____    ______ ____
ROOT
ATOM      1  O   UNL     1      14.534   6.917  19.313  0.00  0.00    -0.336 OA
ATOM      6  N   UNL     1      15.760   7.543  21.080  0.00  0.00    -0.190 NA
ATOM      7  N   UNL     1      15.810   6.374  19.114  0.00  0.00    -0.056 NA
ATOM     15  C   UNL     1      14.592   7.589  20.492  0.00  0.00    +0.245 A 
ATOM     22  C   UNL     1      16.475   6.786  20.197  0.00  0.00    +0.202 A 
ENDROOT
BRANCH  22  23
ATOM      2  O   UNL     1      22.669   9.239  26.541  0.00  0.00    -0.276 OA
ATOM      4  N   UNL     1      20.691   7.648  22.382  0.00  0.00    -0.312 N 
ATOM      5  N   UNL     1      22.224   9.084  24.268  0.00  0.00    -0.299 N 
ATOM      8  N   UNL     1      20.540   5.829  20.876  0.00  0.00    -0.240 NA
ATOM     17  C   UNL     1      22.137   7.802  22.168  0.00  0.00    +0.125 C 
ATOM     18  C   UNL     1      20.235   7.724  23.779  0.00  0.00    +0.125 C 
ATOM     19  C   UNL     1      22.649   9.060  22.867  0.00  0.00    +0.126 C 
ATOM     20  C   UNL     1      20.778   8.986  24.447  0.00  0.00    +0.126 C 
ATOM     21  C   UNL     1      19.940   6.870  21.495  0.00  0.00    +0.122 A 
ATOM     23  C   UNL     1      17.854   6.461  20.426  0.00  0.00    +0.027 A 
ATOM     25  C   UNL     1      18.614   7.225  21.307  0.00  0.00    +0.055 A 
ATOM     27  C   UNL     1      23.063   9.206  25.373  0.00  0.00    +0.213 C 
ATOM     28  C   UNL     1      18.436   5.382  19.771  0.00  0.00    +0.031 A 
ATOM     30  C   UNL     1      19.770   5.109  20.028  0.00  0.00    +0.113 A 
ATOM     31  C   UNL     1      24.541   9.298  25.088  0.00  0.00    +0.109 C 
ENDBRANCH  22  23
BRANCH  15  10
ATOM      3  N   UNL     1      12.475   8.703  19.805  0.00  0.00    -0.287 NA
ATOM     10  C   UNL     1      13.319   8.277  20.939  0.00  0.00    +0.146 C 
ATOM     11  C   UNL     1      12.411   7.360  21.779  0.00  0.00    +0.030 C 
ATOM     12  C   UNL     1      11.062   7.380  21.073  0.00  0.00    +0.017 C 
ATOM     13  C   UNL     1      11.093   8.674  20.284  0.00  0.00    +0.085 C 
BRANCH   3  14
ATOM     14  C   UNL     1      12.843  10.010  19.274  0.00  0.00    +0.121 C 
BRANCH  14  16
ATOM      9  N   UNL     1      13.278   8.847  15.698  0.00  0.00    -0.263 NA
ATOM     16  C   UNL     1      13.366   9.915  17.865  0.00  0.00    -0.015 A 
ATOM     24  C   UNL     1      14.377  10.758  17.417  0.00  0.00    +0.008 A 
ATOM     26  C   UNL     1      12.854   8.985  16.974  0.00  0.00    +0.115 A 
ATOM     29  C   UNL     1      14.839  10.646  16.111  0.00  0.00    +0.020 A 
ATOM     32  C   UNL     1      14.263   9.683  15.298  0.00  0.00    +0.111 A 
ENDBRANCH  14  16
ENDBRANCH   3  14
ENDBRANCH  15  10
TORSDOF 4
ENDMDL
MODEL 6
REMARK VINA RESULT:      -7.2     17.071     21.746
REMARK  Name = 51136824
REMARK  5 active torsions:
REMARK  status: ('A' for Active; 'I' for Inactive)
REMARK    1  A    between atoms: N_3  and  C_14
REMARK    2  A    between atoms: C_10  and  C_15
REMARK    3  A    between atoms: C_14  and  C_16
REMARK    4  A    between atoms: C_22  and  C_23
REMARK    5  A    between atoms: C_27  and  C_31
REMARK                            x       y       z     vdW  Elec       q    Type
REMARK                         _______ _______ _______ _____ _____    ______ ____
ROOT
ATOM      1  O   UNL     1      10.970   7.436  -2.742  0.00  0.00    -0.336 OA
ATOM      6  N   UNL     1      10.168   6.135  -1.104  0.00  0.00    -0.190 NA
ATOM      7  N   UNL     1      10.488   8.305  -1.753  0.00  0.00    -0.056 NA
ATOM     15  C   UNL     1      10.742   6.179  -2.279  0.00  0.00    +0.245 A 
ATOM     22  C   UNL     1      10.033   7.464  -0.821  0.00  0.00    +0.202 A 
ENDROOT
BRANCH  22  23
ATOM      2  O   UNL     1      11.573   5.759   8.087  0.00  0.00    -0.276 OA
ATOM      4  N   UNL     1       9.362   7.046   3.941  0.00  0.00    -0.312 N 
ATOM      5  N   UNL     1       9.977   5.808   6.401  0.00  0.00    -0.299 N 
ATOM      8  N   UNL     1       8.270   8.799   2.786  0.00  0.00    -0.240 NA
ATOM     17  C   UNL     1       8.349   7.016   5.004  0.00  0.00    +0.125 C 
ATOM     18  C   UNL     1      10.764   6.969   4.382  0.00  0.00    +0.125 C 
ATOM     19  C   UNL     1       8.589   5.828   5.937  0.00  0.00    +0.126 C 
ATOM     20  C   UNL     1      10.960   5.782   5.321  0.00  0.00    +0.126 C 
ATOM     21  C   UNL     1       9.093   7.727   2.749  0.00  0.00    +0.122 A 
ATOM     23  C   UNL     1       9.434   7.916   0.402  0.00  0.00    +0.027 A 
ATOM     25  C   UNL     1       9.694   7.250   1.595  0.00  0.00    +0.055 A 
ATOM     27  C   UNL     1      10.392   5.794   7.731  0.00  0.00    +0.213 C 
ATOM     28  C   UNL     1       8.594   9.024   0.400  0.00  0.00    +0.031 A 
ATOM     30  C   UNL     1       8.042   9.422   1.607  0.00  0.00    +0.113 A 
ATOM     31  C   UNL     1       9.305   5.826   8.775  0.00  0.00    +0.109 C 
ENDBRANCH  22  23
BRANCH  15  10
ATOM      3  N   UNL     1      11.871   3.967  -2.436  0.00  0.00    -0.287 NA
ATOM     10  C   UNL     1      11.179   5.040  -3.177  0.00  0.00    +0.146 C 
ATOM     11  C   UNL     1       9.996   4.339  -3.869  0.00  0.00    +0.030 C 
ATOM     12  C   UNL     1      10.139   2.867  -3.508  0.00  0.00    +0.017 C 
ATOM     13  C   UNL     1      11.609   2.726  -3.167  0.00  0.00    +0.085 C 
BRANCH   3  14
ATOM     14  C   UNL     1      13.298   4.212  -2.267  0.00  0.00    +0.121 C 
BRANCH  14  16
ATOM      9  N   UNL     1      15.536   3.911   0.772  0.00  0.00    -0.263 NA
ATOM     16  C   UNL     1      13.747   3.948  -0.854  0.00  0.00    -0.015 A 
ATOM     24  C   UNL     1      12.849   3.511   0.114  0.00  0.00    +0.008 A 
ATOM     26  C   UNL     1      15.068   4.131  -0.477  0.00  0.00    +0.115 A 
ATOM     29  C   UNL     1      13.292   3.275   1.410  0.00  0.00    +0.020 A 
ATOM     32  C   UNL     1      14.634   3.488   1.685  0.00  0.00    +0.111 A 
ENDBRANCH  14  16
ENDBRANCH   3  14
ENDBRANCH  15  10
TORSDOF 4
ENDMDL
MODEL 7
REMARK VINA RESULT:      -7.2     28.113     30.361
REMARK  Name = 51136824
REMARK  5 active torsions:
REMARK  status: ('A' for Active; 'I' for Inactive)
REMARK    1  A    between atoms: N_3  and  C_14
REMARK    2  A    between atoms: C_10  and  C_15
REMARK    3  A    between atoms: C_14  and  C_16
REMARK    4  A    between atoms: C_22  and  C_23
REMARK    5  A    between atoms: C_27  and  C_31
REMARK                            x       y       z     vdW  Elec       q    Type
REMARK                         _______ _______ _______ _____ _____    ______ ____
ROOT
ATOM      1  O   UNL     1      -6.590  -7.961   8.953  0.00  0.00    -0.336 OA
ATOM      6  N   UNL     1      -5.793 -10.054   9.012  0.00  0.00    -0.190 NA
ATOM      7  N   UNL     1      -5.725  -8.018  10.054  0.00  0.00    -0.056 NA
ATOM     15  C   UNL     1      -6.572  -9.201   8.397  0.00  0.00    +0.245 A 
ATOM     22  C   UNL     1      -5.294  -9.282  10.022  0.00  0.00    +0.202 A 
ENDROOT
BRANCH  22  23
ATOM      2  O   UNL     1      -6.173 -13.042  18.372  0.00  0.00    -0.276 OA
ATOM      4  N   UNL     1      -4.276 -10.779  14.497  0.00  0.00    -0.312 N 
ATOM      5  N   UNL     1      -5.111 -11.401  17.121  0.00  0.00    -0.299 N 
ATOM      8  N   UNL     1      -2.567 -10.833  12.861  0.00  0.00    -0.240 NA
ATOM     17  C   UNL     1      -3.316 -10.665  15.603  0.00  0.00    +0.125 C 
ATOM     18  C   UNL     1      -5.385 -11.726  14.699  0.00  0.00    +0.125 C 
ATOM     19  C   UNL     1      -4.048 -10.413  16.921  0.00  0.00    +0.126 C 
ATOM     20  C   UNL     1      -6.081 -11.451  16.030  0.00  0.00    +0.126 C 
ATOM     21  C   UNL     1      -3.849 -10.550  13.185  0.00  0.00    +0.122 A 
ATOM     23  C   UNL     1      -4.369  -9.807  10.985  0.00  0.00    +0.027 A 
ATOM     25  C   UNL     1      -4.780 -10.041  12.293  0.00  0.00    +0.055 A 
ATOM     27  C   UNL     1      -5.254 -12.232  18.229  0.00  0.00    +0.213 C 
ATOM     28  C   UNL     1      -3.059 -10.086  10.614  0.00  0.00    +0.031 A 
ATOM     30  C   UNL     1      -2.204 -10.594  11.580  0.00  0.00    +0.113 A 
ATOM     31  C   UNL     1      -4.201 -12.109  19.302  0.00  0.00    +0.109 C 
ENDBRANCH  22  23
BRANCH  15  10
ATOM      3  N   UNL     1      -8.408  -8.306   6.976  0.00  0.00    -0.287 NA
ATOM     10  C   UNL     1      -7.439  -9.403   7.172  0.00  0.00    +0.146 C 
ATOM     11  C   UNL     1      -6.624  -9.444   5.866  0.00  0.00    +0.030 C 
ATOM     12  C   UNL     1      -7.245  -8.377   4.975  0.00  0.00    +0.017 C 
ATOM     13  C   UNL     1      -8.645  -8.218   5.534  0.00  0.00    +0.085 C 
BRANCH   3  14
ATOM     14  C   UNL     1      -9.645  -8.491   7.724  0.00  0.00    +0.121 C 
BRANCH  14  16
ATOM      9  N   UNL     1     -11.656  -6.077   9.837  0.00  0.00    -0.263 NA
ATOM     16  C   UNL     1     -10.109  -7.209   8.363  0.00  0.00    -0.015 A 
ATOM     24  C   UNL     1      -9.468  -6.003   8.099  0.00  0.00    +0.008 A 
ATOM     26  C   UNL     1     -11.188  -7.192   9.232  0.00  0.00    +0.115 A 
ATOM     29  C   UNL     1      -9.919  -4.835   8.702  0.00  0.00    +0.020 A 
ATOM     32  C   UNL     1     -11.007  -4.925   9.556  0.00  0.00    +0.111 A 
ENDBRANCH  14  16
ENDBRANCH   3  14
ENDBRANCH  15  10
TORSDOF 4
ENDMDL
MODEL 8
REMARK VINA RESULT:      -7.2      2.452     10.824
REMARK  Name = 51136824
REMARK  5 active torsions:
REMARK  status: ('A' for Active; 'I' for Inactive)
REMARK    1  A    between atoms: N_3  and  C_14
REMARK    2  A    between atoms: C_10  and  C_15
REMARK    3  A    between atoms: C_14  and  C_16
REMARK    4  A    between atoms: C_22  and  C_23
REMARK    5  A    between atoms: C_27  and  C_31
REMARK                            x       y       z     vdW  Elec       q    Type
REMARK                         _______ _______ _______ _____ _____    ______ ____
ROOT
ATOM      1  O   UNL     1      21.356   6.466  23.154  0.00  0.00    -0.336 OA
ATOM      6  N   UNL     1      21.152   6.718  20.937  0.00  0.00    -0.190 NA
ATOM      7  N   UNL     1      20.004   6.251  22.859  0.00  0.00    -0.056 NA
ATOM     15  C   UNL     1      21.960   6.735  21.966  0.00  0.00    +0.245 A 
ATOM     22  C   UNL     1      19.962   6.416  21.535  0.00  0.00    +0.202 A 
ENDROOT
BRANCH  22  23
ATOM      2  O   UNL     1      11.894  10.836  21.563  0.00  0.00    -0.276 OA
ATOM      4  N   UNL     1      15.279   7.395  20.898  0.00  0.00    -0.312 N 
ATOM      5  N   UNL     1      12.936   8.764  21.674  0.00  0.00    -0.299 N 
ATOM      8  N   UNL     1      16.388   6.045  19.302  0.00  0.00    -0.240 NA
ATOM     17  C   UNL     1      13.968   6.806  20.596  0.00  0.00    +0.125 C 
ATOM     18  C   UNL     1      15.310   8.859  21.044  0.00  0.00    +0.125 C 
ATOM     19  C   UNL     1      12.917   7.303  21.589  0.00  0.00    +0.126 C 
ATOM     20  C   UNL     1      14.239   9.318  22.031  0.00  0.00    +0.126 C 
ATOM     21  C   UNL     1      16.442   6.762  20.447  0.00  0.00    +0.122 A 
ATOM     23  C   UNL     1      18.750   6.290  20.778  0.00  0.00    +0.027 A 
ATOM     25  C   UNL     1      17.586   6.914  21.214  0.00  0.00    +0.055 A 
ATOM     27  C   UNL     1      11.847   9.607  21.466  0.00  0.00    +0.213 C 
ATOM     28  C   UNL     1      18.734   5.544  19.605  0.00  0.00    +0.031 A 
ATOM     30  C   UNL     1      17.538   5.453  18.909  0.00  0.00    +0.113 A 
ATOM     31  C   UNL     1      10.543   8.944  21.098  0.00  0.00    +0.109 C 
ENDBRANCH  22  23
BRANCH  15  10
ATOM      3  N   UNL     1      24.254   5.828  21.641  0.00  0.00    -0.287 NA
ATOM     10  C   UNL     1      23.449   7.008  22.014  0.00  0.00    +0.146 C 
ATOM     11  C   UNL     1      23.885   8.107  21.027  0.00  0.00    +0.030 C 
ATOM     12  C   UNL     1      24.979   7.471  20.180  0.00  0.00    +0.017 C 
ATOM     13  C   UNL     1      25.492   6.341  21.051  0.00  0.00    +0.085 C 
BRANCH   3  14
ATOM     14  C   UNL     1      24.512   4.930  22.760  0.00  0.00    +0.121 C 
BRANCH  14  16
ATOM      9  N   UNL     1      25.453   1.265  22.637  0.00  0.00    -0.263 NA
ATOM     16  C   UNL     1      24.560   3.490  22.324  0.00  0.00    -0.015 A 
ATOM     24  C   UNL     1      23.798   3.041  21.250  0.00  0.00    +0.008 A 
ATOM     26  C   UNL     1      25.364   2.570  22.978  0.00  0.00    +0.115 A 
ATOM     29  C   UNL     1      23.862   1.706  20.870  0.00  0.00    +0.020 A 
ATOM     32  C   UNL     1      24.698   0.866  21.589  0.00  0.00    +0.111 A 
ENDBRANCH  14  16
ENDBRANCH   3  14
ENDBRANCH  15  10
TORSDOF 4
ENDMDL
MODEL 9
REMARK VINA RESULT:      -7.0      2.543     10.426
REMARK  Name = 51136824
REMARK  5 active torsions:
REMARK  status: ('A' for Active; 'I' for Inactive)
REMARK    1  A    between atoms: N_3  and  C_14
REMARK    2  A    between atoms: C_10  and  C_15
REMARK    3  A    between atoms: C_14  and  C_16
REMARK    4  A    between atoms: C_22  and  C_23
REMARK    5  A    between atoms: C_27  and  C_31
REMARK                            x       y       z     vdW  Elec       q    Type
REMARK                         _______ _______ _______ _____ _____    ______ ____
ROOT
ATOM      1  O   UNL     1      21.429   5.193  23.455  0.00  0.00    -0.336 OA
ATOM      6  N   UNL     1      20.861   5.597  21.326  0.00  0.00    -0.190 NA
ATOM      7  N   UNL     1      20.579   6.306  23.483  0.00  0.00    -0.056 NA
ATOM     15  C   UNL     1      21.542   4.839  22.148  0.00  0.00    +0.245 A 
ATOM     22  C   UNL     1      20.286   6.483  22.192  0.00  0.00    +0.202 A 
ENDROOT
BRANCH  22  23
ATOM      2  O   UNL     1      11.274   7.099  20.453  0.00  0.00    -0.276 OA
ATOM      4  N   UNL     1      16.065   7.983  20.395  0.00  0.00    -0.312 N 
ATOM      5  N   UNL     1      13.408   7.444  19.608  0.00  0.00    -0.299 N 
ATOM      8  N   UNL     1      17.749   9.586  20.837  0.00  0.00    -0.240 NA
ATOM     17  C   UNL     1      15.437   8.817  19.362  0.00  0.00    +0.125 C 
ATOM     18  C   UNL     1      15.147   7.330  21.342  0.00  0.00    +0.125 C 
ATOM     19  C   UNL     1      14.335   8.039  18.643  0.00  0.00    +0.126 C 
ATOM     20  C   UNL     1      14.054   6.575  20.588  0.00  0.00    +0.126 C 
ATOM     21  C   UNL     1      17.352   8.293  20.848  0.00  0.00    +0.122 A 
ATOM     23  C   UNL     1      19.426   7.535  21.732  0.00  0.00    +0.027 A 
ATOM     25  C   UNL     1      18.143   7.242  21.280  0.00  0.00    +0.055 A 
ATOM     27  C   UNL     1      12.028   7.631  19.634  0.00  0.00    +0.213 C 
ATOM     28  C   UNL     1      19.870   8.852  21.737  0.00  0.00    +0.031 A 
ATOM     30  C   UNL     1      19.001   9.833  21.284  0.00  0.00    +0.113 A 
ATOM     31  C   UNL     1      11.453   8.548  18.584  0.00  0.00    +0.109 C 
ENDBRANCH  22  23
BRANCH  15  10
ATOM      3  N   UNL     1      23.824   4.022  21.585  0.00  0.00    -0.287 NA
ATOM     10  C   UNL     1      22.421   3.643  21.846  0.00  0.00    +0.146 C 
ATOM     11  C   UNL     1      22.495   2.648  23.018  0.00  0.00    +0.030 C 
ATOM     12  C   UNL     1      23.981   2.484  23.308  0.00  0.00    +0.017 C 
ATOM     13  C   UNL     1      24.644   2.885  22.005  0.00  0.00    +0.085 C 
BRANCH   3  14
ATOM     14  C   UNL     1      24.071   4.393  20.198  0.00  0.00    +0.121 C 
BRANCH  14  16
ATOM      9  N   UNL     1      26.805   6.918  19.498  0.00  0.00    -0.263 NA
ATOM     16  C   UNL     1      24.796   5.709  20.091  0.00  0.00    -0.015 A 
ATOM     24  C   UNL     1      24.181   6.899  20.464  0.00  0.00    +0.008 A 
ATOM     26  C   UNL     1      26.098   5.772  19.618  0.00  0.00    +0.115 A 
ATOM     29  C   UNL     1      24.876   8.098  20.355  0.00  0.00    +0.020 A 
ATOM     32  C   UNL     1      26.174   8.054  19.871  0.00  0.00    +0.111 A 
ENDBRANCH  14  16
ENDBRANCH   3  14
ENDBRANCH  15  10
TORSDOF 4
ENDMDL
MODEL 10
REMARK VINA RESULT:      -7.0      2.142     10.692
REMARK  Name = 51136824
REMARK  5 active torsions:
REMARK  status: ('A' for Active; 'I' for Inactive)
REMARK    1  A    between atoms: N_3  and  C_14
REMARK    2  A    between atoms: C_10  and  C_15
REMARK    3  A    between atoms: C_14  and  C_16
REMARK    4  A    between atoms: C_22  and  C_23
REMARK    5  A    between atoms: C_27  and  C_31
REMARK                            x       y       z     vdW  Elec       q    Type
REMARK                         _______ _______ _______ _____ _____    ______ ____
ROOT
ATOM      1  O   UNL     1      21.842   4.240  20.485  0.00  0.00    -0.336 OA
ATOM      6  N   UNL     1      22.271   6.228  21.425  0.00  0.00    -0.190 NA
ATOM      7  N   UNL     1      20.618   4.919  20.536  0.00  0.00    -0.056 NA
ATOM     15  C   UNL     1      22.761   5.081  21.028  0.00  0.00    +0.245 A 
ATOM     22  C   UNL     1      20.952   6.082  21.102  0.00  0.00    +0.202 A 
ENDROOT
BRANCH  22  23
ATOM      2  O   UNL     1      11.827   6.762  20.152  0.00  0.00    -0.276 OA
ATOM      4  N   UNL     1      16.532   7.951  20.581  0.00  0.00    -0.312 N 
ATOM      5  N   UNL     1      13.875   7.734  19.654  0.00  0.00    -0.299 N 
ATOM      8  N   UNL     1      18.126   9.136  21.868  0.00  0.00    -0.240 NA
ATOM     17  C   UNL     1      15.785   9.171  20.247  0.00  0.00    +0.125 C 
ATOM     18  C   UNL     1      15.723   6.784  20.968  0.00  0.00    +0.125 C 
ATOM     19  C   UNL     1      14.696   8.865  19.218  0.00  0.00    +0.126 C 
ATOM     20  C   UNL     1      14.640   6.519  19.924  0.00  0.00    +0.126 C 
ATOM     21  C   UNL     1      17.820   8.054  21.117  0.00  0.00    +0.122 A 
ATOM     23  C   UNL     1      19.994   7.118  21.361  0.00  0.00    +0.027 A 
ATOM     25  C   UNL     1      18.709   7.028  20.836  0.00  0.00    +0.055 A 
ATOM     27  C   UNL     1      12.490   7.741  19.799  0.00  0.00    +0.213 C 
ATOM     28  C   UNL     1      20.345   8.215  22.139  0.00  0.00    +0.031 A 
ATOM     30  C   UNL     1      19.384   9.188  22.362  0.00  0.00    +0.113 A 
ATOM     31  C   UNL     1      11.788   9.041  19.499  0.00  0.00    +0.109 C 
ENDBRANCH  22  23
BRANCH  15  10
ATOM      3  N   UNL     1      24.302   3.292  21.812  0.00  0.00    -0.287 NA
ATOM     10  C   UNL     1      24.187   4.574  21.090  0.00  0.00    +0.146 C 
ATOM     11  C   UNL     1      24.779   4.293  19.697  0.00  0.00    +0.030 C 
ATOM     12  C   UNL     1      25.255   2.848  19.751  0.00  0.00    +0.017 C 
ATOM     13  C   UNL     1      25.449   2.592  21.232  0.00  0.00    +0.085 C 
BRANCH   3  14
ATOM     14  C   UNL     1      24.432   3.454  23.255  0.00  0.00    +0.121 C 
BRANCH  14  16
ATOM      9  N   UNL     1      24.352   0.132  25.069  0.00  0.00    -0.263 NA
ATOM     16  C   UNL     1      23.909   2.256  24.003  0.00  0.00    -0.015 A 
ATOM     24  C   UNL     1      22.560   2.142  24.319  0.00  0.00    +0.008 A 
ATOM     26  C   UNL     1      24.757   1.233  24.397  0.00  0.00    +0.115 A 
ATOM     29  C   UNL     1      22.105   1.025  25.010  0.00  0.00    +0.020 A 
ATOM     32  C   UNL     1      23.033   0.056  25.359  0.00  0.00    +0.111 A 
ENDBRANCH  14  16
ENDBRANCH   3  14
ENDBRANCH  15  10
TORSDOF 4
ENDMDL
