REMARK  Name = 71694322
REMARK  5 active torsions:
REMARK  status: ('A' for Active; 'I' for Inactive)
REMARK    1  A    between atoms: O_6  and  C_26
REMARK    2  A    between atoms: O_6  and  C_27
REMARK    3  A    between atoms: C_10  and  C_13
REMARK    4  A    between atoms: C_14  and  C_18
REMARK    5  A    between atoms: C_19  and  C_21
REMARK                            x       y       z     vdW  Elec       q    Type
REMARK                         _______ _______ _______ _____ _____    ______ ____
ROOT
ATOM      8  N   UNL     1       0.737   0.517   0.468  0.00  0.00    -0.340 N 
ATOM      9  N   UNL     1       1.714   2.161  -0.661  0.00  0.00    -0.238 NA
ATOM     18  C   UNL     1       1.886   1.223   0.243  0.00  0.00    +0.130 A 
ATOM     19  C   UNL     1      -0.230   1.039  -0.345  0.00  0.00    +0.066 A 
ATOM     20  C   UNL     1       0.397   2.052  -1.032  0.00  0.00    +0.139 A 
ATOM     28  H   UNL     1       0.630  -0.245   1.125  0.00  0.00    +0.167 HD
ENDROOT
BRANCH  18  14
ATOM      4  O   UNL     1       4.851   2.500   0.148  0.00  0.00    -0.376 OA
ATOM      5  O   UNL     1       2.900  -1.882   1.525  0.00  0.00    -0.275 OA
ATOM      7  N   UNL     1       3.935  -0.174   0.322  0.00  0.00    -0.287 N 
ATOM     13  C   UNL     1       3.668  -1.513   0.640  0.00  0.00    +0.219 C 
ATOM     14  C   UNL     1       3.175   0.900   0.991  0.00  0.00    +0.167 C 
ATOM     15  C   UNL     1       4.856   0.251  -0.739  0.00  0.00    +0.136 C 
ATOM     16  C   UNL     1       4.072   2.116   1.282  0.00  0.00    +0.190 C 
ATOM     17  C   UNL     1       5.695   1.434  -0.283  0.00  0.00    +0.179 C 
BRANCH  13  10
ATOM     10  C   UNL     1       4.374  -2.563  -0.155  0.00  0.00    +0.075 C 
ATOM     11  C   UNL     1       3.747  -3.911  -0.266  0.00  0.00    +0.013 C 
ATOM     12  C   UNL     1       3.776  -2.994  -1.452  0.00  0.00    +0.013 C 
ENDBRANCH  13  10
ENDBRANCH  18  14
BRANCH  19  21
ATOM     21  C   UNL     1      -1.581   0.546  -0.385  0.00  0.00    +0.000 A 
ATOM     22  C   UNL     1      -2.630   1.411  -0.697  0.00  0.00    +0.013 A 
ATOM     23  C   UNL     1      -1.842  -0.797  -0.112  0.00  0.00    +0.013 A 
ATOM     24  C   UNL     1      -3.940   0.933  -0.737  0.00  0.00    +0.046 A 
ATOM     25  C   UNL     1      -3.152  -1.275  -0.152  0.00  0.00    +0.046 A 
ATOM     26  C   UNL     1      -4.201  -0.410  -0.464  0.00  0.00    +0.130 A 
BRANCH  26   6
ATOM      6  O   UNL     1      -5.479  -0.877  -0.506  0.00  0.00    -0.406 OA
BRANCH   6  27
ATOM      1  F   UNL     1      -7.090   0.721  -0.223  0.00  0.00    -0.133 F 
ATOM      2  F   UNL     1      -7.349  -1.241   0.705  0.00  0.00    -0.133 F 
ATOM      3  F   UNL     1      -5.853   0.133   1.512  0.00  0.00    -0.133 F 
ATOM     27  C   UNL     1      -6.437  -0.299   0.373  0.00  0.00    +0.575 C 
ENDBRANCH   6  27
ENDBRANCH  26   6
ENDBRANCH  19  21
TORSDOF 5
