MODEL 1
REMARK VINA RESULT:      -6.8      0.000      0.000
REMARK  Name = 45784011
REMARK  3 active torsions:
REMARK  status: ('A' for Active; 'I' for Inactive)
REMARK    1  A    between atoms: C_5  and  C_10
REMARK    2  A    between atoms: C_8  and  C_13
REMARK    3  A    between atoms: C_18  and  C_20
REMARK                            x       y       z     vdW  Elec       q    Type
REMARK                         _______ _______ _______ _____ _____    ______ ____
ROOT
ATOM      3  N   UNL     1      15.158   8.839  20.159  0.00  0.00    -0.342 N 
ATOM      4  N   UNL     1      14.815   7.363  18.533  0.00  0.00    -0.232 NA
ATOM     13  C   UNL     1      14.361   8.448  19.120  0.00  0.00    +0.113 A 
ATOM     14  C   UNL     1      16.195   7.947  20.251  0.00  0.00    +0.066 A 
ATOM     15  C   UNL     1      15.959   7.036  19.225  0.00  0.00    +0.089 A 
ATOM     16  C   UNL     1      17.286   7.861  21.116  0.00  0.00    +0.031 A 
ATOM     17  C   UNL     1      16.854   5.969  19.036  0.00  0.00    +0.030 A 
ATOM     18  C   UNL     1      18.168   6.793  20.913  0.00  0.00    -0.048 A 
ATOM     19  C   UNL     1      17.956   5.863  19.893  0.00  0.00    +0.005 A 
ATOM     20  C   UNL     1      19.355   6.647  21.807  0.00  0.00    +0.044 C 
ATOM     21  H   UNL     1      15.012   9.643  20.756  0.00  0.00    +0.167 HD
ENDROOT
BRANCH  13   8
ATOM      1  O   UNL     1      10.487   9.671  22.572  0.00  0.00    -0.275 OA
ATOM      2  N   UNL     1      11.740   9.716  20.627  0.00  0.00    -0.301 N 
ATOM      8  C   UNL     1      13.113   9.228  18.745  0.00  0.00    +0.074 C 
ATOM      9  C   UNL     1      12.687  10.345  19.709  0.00  0.00    +0.119 C 
ATOM     10  C   UNL     1      11.268  10.242  21.817  0.00  0.00    +0.219 C 
ATOM     11  C   UNL     1      11.868   8.328  18.725  0.00  0.00    +0.032 C 
ATOM     12  C   UNL     1      11.341   8.400  20.152  0.00  0.00    +0.108 C 
BRANCH  10   5
ATOM      5  C   UNL     1      11.780  11.593  22.199  0.00  0.00    +0.075 C 
ATOM      6  C   UNL     1      10.945  12.802  21.896  0.00  0.00    +0.013 C 
ATOM      7  C   UNL     1      11.110  12.341  23.314  0.00  0.00    +0.013 C 
ENDBRANCH  10   5
ENDBRANCH  13   8
TORSDOF 2
ENDMDL
MODEL 2
REMARK VINA RESULT:      -6.6     26.696     27.921
REMARK  Name = 45784011
REMARK  3 active torsions:
REMARK  status: ('A' for Active; 'I' for Inactive)
REMARK    1  A    between atoms: C_5  and  C_10
REMARK    2  A    between atoms: C_8  and  C_13
REMARK    3  A    between atoms: C_18  and  C_20
REMARK                            x       y       z     vdW  Elec       q    Type
REMARK                         _______ _______ _______ _____ _____    ______ ____
ROOT
ATOM      3  N   UNL     1      -2.771 -11.478  16.367  0.00  0.00    -0.342 N 
ATOM      4  N   UNL     1      -4.116 -10.446  14.930  0.00  0.00    -0.232 NA
ATOM     13  C   UNL     1      -2.936 -11.001  15.098  0.00  0.00    +0.113 A 
ATOM     14  C   UNL     1      -3.919 -11.214  17.068  0.00  0.00    +0.066 A 
ATOM     15  C   UNL     1      -4.743 -10.570  16.149  0.00  0.00    +0.089 A 
ATOM     16  C   UNL     1      -4.297 -11.474  18.385  0.00  0.00    +0.031 A 
ATOM     17  C   UNL     1      -6.024 -10.154  16.551  0.00  0.00    +0.030 A 
ATOM     18  C   UNL     1      -5.576 -11.054  18.769  0.00  0.00    -0.048 A 
ATOM     19  C   UNL     1      -6.425 -10.405  17.869  0.00  0.00    +0.005 A 
ATOM     20  C   UNL     1      -6.038 -11.305  20.166  0.00  0.00    +0.044 C 
ATOM     21  H   UNL     1      -1.949 -11.945  16.729  0.00  0.00    +0.167 HD
ENDROOT
BRANCH  13   8
ATOM      1  O   UNL     1      -3.865 -11.767   9.904  0.00  0.00    -0.275 OA
ATOM      2  N   UNL     1      -2.696 -11.274  11.839  0.00  0.00    -0.301 N 
ATOM      8  C   UNL     1      -1.839 -11.134  14.055  0.00  0.00    +0.074 C 
ATOM      9  C   UNL     1      -2.032 -10.345  12.752  0.00  0.00    +0.119 C 
ATOM     10  C   UNL     1      -3.299 -10.959  10.633  0.00  0.00    +0.219 C 
ATOM     11  C   UNL     1      -1.717 -12.577  13.543  0.00  0.00    +0.032 C 
ATOM     12  C   UNL     1      -2.680 -12.631  12.365  0.00  0.00    +0.108 C 
BRANCH  10   5
ATOM      5  C   UNL     1      -3.265  -9.523  10.225  0.00  0.00    +0.075 C 
ATOM      6  C   UNL     1      -4.114  -9.071   9.073  0.00  0.00    +0.013 C 
ATOM      7  C   UNL     1      -4.469  -8.663  10.473  0.00  0.00    +0.013 C 
ENDBRANCH  10   5
ENDBRANCH  13   8
TORSDOF 2
ENDMDL
MODEL 3
REMARK VINA RESULT:      -6.4      1.729      2.619
REMARK  Name = 45784011
REMARK  3 active torsions:
REMARK  status: ('A' for Active; 'I' for Inactive)
REMARK    1  A    between atoms: C_5  and  C_10
REMARK    2  A    between atoms: C_8  and  C_13
REMARK    3  A    between atoms: C_18  and  C_20
REMARK                            x       y       z     vdW  Elec       q    Type
REMARK                         _______ _______ _______ _____ _____    ______ ____
ROOT
ATOM      3  N   UNL     1      13.497   8.070  20.221  0.00  0.00    -0.342 N 
ATOM      4  N   UNL     1      14.245   9.872  21.287  0.00  0.00    -0.232 NA
ATOM     13  C   UNL     1      13.181   9.258  20.818  0.00  0.00    +0.113 A 
ATOM     14  C   UNL     1      14.856   7.905  20.309  0.00  0.00    +0.066 A 
ATOM     15  C   UNL     1      15.299   9.042  20.979  0.00  0.00    +0.089 A 
ATOM     16  C   UNL     1      15.709   6.890  19.874  0.00  0.00    +0.031 A 
ATOM     17  C   UNL     1      16.672   9.192  21.239  0.00  0.00    +0.030 A 
ATOM     18  C   UNL     1      17.072   7.056  20.142  0.00  0.00    -0.048 A 
ATOM     19  C   UNL     1      17.546   8.186  20.812  0.00  0.00    +0.005 A 
ATOM     20  C   UNL     1      18.035   6.003  19.702  0.00  0.00    +0.044 C 
ATOM     21  H   UNL     1      12.848   7.425  19.790  0.00  0.00    +0.167 HD
ENDROOT
BRANCH  13   8
ATOM      1  O   UNL     1      10.846  10.907  25.318  0.00  0.00    -0.275 OA
ATOM      2  N   UNL     1      11.168  10.564  23.052  0.00  0.00    -0.301 N 
ATOM      8  C   UNL     1      11.745   9.747  20.893  0.00  0.00    +0.074 C 
ATOM      9  C   UNL     1      11.496  11.026  21.705  0.00  0.00    +0.119 C 
ATOM     10  C   UNL     1      11.105  11.338  24.199  0.00  0.00    +0.219 C 
ATOM     11  C   UNL     1      10.839   8.731  21.606  0.00  0.00    +0.032 C 
ATOM     12  C   UNL     1      10.926   9.130  23.073  0.00  0.00    +0.108 C 
BRANCH  10   5
ATOM      5  C   UNL     1      11.402  12.793  24.039  0.00  0.00    +0.075 C 
ATOM      6  C   UNL     1      10.262  13.762  23.925  0.00  0.00    +0.013 C 
ATOM      7  C   UNL     1      11.098  13.730  25.171  0.00  0.00    +0.013 C 
ENDBRANCH  10   5
ENDBRANCH  13   8
TORSDOF 2
ENDMDL
MODEL 4
REMARK VINA RESULT:      -6.2     15.370     17.891
REMARK  Name = 45784011
REMARK  3 active torsions:
REMARK  status: ('A' for Active; 'I' for Inactive)
REMARK    1  A    between atoms: C_5  and  C_10
REMARK    2  A    between atoms: C_8  and  C_13
REMARK    3  A    between atoms: C_18  and  C_20
REMARK                            x       y       z     vdW  Elec       q    Type
REMARK                         _______ _______ _______ _____ _____    ______ ____
ROOT
ATOM      3  N   UNL     1       9.988   5.135   4.933  0.00  0.00    -0.342 N 
ATOM      4  N   UNL     1       9.264   7.236   4.893  0.00  0.00    -0.232 NA
ATOM     13  C   UNL     1       9.713   6.234   4.169  0.00  0.00    +0.113 A 
ATOM     14  C   UNL     1       9.699   5.446   6.236  0.00  0.00    +0.066 A 
ATOM     15  C   UNL     1       9.248   6.762   6.185  0.00  0.00    +0.089 A 
ATOM     16  C   UNL     1       9.789   4.713   7.420  0.00  0.00    +0.031 A 
ATOM     17  C   UNL     1       8.860   7.401   7.375  0.00  0.00    +0.030 A 
ATOM     18  C   UNL     1       9.399   5.364   8.596  0.00  0.00    -0.048 A 
ATOM     19  C   UNL     1       8.943   6.684   8.575  0.00  0.00    +0.005 A 
ATOM     20  C   UNL     1       9.472   4.632   9.894  0.00  0.00    +0.044 C 
ATOM     21  H   UNL     1      10.341   4.247   4.599  0.00  0.00    +0.167 HD
ENDROOT
BRANCH  13   8
ATOM      1  O   UNL     1      14.516   6.325   1.858  0.00  0.00    -0.275 OA
ATOM      2  N   UNL     1      12.225   6.080   2.068  0.00  0.00    -0.301 N 
ATOM      8  C   UNL     1       9.926   6.224   2.665  0.00  0.00    +0.074 C 
ATOM      9  C   UNL     1      11.008   5.273   2.132  0.00  0.00    +0.119 C 
ATOM     10  C   UNL     1      13.516   5.615   1.885  0.00  0.00    +0.219 C 
ATOM     11  C   UNL     1      10.414   7.588   2.153  0.00  0.00    +0.032 C 
ATOM     12  C   UNL     1      11.931   7.493   2.250  0.00  0.00    +0.108 C 
BRANCH  10   5
ATOM      5  C   UNL     1      13.679   4.137   1.737  0.00  0.00    +0.075 C 
ATOM      6  C   UNL     1      13.878   3.558   0.368  0.00  0.00    +0.013 C 
ATOM      7  C   UNL     1      15.017   3.584   1.344  0.00  0.00    +0.013 C 
ENDBRANCH  10   5
ENDBRANCH  13   8
TORSDOF 2
ENDMDL
MODEL 5
REMARK VINA RESULT:      -6.1     27.016     29.656
REMARK  Name = 45784011
REMARK  3 active torsions:
REMARK  status: ('A' for Active; 'I' for Inactive)
REMARK    1  A    between atoms: C_5  and  C_10
REMARK    2  A    between atoms: C_8  and  C_13
REMARK    3  A    between atoms: C_18  and  C_20
REMARK                            x       y       z     vdW  Elec       q    Type
REMARK                         _______ _______ _______ _____ _____    ______ ____
ROOT
ATOM      3  N   UNL     1      -7.801  -9.185  17.809  0.00  0.00    -0.342 N 
ATOM      4  N   UNL     1      -9.013 -10.774  18.780  0.00  0.00    -0.232 NA
ATOM     13  C   UNL     1      -7.797 -10.333  18.550  0.00  0.00    +0.113 A 
ATOM     14  C   UNL     1      -9.107  -8.863  17.541  0.00  0.00    +0.066 A 
ATOM     15  C   UNL     1      -9.844  -9.870  18.159  0.00  0.00    +0.089 A 
ATOM     16  C   UNL     1      -9.689  -7.810  16.835  0.00  0.00    +0.031 A 
ATOM     17  C   UNL     1     -11.246  -9.841  18.076  0.00  0.00    +0.030 A 
ATOM     18  C   UNL     1     -11.087  -7.797  16.763  0.00  0.00    -0.048 A 
ATOM     19  C   UNL     1     -11.852  -8.793  17.372  0.00  0.00    +0.005 A 
ATOM     20  C   UNL     1     -11.769  -6.695  16.021  0.00  0.00    +0.044 C 
ATOM     21  H   UNL     1      -6.988  -8.662  17.510  0.00  0.00    +0.167 HD
ENDROOT
BRANCH  13   8
ATOM      1  O   UNL     1      -4.338 -12.747  15.289  0.00  0.00    -0.275 OA
ATOM      2  N   UNL     1      -5.167 -11.763  17.213  0.00  0.00    -0.301 N 
ATOM      8  C   UNL     1      -6.497 -10.966  19.017  0.00  0.00    +0.074 C 
ATOM      9  C   UNL     1      -5.247 -10.667  18.177  0.00  0.00    +0.119 C 
ATOM     10  C   UNL     1      -4.361 -11.816  16.088  0.00  0.00    +0.219 C 
ATOM     11  C   UNL     1      -6.563 -12.500  18.963  0.00  0.00    +0.032 C 
ATOM     12  C   UNL     1      -6.084 -12.837  17.557  0.00  0.00    +0.108 C 
BRANCH  10   5
ATOM      5  C   UNL     1      -3.485 -10.632  15.837  0.00  0.00    +0.075 C 
ATOM      6  C   UNL     1      -2.030 -10.712  16.196  0.00  0.00    +0.013 C 
ATOM      7  C   UNL     1      -2.448 -10.704  14.755  0.00  0.00    +0.013 C 
ENDBRANCH  10   5
ENDBRANCH  13   8
TORSDOF 2
ENDMDL
MODEL 6
REMARK VINA RESULT:      -5.8     28.033     30.022
REMARK  Name = 45784011
REMARK  3 active torsions:
REMARK  status: ('A' for Active; 'I' for Inactive)
REMARK    1  A    between atoms: C_5  and  C_10
REMARK    2  A    between atoms: C_8  and  C_13
REMARK    3  A    between atoms: C_18  and  C_20
REMARK                            x       y       z     vdW  Elec       q    Type
REMARK                         _______ _______ _______ _____ _____    ______ ____
ROOT
ATOM      3  N   UNL     1      -7.893  -9.886  18.414  0.00  0.00    -0.342 N 
ATOM      4  N   UNL     1      -7.305  -9.356  16.337  0.00  0.00    -0.232 NA
ATOM     13  C   UNL     1      -8.256  -9.285  17.241  0.00  0.00    +0.113 A 
ATOM     14  C   UNL     1      -6.624 -10.381  18.256  0.00  0.00    +0.066 A 
ATOM     15  C   UNL     1      -6.279 -10.037  16.952  0.00  0.00    +0.089 A 
ATOM     16  C   UNL     1      -5.774 -11.079  19.115  0.00  0.00    +0.031 A 
ATOM     17  C   UNL     1      -5.015 -10.403  16.459  0.00  0.00    +0.030 A 
ATOM     18  C   UNL     1      -4.519 -11.434  18.608  0.00  0.00    -0.048 A 
ATOM     19  C   UNL     1      -4.145 -11.103  17.303  0.00  0.00    +0.005 A 
ATOM     20  C   UNL     1      -3.565 -12.181  19.479  0.00  0.00    +0.044 C 
ATOM     21  H   UNL     1      -8.457  -9.956  19.250  0.00  0.00    +0.167 HD
ENDROOT
BRANCH  13   8
ATOM      1  O   UNL     1     -12.872 -11.749  18.263  0.00  0.00    -0.275 OA
ATOM      2  N   UNL     1     -11.397 -10.020  17.824  0.00  0.00    -0.301 N 
ATOM      8  C   UNL     1      -9.616  -8.629  17.079  0.00  0.00    +0.074 C 
ATOM      9  C   UNL     1     -10.623  -8.845  18.218  0.00  0.00    +0.119 C 
ATOM     10  C   UNL     1     -12.254 -10.753  18.627  0.00  0.00    +0.219 C 
ATOM     11  C   UNL     1     -10.375  -9.192  15.867  0.00  0.00    +0.032 C 
ATOM     12  C   UNL     1     -11.145 -10.376  16.436  0.00  0.00    +0.108 C 
BRANCH  10   5
ATOM      5  C   UNL     1     -12.401 -10.293  20.041  0.00  0.00    +0.075 C 
ATOM      6  C   UNL     1     -13.642  -9.552  20.442  0.00  0.00    +0.013 C 
ATOM      7  C   UNL     1     -13.418 -10.954  20.924  0.00  0.00    +0.013 C 
ENDBRANCH  10   5
ENDBRANCH  13   8
TORSDOF 2
ENDMDL
MODEL 7
REMARK VINA RESULT:      -5.6     27.136     29.602
REMARK  Name = 45784011
REMARK  3 active torsions:
REMARK  status: ('A' for Active; 'I' for Inactive)
REMARK    1  A    between atoms: C_5  and  C_10
REMARK    2  A    between atoms: C_8  and  C_13
REMARK    3  A    between atoms: C_18  and  C_20
REMARK                            x       y       z     vdW  Elec       q    Type
REMARK                         _______ _______ _______ _____ _____    ______ ____
ROOT
ATOM      3  N   UNL     1       0.563   3.146  -7.172  0.00  0.00    -0.342 N 
ATOM      4  N   UNL     1       2.250   2.749  -5.780  0.00  0.00    -0.232 NA
ATOM     13  C   UNL     1       1.717   3.617  -6.611  0.00  0.00    +0.113 A 
ATOM     14  C   UNL     1       0.337   1.889  -6.673  0.00  0.00    +0.066 A 
ATOM     15  C   UNL     1       1.403   1.665  -5.806  0.00  0.00    +0.089 A 
ATOM     16  C   UNL     1      -0.678   0.958  -6.898  0.00  0.00    +0.031 A 
ATOM     17  C   UNL     1       1.478   0.444  -5.114  0.00  0.00    +0.030 A 
ATOM     18  C   UNL     1      -0.587  -0.252  -6.200  0.00  0.00    -0.048 A 
ATOM     19  C   UNL     1       0.470  -0.506  -5.324  0.00  0.00    +0.005 A 
ATOM     20  C   UNL     1      -1.643  -1.289  -6.397  0.00  0.00    +0.044 C 
ATOM     21  H   UNL     1      -0.022   3.634  -7.838  0.00  0.00    +0.167 HD
ENDROOT
BRANCH  13   8
ATOM      1  O   UNL     1       4.423   6.675  -3.183  0.00  0.00    -0.275 OA
ATOM      2  N   UNL     1       3.562   5.929  -5.198  0.00  0.00    -0.301 N 
ATOM      8  C   UNL     1       2.256   4.995  -6.954  0.00  0.00    +0.074 C 
ATOM      9  C   UNL     1       3.694   5.299  -6.510  0.00  0.00    +0.119 C 
ATOM     10  C   UNL     1       4.578   6.161  -4.286  0.00  0.00    +0.219 C 
ATOM     11  C   UNL     1       1.460   6.106  -6.251  0.00  0.00    +0.032 C 
ATOM     12  C   UNL     1       2.179   6.285  -4.920  0.00  0.00    +0.108 C 
BRANCH  10   5
ATOM      5  C   UNL     1       5.949   5.722  -4.688  0.00  0.00    +0.075 C 
ATOM      6  C   UNL     1       6.923   6.743  -5.196  0.00  0.00    +0.013 C 
ATOM      7  C   UNL     1       7.123   6.124  -3.844  0.00  0.00    +0.013 C 
ENDBRANCH  10   5
ENDBRANCH  13   8
TORSDOF 2
ENDMDL
MODEL 8
REMARK VINA RESULT:      -5.6     26.564     28.253
REMARK  Name = 45784011
REMARK  3 active torsions:
REMARK  status: ('A' for Active; 'I' for Inactive)
REMARK    1  A    between atoms: C_5  and  C_10
REMARK    2  A    between atoms: C_8  and  C_13
REMARK    3  A    between atoms: C_18  and  C_20
REMARK                            x       y       z     vdW  Elec       q    Type
REMARK                         _______ _______ _______ _____ _____    ______ ____
ROOT
ATOM      3  N   UNL     1      -4.720 -10.908  13.725  0.00  0.00    -0.342 N 
ATOM      4  N   UNL     1      -2.539 -11.130  14.090  0.00  0.00    -0.232 NA
ATOM     13  C   UNL     1      -3.742 -11.332  14.580  0.00  0.00    +0.113 A 
ATOM     14  C   UNL     1      -4.109 -10.396  12.609  0.00  0.00    +0.066 A 
ATOM     15  C   UNL     1      -2.748 -10.547  12.861  0.00  0.00    +0.089 A 
ATOM     16  C   UNL     1      -4.613  -9.832  11.437  0.00  0.00    +0.031 A 
ATOM     17  C   UNL     1      -1.821 -10.116  11.898  0.00  0.00    +0.030 A 
ATOM     18  C   UNL     1      -3.676  -9.408  10.489  0.00  0.00    -0.048 A 
ATOM     19  C   UNL     1      -2.304  -9.547  10.714  0.00  0.00    +0.005 A 
ATOM     20  C   UNL     1      -4.154  -8.797   9.213  0.00  0.00    +0.044 C 
ATOM     21  H   UNL     1      -5.718 -10.960  13.884  0.00  0.00    +0.167 HD
ENDROOT
BRANCH  13   8
ATOM      1  O   UNL     1      -7.583  -9.513  17.799  0.00  0.00    -0.275 OA
ATOM      2  N   UNL     1      -5.983 -10.950  16.942  0.00  0.00    -0.301 N 
ATOM      8  C   UNL     1      -4.083 -11.956  15.922  0.00  0.00    +0.074 C 
ATOM      9  C   UNL     1      -5.575 -12.156  16.226  0.00  0.00    +0.119 C 
ATOM     10  C   UNL     1      -7.280 -10.548  17.212  0.00  0.00    +0.219 C 
ATOM     11  C   UNL     1      -3.633 -11.066  17.091  0.00  0.00    +0.032 C 
ATOM     12  C   UNL     1      -4.830 -10.158  17.342  0.00  0.00    +0.108 C 
BRANCH  10   5
ATOM      5  C   UNL     1      -8.372 -11.442  16.722  0.00  0.00    +0.075 C 
ATOM      6  C   UNL     1      -8.994 -12.423  17.672  0.00  0.00    +0.013 C 
ATOM      7  C   UNL     1      -9.772 -11.225  17.214  0.00  0.00    +0.013 C 
ENDBRANCH  10   5
ENDBRANCH  13   8
TORSDOF 2
ENDMDL
MODEL 9
REMARK VINA RESULT:      -5.5     24.889     27.414
REMARK  Name = 45784011
REMARK  3 active torsions:
REMARK  status: ('A' for Active; 'I' for Inactive)
REMARK    1  A    between atoms: C_5  and  C_10
REMARK    2  A    between atoms: C_8  and  C_13
REMARK    3  A    between atoms: C_18  and  C_20
REMARK                            x       y       z     vdW  Elec       q    Type
REMARK                         _______ _______ _______ _____ _____    ______ ____
ROOT
ATOM      3  N   UNL     1     -12.035   8.049  16.218  0.00  0.00    -0.342 N 
ATOM      4  N   UNL     1     -10.354   9.503  16.227  0.00  0.00    -0.232 NA
ATOM     13  C   UNL     1     -11.206   8.842  15.475  0.00  0.00    +0.113 A 
ATOM     14  C   UNL     1     -11.695   8.205  17.537  0.00  0.00    +0.066 A 
ATOM     15  C   UNL     1     -10.644   9.118  17.516  0.00  0.00    +0.089 A 
ATOM     16  C   UNL     1     -12.201   7.646  18.710  0.00  0.00    +0.031 A 
ATOM     17  C   UNL     1     -10.049   9.506  18.729  0.00  0.00    +0.030 A 
ATOM     18  C   UNL     1     -11.598   8.043  19.909  0.00  0.00    -0.048 A 
ATOM     19  C   UNL     1     -10.541   8.957  19.919  0.00  0.00    +0.005 A 
ATOM     20  C   UNL     1     -12.095   7.479  21.198  0.00  0.00    +0.044 C 
ATOM     21  H   UNL     1     -12.770   7.452  15.861  0.00  0.00    +0.167 HD
ENDROOT
BRANCH  13   8
ATOM      1  O   UNL     1     -14.120   5.439  12.585  0.00  0.00    -0.275 OA
ATOM      2  N   UNL     1     -12.868   7.318  13.096  0.00  0.00    -0.301 N 
ATOM      8  C   UNL     1     -11.319   8.903  13.962  0.00  0.00    +0.074 C 
ATOM      9  C   UNL     1     -12.728   8.746  13.372  0.00  0.00    +0.119 C 
ATOM     10  C   UNL     1     -14.040   6.647  12.790  0.00  0.00    +0.219 C 
ATOM     11  C   UNL     1     -10.559   7.748  13.291  0.00  0.00    +0.032 C 
ATOM     12  C   UNL     1     -11.591   6.631  13.205  0.00  0.00    +0.108 C 
BRANCH  10   5
ATOM      5  C   UNL     1     -15.286   7.469  12.735  0.00  0.00    +0.075 C 
ATOM      6  C   UNL     1     -15.812   7.910  11.401  0.00  0.00    +0.013 C 
ATOM      7  C   UNL     1     -16.542   6.860  12.186  0.00  0.00    +0.013 C 
ENDBRANCH  10   5
ENDBRANCH  13   8
TORSDOF 2
ENDMDL
MODEL 10
REMARK VINA RESULT:      -5.5     26.714     28.697
REMARK  Name = 45784011
REMARK  3 active torsions:
REMARK  status: ('A' for Active; 'I' for Inactive)
REMARK    1  A    between atoms: C_5  and  C_10
REMARK    2  A    between atoms: C_8  and  C_13
REMARK    3  A    between atoms: C_18  and  C_20
REMARK                            x       y       z     vdW  Elec       q    Type
REMARK                         _______ _______ _______ _____ _____    ______ ____
ROOT
ATOM      3  N   UNL     1      -4.845 -11.975  16.097  0.00  0.00    -0.342 N 
ATOM      4  N   UNL     1      -3.372 -11.282  17.611  0.00  0.00    -0.232 NA
ATOM     13  C   UNL     1      -4.533 -11.870  17.424  0.00  0.00    +0.113 A 
ATOM     14  C   UNL     1      -3.819 -11.416  15.379  0.00  0.00    +0.066 A 
ATOM     15  C   UNL     1      -2.912 -10.992  16.347  0.00  0.00    +0.089 A 
ATOM     16  C   UNL     1      -3.612 -11.250  14.010  0.00  0.00    +0.031 A 
ATOM     17  C   UNL     1      -1.723 -10.362  15.942  0.00  0.00    +0.030 A 
ATOM     18  C   UNL     1      -2.422 -10.622  13.624  0.00  0.00    -0.048 A 
ATOM     19  C   UNL     1      -1.494 -10.185  14.572  0.00  0.00    +0.005 A 
ATOM     20  C   UNL     1      -2.143 -10.416  12.172  0.00  0.00    +0.044 C 
ATOM     21  H   UNL     1      -5.682 -12.391  15.710  0.00  0.00    +0.167 HD
ENDROOT
BRANCH  13   8
ATOM      1  O   UNL     1      -9.440  -9.967  18.273  0.00  0.00    -0.275 OA
ATOM      2  N   UNL     1      -7.624 -11.396  18.406  0.00  0.00    -0.301 N 
ATOM      8  C   UNL     1      -5.468 -12.398  18.498  0.00  0.00    +0.074 C 
ATOM      9  C   UNL     1      -6.926 -12.638  18.081  0.00  0.00    +0.119 C 
ATOM     10  C   UNL     1      -8.895 -11.031  17.996  0.00  0.00    +0.219 C 
ATOM     11  C   UNL     1      -5.624 -11.397  19.653  0.00  0.00    +0.032 C 
ATOM     12  C   UNL     1      -6.797 -10.525  19.227  0.00  0.00    +0.108 C 
BRANCH  10   5
ATOM      5  C   UNL     1      -9.625 -12.009  17.134  0.00  0.00    +0.075 C 
ATOM      6  C   UNL     1     -10.651 -12.908  17.758  0.00  0.00    +0.013 C 
ATOM      7  C   UNL     1     -11.083 -11.792  16.854  0.00  0.00    +0.013 C 
ENDBRANCH  10   5
ENDBRANCH  13   8
TORSDOF 2
ENDMDL
