MODEL 1
REMARK VINA RESULT:      -6.5      0.000      0.000
REMARK  Name = 28960230
REMARK  11 active torsions:
REMARK  status: ('A' for Active; 'I' for Inactive)
REMARK    1  A    between atoms: N_2  and  C_15
REMARK    2  A    between atoms: N_3  and  C_8
REMARK    3  A    between atoms: N_5  and  C_27
REMARK    4  A    between atoms: C_6  and  C_9
REMARK    5  A    between atoms: C_12  and  C_16
REMARK    6  A    between atoms: C_13  and  C_18
REMARK    7  A    between atoms: C_14  and  C_17
REMARK    8  A    between atoms: C_14  and  C_24
REMARK    9  A    between atoms: C_14  and  C_25
REMARK   10  A    between atoms: C_14  and  C_26
REMARK   11  A    between atoms: C_27  and  C_28
REMARK                            x       y       z     vdW  Elec       q    Type
REMARK                         _______ _______ _______ _____ _____    ______ ____
ROOT
ATOM      2  N   UNL     1      -7.170 -10.251  16.921  0.00  0.00    -0.236 N 
ATOM      4  N   UNL     1      -7.841  -9.096  16.765  0.00  0.00    -0.171 NA
ATOM      9  C   UNL     1      -9.036 -10.599  18.003  0.00  0.00    +0.003 A 
ATOM     12  C   UNL     1      -7.842 -11.184  17.654  0.00  0.00    +0.046 A 
ATOM     13  C   UNL     1      -8.979  -9.315  17.428  0.00  0.00    +0.064 A 
ATOM     16  C   UNL     1      -7.301 -12.526  17.951  0.00  0.00    +0.066 C 
ATOM     18  C   UNL     1      -9.999  -8.253  17.487  0.00  0.00    +0.068 C 
ENDROOT
BRANCH   2  15
ATOM     15  C   UNL     1      -5.905 -10.399  16.351  0.00  0.00    +0.066 A 
ATOM     17  C   UNL     1      -3.376 -10.694  15.212  0.00  0.00    -0.042 A 
ATOM     19  C   UNL     1      -5.775 -10.552  14.970  0.00  0.00    +0.028 A 
ATOM     20  C   UNL     1      -4.771 -10.393  17.161  0.00  0.00    +0.028 A 
ATOM     22  C   UNL     1      -4.511 -10.699  14.401  0.00  0.00    +0.006 A 
ATOM     23  C   UNL     1      -3.505 -10.541  16.592  0.00  0.00    +0.006 A 
BRANCH  17  14
ATOM     14  C   UNL     1      -2.024 -10.852  14.603  0.00  0.00    -0.013 C 
ATOM     24  C   UNL     1      -1.830 -10.164  13.210  0.00  0.00    +0.015 C 
ATOM     25  C   UNL     1      -0.915 -10.248  15.520  0.00  0.00    +0.015 C 
ATOM     26  C   UNL     1      -1.678 -12.356  14.375  0.00  0.00    +0.015 C 
ENDBRANCH  17  14
ENDBRANCH   2  15
BRANCH   9   6
ATOM      6  C   UNL     1     -10.156 -11.203  18.819  0.00  0.00    +0.047 C 
ATOM      7  C   UNL     1     -10.636 -10.289  19.963  0.00  0.00    +0.039 C 
ATOM      8  C   UNL     1     -12.147 -10.538  20.104  0.00  0.00    +0.098 C 
ATOM     10  C   UNL     1     -11.424 -11.451  18.057  0.00  0.00    -0.021 C 
ATOM     11  C   UNL     1     -12.504 -11.095  18.761  0.00  0.00    -0.009 C 
BRANCH   8   3
ATOM      1  O   UNL     1     -14.621 -10.782  21.596  0.00  0.00    -0.253 OA
ATOM      3  N   UNL     1     -12.448 -11.485  21.172  0.00  0.00    -0.293 N 
ATOM      5  N   UNL     1     -13.693 -12.527  22.811  0.00  0.00    -0.300 N 
ATOM     21  C   UNL     1     -13.675 -11.530  21.839  0.00  0.00    +0.300 C 
ATOM     29  H   UNL     1     -11.715 -12.120  21.475  0.00  0.00    +0.151 HD
ATOM     30  H   UNL     1     -12.867 -13.104  22.933  0.00  0.00    +0.150 HD
BRANCH   5  27
ATOM     27  C   UNL     1     -14.842 -12.787  23.645  0.00  0.00    +0.102 C 
ATOM     28  C   UNL     1     -14.645 -12.246  25.046  0.00  0.00    +0.024 C 
ENDBRANCH   5  27
ENDBRANCH   8   3
ENDBRANCH   9   6
TORSDOF 5
ENDMDL
MODEL 2
REMARK VINA RESULT:      -6.4      3.546     10.555
REMARK  Name = 28960230
REMARK  11 active torsions:
REMARK  status: ('A' for Active; 'I' for Inactive)
REMARK    1  A    between atoms: N_2  and  C_15
REMARK    2  A    between atoms: N_3  and  C_8
REMARK    3  A    between atoms: N_5  and  C_27
REMARK    4  A    between atoms: C_6  and  C_9
REMARK    5  A    between atoms: C_12  and  C_16
REMARK    6  A    between atoms: C_13  and  C_18
REMARK    7  A    between atoms: C_14  and  C_17
REMARK    8  A    between atoms: C_14  and  C_24
REMARK    9  A    between atoms: C_14  and  C_25
REMARK   10  A    between atoms: C_14  and  C_26
REMARK   11  A    between atoms: C_27  and  C_28
REMARK                            x       y       z     vdW  Elec       q    Type
REMARK                         _______ _______ _______ _____ _____    ______ ____
ROOT
ATOM      2  N   UNL     1      -9.161 -11.178  19.193  0.00  0.00    -0.236 N 
ATOM      4  N   UNL     1      -8.165 -11.071  20.090  0.00  0.00    -0.171 NA
ATOM      9  C   UNL     1      -7.359 -11.280  17.963  0.00  0.00    +0.003 A 
ATOM     12  C   UNL     1      -8.731 -11.305  17.905  0.00  0.00    +0.046 A 
ATOM     13  C   UNL     1      -7.067 -11.134  19.332  0.00  0.00    +0.064 A 
ATOM     16  C   UNL     1      -9.647 -11.439  16.753  0.00  0.00    +0.066 C 
ATOM     18  C   UNL     1      -5.742 -11.050  19.971  0.00  0.00    +0.068 C 
ENDROOT
BRANCH   2  15
ATOM     15  C   UNL     1     -10.488 -11.151  19.624  0.00  0.00    +0.066 A 
ATOM     17  C   UNL     1     -13.140 -11.099  20.487  0.00  0.00    -0.042 A 
ATOM     19  C   UNL     1     -11.157  -9.934  19.748  0.00  0.00    +0.028 A 
ATOM     20  C   UNL     1     -11.145 -12.342  19.931  0.00  0.00    +0.028 A 
ATOM     22  C   UNL     1     -12.483  -9.908  20.180  0.00  0.00    +0.006 A 
ATOM     23  C   UNL     1     -12.472 -12.317  20.363  0.00  0.00    +0.006 A 
BRANCH  17  14
ATOM     14  C   UNL     1     -14.558 -11.071  20.948  0.00  0.00    -0.013 C 
ATOM     24  C   UNL     1     -15.562 -11.905  20.084  0.00  0.00    +0.015 C 
ATOM     25  C   UNL     1     -14.694 -11.632  22.397  0.00  0.00    +0.015 C 
ATOM     26  C   UNL     1     -15.123  -9.616  20.951  0.00  0.00    +0.015 C 
ENDBRANCH  17  14
ENDBRANCH   2  15
BRANCH   9   6
ATOM      6  C   UNL     1      -6.384 -11.386  16.813  0.00  0.00    +0.047 C 
ATOM      7  C   UNL     1      -5.436 -10.176  16.704  0.00  0.00    +0.039 C 
ATOM      8  C   UNL     1      -4.096 -10.727  16.189  0.00  0.00    +0.098 C 
ATOM     10  C   UNL     1      -5.424 -12.534  16.909  0.00  0.00    -0.021 C 
ATOM     11  C   UNL     1      -4.183 -12.174  16.561  0.00  0.00    -0.009 C 
BRANCH   8   3
ATOM      1  O   UNL     1      -1.630 -10.514  14.678  0.00  0.00    -0.253 OA
ATOM      3  N   UNL     1      -3.952 -10.555  14.748  0.00  0.00    -0.293 N 
ATOM      5  N   UNL     1      -2.867 -10.301  12.727  0.00  0.00    -0.300 N 
ATOM     21  C   UNL     1      -2.716 -10.462  14.102  0.00  0.00    +0.300 C 
ATOM     29  H   UNL     1      -4.792 -10.459  14.186  0.00  0.00    +0.151 HD
ATOM     30  H   UNL     1      -3.805 -10.280  12.338  0.00  0.00    +0.150 HD
BRANCH   5  27
ATOM     27  C   UNL     1      -1.746 -10.179  11.825  0.00  0.00    +0.102 C 
ATOM     28  C   UNL     1      -2.034  -9.192  10.713  0.00  0.00    +0.024 C 
ENDBRANCH   5  27
ENDBRANCH   8   3
ENDBRANCH   9   6
TORSDOF 5
ENDMDL
MODEL 3
REMARK VINA RESULT:      -6.2     18.828     22.752
REMARK  Name = 28960230
REMARK  11 active torsions:
REMARK  status: ('A' for Active; 'I' for Inactive)
REMARK    1  A    between atoms: N_2  and  C_15
REMARK    2  A    between atoms: N_3  and  C_8
REMARK    3  A    between atoms: N_5  and  C_27
REMARK    4  A    between atoms: C_6  and  C_9
REMARK    5  A    between atoms: C_12  and  C_16
REMARK    6  A    between atoms: C_13  and  C_18
REMARK    7  A    between atoms: C_14  and  C_17
REMARK    8  A    between atoms: C_14  and  C_24
REMARK    9  A    between atoms: C_14  and  C_25
REMARK   10  A    between atoms: C_14  and  C_26
REMARK   11  A    between atoms: C_27  and  C_28
REMARK                            x       y       z     vdW  Elec       q    Type
REMARK                         _______ _______ _______ _____ _____    ______ ____
ROOT
ATOM      2  N   UNL     1     -12.542   7.878  19.883  0.00  0.00    -0.236 N 
ATOM      4  N   UNL     1     -12.101   7.334  18.735  0.00  0.00    -0.171 NA
ATOM      9  C   UNL     1     -11.273   9.441  19.037  0.00  0.00    +0.003 A 
ATOM     12  C   UNL     1     -12.075   9.139  20.111  0.00  0.00    +0.046 A 
ATOM     13  C   UNL     1     -11.327   8.294  18.223  0.00  0.00    +0.064 A 
ATOM     16  C   UNL     1     -12.428   9.932  21.307  0.00  0.00    +0.066 C 
ATOM     18  C   UNL     1     -10.649   8.067  16.935  0.00  0.00    +0.068 C 
ENDROOT
BRANCH   2  15
ATOM     15  C   UNL     1     -13.398   7.149  20.711  0.00  0.00    +0.066 A 
ATOM     17  C   UNL     1     -15.107   5.692  22.365  0.00  0.00    -0.042 A 
ATOM     19  C   UNL     1     -14.763   7.432  20.724  0.00  0.00    +0.028 A 
ATOM     20  C   UNL     1     -12.887   6.138  21.524  0.00  0.00    +0.028 A 
ATOM     22  C   UNL     1     -15.618   6.704  21.551  0.00  0.00    +0.006 A 
ATOM     23  C   UNL     1     -13.741   5.409  22.352  0.00  0.00    +0.006 A 
BRANCH  17  14
ATOM     14  C   UNL     1     -16.021   4.913  23.249  0.00  0.00    -0.013 C 
ATOM     24  C   UNL     1     -17.036   3.980  22.509  0.00  0.00    +0.015 C 
ATOM     25  C   UNL     1     -15.222   3.978  24.208  0.00  0.00    +0.015 C 
ATOM     26  C   UNL     1     -16.894   5.858  24.132  0.00  0.00    +0.015 C 
ENDBRANCH  17  14
ENDBRANCH   2  15
BRANCH   9   6
ATOM      6  C   UNL     1     -10.507  10.721  18.788  0.00  0.00    +0.047 C 
ATOM      7  C   UNL     1      -9.710  10.706  17.470  0.00  0.00    +0.039 C 
ATOM      8  C   UNL     1      -9.736  12.148  16.938  0.00  0.00    +0.098 C 
ATOM     10  C   UNL     1     -11.363  11.942  18.628  0.00  0.00    -0.021 C 
ATOM     11  C   UNL     1     -10.936  12.720  17.627  0.00  0.00    -0.009 C 
BRANCH   8   3
ATOM      1  O   UNL     1      -7.843  13.381  15.118  0.00  0.00    -0.253 OA
ATOM      3  N   UNL     1      -8.523  12.881  17.283  0.00  0.00    -0.293 N 
ATOM      5  N   UNL     1      -6.586  14.086  16.937  0.00  0.00    -0.300 N 
ATOM     21  C   UNL     1      -7.666  13.445  16.334  0.00  0.00    +0.300 C 
ATOM     29  H   UNL     1      -8.266  12.955  18.263  0.00  0.00    +0.151 HD
ATOM     30  H   UNL     1      -6.529  14.097  17.950  0.00  0.00    +0.150 HD
BRANCH   5  27
ATOM     27  C   UNL     1      -5.551  14.751  16.182  0.00  0.00    +0.102 C 
ATOM     28  C   UNL     1      -4.469  15.300  17.088  0.00  0.00    +0.024 C 
ENDBRANCH   5  27
ENDBRANCH   8   3
ENDBRANCH   9   6
TORSDOF 5
ENDMDL
MODEL 4
REMARK VINA RESULT:      -6.1     17.357     18.852
REMARK  Name = 28960230
REMARK  11 active torsions:
REMARK  status: ('A' for Active; 'I' for Inactive)
REMARK    1  A    between atoms: N_2  and  C_15
REMARK    2  A    between atoms: N_3  and  C_8
REMARK    3  A    between atoms: N_5  and  C_27
REMARK    4  A    between atoms: C_6  and  C_9
REMARK    5  A    between atoms: C_12  and  C_16
REMARK    6  A    between atoms: C_13  and  C_18
REMARK    7  A    between atoms: C_14  and  C_17
REMARK    8  A    between atoms: C_14  and  C_24
REMARK    9  A    between atoms: C_14  and  C_25
REMARK   10  A    between atoms: C_14  and  C_26
REMARK   11  A    between atoms: C_27  and  C_28
REMARK                            x       y       z     vdW  Elec       q    Type
REMARK                         _______ _______ _______ _____ _____    ______ ____
ROOT
ATOM      2  N   UNL     1     -15.046   6.370  22.506  0.00  0.00    -0.236 N 
ATOM      4  N   UNL     1     -16.353   6.644  22.665  0.00  0.00    -0.171 NA
ATOM      9  C   UNL     1     -15.759   4.727  23.755  0.00  0.00    +0.003 A 
ATOM     12  C   UNL     1     -14.640   5.233  23.139  0.00  0.00    +0.046 A 
ATOM     13  C   UNL     1     -16.782   5.636  23.428  0.00  0.00    +0.064 A 
ATOM     16  C   UNL     1     -13.249   4.735  23.101  0.00  0.00    +0.066 C 
ATOM     18  C   UNL     1     -18.200   5.583  23.827  0.00  0.00    +0.068 C 
ENDROOT
BRANCH   2  15
ATOM     15  C   UNL     1     -14.247   7.226  21.746  0.00  0.00    +0.066 A 
ATOM     17  C   UNL     1     -12.649   8.935  20.227  0.00  0.00    -0.042 A 
ATOM     19  C   UNL     1     -13.646   8.334  22.344  0.00  0.00    +0.028 A 
ATOM     20  C   UNL     1     -14.048   6.973  20.390  0.00  0.00    +0.028 A 
ATOM     22  C   UNL     1     -12.847   9.188  21.584  0.00  0.00    +0.006 A 
ATOM     23  C   UNL     1     -13.250   7.828  19.629  0.00  0.00    +0.006 A 
BRANCH  17  14
ATOM     14  C   UNL     1     -11.795   9.849  19.415  0.00  0.00    -0.013 C 
ATOM     24  C   UNL     1     -10.258   9.562  19.475  0.00  0.00    +0.015 C 
ATOM     25  C   UNL     1     -12.170   9.780  17.902  0.00  0.00    +0.015 C 
ATOM     26  C   UNL     1     -11.958  11.331  19.874  0.00  0.00    +0.015 C 
ENDBRANCH  17  14
ENDBRANCH   2  15
BRANCH   9   6
ATOM      6  C   UNL     1     -15.863   3.473  24.593  0.00  0.00    +0.047 C 
ATOM      7  C   UNL     1     -16.356   3.740  26.028  0.00  0.00    +0.039 C 
ATOM      8  C   UNL     1     -17.196   2.515  26.428  0.00  0.00    +0.098 C 
ATOM     10  C   UNL     1     -16.860   2.468  24.097  0.00  0.00    -0.021 C 
ATOM     11  C   UNL     1     -17.577   1.944  25.098  0.00  0.00    -0.009 C 
BRANCH   8   3
ATOM      1  O   UNL     1     -16.686   2.597  29.282  0.00  0.00    -0.253 OA
ATOM      3  N   UNL     1     -16.428   1.560  27.219  0.00  0.00    -0.293 N 
ATOM      5  N   UNL     1     -15.464   0.633  29.098  0.00  0.00    -0.300 N 
ATOM     21  C   UNL     1     -16.234   1.679  28.597  0.00  0.00    +0.300 C 
ATOM     29  H   UNL     1     -15.978   0.787  26.738  0.00  0.00    +0.151 HD
ATOM     30  H   UNL     1     -15.143  -0.087  28.459  0.00  0.00    +0.150 HD
BRANCH   5  27
ATOM     27  C   UNL     1     -15.115   0.516  30.495  0.00  0.00    +0.102 C 
ATOM     28  C   UNL     1     -15.415  -0.868  31.028  0.00  0.00    +0.024 C 
ENDBRANCH   5  27
ENDBRANCH   8   3
ENDBRANCH   9   6
TORSDOF 5
ENDMDL
MODEL 5
REMARK VINA RESULT:      -6.1      6.238     11.646
REMARK  Name = 28960230
REMARK  11 active torsions:
REMARK  status: ('A' for Active; 'I' for Inactive)
REMARK    1  A    between atoms: N_2  and  C_15
REMARK    2  A    between atoms: N_3  and  C_8
REMARK    3  A    between atoms: N_5  and  C_27
REMARK    4  A    between atoms: C_6  and  C_9
REMARK    5  A    between atoms: C_12  and  C_16
REMARK    6  A    between atoms: C_13  and  C_18
REMARK    7  A    between atoms: C_14  and  C_17
REMARK    8  A    between atoms: C_14  and  C_24
REMARK    9  A    between atoms: C_14  and  C_25
REMARK   10  A    between atoms: C_14  and  C_26
REMARK   11  A    between atoms: C_27  and  C_28
REMARK                            x       y       z     vdW  Elec       q    Type
REMARK                         _______ _______ _______ _____ _____    ______ ____
ROOT
ATOM      2  N   UNL     1      -4.413 -10.617  13.656  0.00  0.00    -0.236 N 
ATOM      4  N   UNL     1      -3.076 -10.483  13.615  0.00  0.00    -0.171 NA
ATOM      9  C   UNL     1      -4.002 -10.302  11.534  0.00  0.00    +0.003 A 
ATOM     12  C   UNL     1      -5.015 -10.516  12.437  0.00  0.00    +0.046 A 
ATOM     13  C   UNL     1      -2.831 -10.291  12.316  0.00  0.00    +0.064 A 
ATOM     16  C   UNL     1      -6.475 -10.633  12.240  0.00  0.00    +0.066 C 
ATOM     18  C   UNL     1      -1.442 -10.099  11.861  0.00  0.00    +0.068 C 
ENDROOT
BRANCH   2  15
ATOM     15  C   UNL     1      -5.049 -10.836  14.879  0.00  0.00    +0.066 A 
ATOM     17  C   UNL     1      -6.320 -11.273  17.323  0.00  0.00    -0.042 A 
ATOM     19  C   UNL     1      -5.122 -12.126  15.406  0.00  0.00    +0.028 A 
ATOM     20  C   UNL     1      -5.610  -9.766  15.574  0.00  0.00    +0.028 A 
ATOM     22  C   UNL     1      -5.758 -12.344  16.628  0.00  0.00    +0.006 A 
ATOM     23  C   UNL     1      -6.247  -9.984  16.797  0.00  0.00    +0.006 A 
BRANCH  17  14
ATOM     14  C   UNL     1      -6.999 -11.508  18.630  0.00  0.00    -0.013 C 
ATOM     24  C   UNL     1      -7.525 -12.963  18.862  0.00  0.00    +0.015 C 
ATOM     25  C   UNL     1      -6.041 -11.218  19.826  0.00  0.00    +0.015 C 
ATOM     26  C   UNL     1      -8.247 -10.585  18.792  0.00  0.00    +0.015 C 
ENDBRANCH  17  14
ENDBRANCH   2  15
BRANCH   9   6
ATOM      6  C   UNL     1      -4.121 -10.120  10.038  0.00  0.00    +0.047 C 
ATOM      7  C   UNL     1      -4.820 -11.300   9.336  0.00  0.00    +0.039 C 
ATOM      8  C   UNL     1      -5.609 -10.694   8.164  0.00  0.00    +0.098 C 
ATOM     10  C   UNL     1      -4.962  -8.954   9.613  0.00  0.00    -0.021 C 
ATOM     11  C   UNL     1      -5.764  -9.267   8.589  0.00  0.00    -0.009 C 
BRANCH   8   3
ATOM      1  O   UNL     1      -5.779 -12.826   6.205  0.00  0.00    -0.253 OA
ATOM      3  N   UNL     1      -4.884 -10.799   6.903  0.00  0.00    -0.293 N 
ATOM      5  N   UNL     1      -4.220 -11.716   4.893  0.00  0.00    -0.300 N 
ATOM     21  C   UNL     1      -5.030 -11.868   6.015  0.00  0.00    +0.300 C 
ATOM     29  H   UNL     1      -4.207 -10.077   6.674  0.00  0.00    +0.151 HD
ATOM     30  H   UNL     1      -3.641 -10.886   4.817  0.00  0.00    +0.150 HD
BRANCH   5  27
ATOM     27  C   UNL     1      -4.180 -12.681   3.820  0.00  0.00    +0.102 C 
ATOM     28  C   UNL     1      -2.885 -12.591   3.040  0.00  0.00    +0.024 C 
ENDBRANCH   5  27
ENDBRANCH   8   3
ENDBRANCH   9   6
TORSDOF 5
ENDMDL
MODEL 6
REMARK VINA RESULT:      -6.0     10.390     14.033
REMARK  Name = 28960230
REMARK  11 active torsions:
REMARK  status: ('A' for Active; 'I' for Inactive)
REMARK    1  A    between atoms: N_2  and  C_15
REMARK    2  A    between atoms: N_3  and  C_8
REMARK    3  A    between atoms: N_5  and  C_27
REMARK    4  A    between atoms: C_6  and  C_9
REMARK    5  A    between atoms: C_12  and  C_16
REMARK    6  A    between atoms: C_13  and  C_18
REMARK    7  A    between atoms: C_14  and  C_17
REMARK    8  A    between atoms: C_14  and  C_24
REMARK    9  A    between atoms: C_14  and  C_25
REMARK   10  A    between atoms: C_14  and  C_26
REMARK   11  A    between atoms: C_27  and  C_28
REMARK                            x       y       z     vdW  Elec       q    Type
REMARK                         _______ _______ _______ _____ _____    ______ ____
ROOT
ATOM      2  N   UNL     1      -6.577  -8.756   8.424  0.00  0.00    -0.236 N 
ATOM      4  N   UNL     1      -7.313  -7.671   8.723  0.00  0.00    -0.171 NA
ATOM      9  C   UNL     1      -7.810  -8.476   6.643  0.00  0.00    +0.003 A 
ATOM     12  C   UNL     1      -6.836  -9.276   7.191  0.00  0.00    +0.046 A 
ATOM     13  C   UNL     1      -8.063  -7.505   7.630  0.00  0.00    +0.064 A 
ATOM     16  C   UNL     1      -6.147 -10.466   6.650  0.00  0.00    +0.066 C 
ATOM     18  C   UNL     1      -9.023  -6.388   7.575  0.00  0.00    +0.068 C 
ENDROOT
BRANCH   2  15
ATOM     15  C   UNL     1      -5.653  -9.242   9.351  0.00  0.00    +0.066 A 
ATOM     17  C   UNL     1      -3.806 -10.213  11.202  0.00  0.00    -0.042 A 
ATOM     19  C   UNL     1      -6.066 -10.119  10.353  0.00  0.00    +0.028 A 
ATOM     20  C   UNL     1      -4.317  -8.851   9.273  0.00  0.00    +0.028 A 
ATOM     22  C   UNL     1      -5.143 -10.605  11.279  0.00  0.00    +0.006 A 
ATOM     23  C   UNL     1      -3.392  -9.336  10.199  0.00  0.00    +0.006 A 
BRANCH  17  14
ATOM     14  C   UNL     1      -2.819 -10.733  12.191  0.00  0.00    -0.013 C 
ATOM     24  C   UNL     1      -2.528 -12.269  12.106  0.00  0.00    +0.015 C 
ATOM     25  C   UNL     1      -1.432 -10.039  12.026  0.00  0.00    +0.015 C 
ATOM     26  C   UNL     1      -3.299 -10.483  13.654  0.00  0.00    +0.015 C 
ENDBRANCH  17  14
ENDBRANCH   2  15
BRANCH   9   6
ATOM      6  C   UNL     1      -8.459  -8.610   5.285  0.00  0.00    +0.047 C 
ATOM      7  C   UNL     1      -7.472  -8.419   4.117  0.00  0.00    +0.039 C 
ATOM      8  C   UNL     1      -7.948  -9.358   2.996  0.00  0.00    +0.098 C 
ATOM     10  C   UNL     1      -9.035  -9.964   4.996  0.00  0.00    -0.021 C 
ATOM     11  C   UNL     1      -8.762 -10.364   3.749  0.00  0.00    -0.009 C 
BRANCH   8   3
ATOM      1  O   UNL     1      -8.211  -9.994   0.179  0.00  0.00    -0.253 OA
ATOM      3  N   UNL     1      -8.753  -8.658   2.001  0.00  0.00    -0.293 N 
ATOM      5  N   UNL     1      -9.660  -8.199  -0.070  0.00  0.00    -0.300 N 
ATOM     21  C   UNL     1      -8.820  -9.038   0.658  0.00  0.00    +0.300 C 
ATOM     29  H   UNL     1      -9.262  -7.828   2.289  0.00  0.00    +0.151 HD
ATOM     30  H   UNL     1     -10.130  -7.440   0.413  0.00  0.00    +0.150 HD
BRANCH   5  27
ATOM     27  C   UNL     1      -9.905  -8.371  -1.482  0.00  0.00    +0.102 C 
ATOM     28  C   UNL     1     -11.172  -7.664  -1.915  0.00  0.00    +0.024 C 
ENDBRANCH   5  27
ENDBRANCH   8   3
ENDBRANCH   9   6
TORSDOF 5
ENDMDL
MODEL 7
REMARK VINA RESULT:      -5.9     21.106     23.194
REMARK  Name = 28960230
REMARK  11 active torsions:
REMARK  status: ('A' for Active; 'I' for Inactive)
REMARK    1  A    between atoms: N_2  and  C_15
REMARK    2  A    between atoms: N_3  and  C_8
REMARK    3  A    between atoms: N_5  and  C_27
REMARK    4  A    between atoms: C_6  and  C_9
REMARK    5  A    between atoms: C_12  and  C_16
REMARK    6  A    between atoms: C_13  and  C_18
REMARK    7  A    between atoms: C_14  and  C_17
REMARK    8  A    between atoms: C_14  and  C_24
REMARK    9  A    between atoms: C_14  and  C_25
REMARK   10  A    between atoms: C_14  and  C_26
REMARK   11  A    between atoms: C_27  and  C_28
REMARK                            x       y       z     vdW  Elec       q    Type
REMARK                         _______ _______ _______ _____ _____    ______ ____
ROOT
ATOM      2  N   UNL     1       7.843  -9.292  32.374  0.00  0.00    -0.236 N 
ATOM      4  N   UNL     1       9.182  -9.162  32.380  0.00  0.00    -0.171 NA
ATOM      9  C   UNL     1       8.160  -7.385  33.391  0.00  0.00    +0.003 A 
ATOM     12  C   UNL     1       7.185  -8.255  32.966  0.00  0.00    +0.046 A 
ATOM     13  C   UNL     1       9.368  -7.995  33.003  0.00  0.00    +0.064 A 
ATOM     16  C   UNL     1       5.713  -8.183  33.073  0.00  0.00    +0.066 C 
ATOM     18  C   UNL     1      10.740  -7.495  33.208  0.00  0.00    +0.068 C 
ENDROOT
BRANCH   2  15
ATOM     15  C   UNL     1       7.261 -10.419  31.792  0.00  0.00    +0.066 A 
ATOM     17  C   UNL     1       6.096 -12.671  30.628  0.00  0.00    -0.042 A 
ATOM     19  C   UNL     1       6.836 -11.478  32.595  0.00  0.00    +0.028 A 
ATOM     20  C   UNL     1       7.102 -10.486  30.408  0.00  0.00    +0.028 A 
ATOM     22  C   UNL     1       6.254 -12.604  32.013  0.00  0.00    +0.006 A 
ATOM     23  C   UNL     1       6.520 -11.612  29.825  0.00  0.00    +0.006 A 
BRANCH  17  14
ATOM     14  C   UNL     1       5.473 -13.875  30.007  0.00  0.00    -0.013 C 
ATOM     24  C   UNL     1       4.019 -13.674  29.463  0.00  0.00    +0.015 C 
ATOM     25  C   UNL     1       6.305 -14.377  28.786  0.00  0.00    +0.015 C 
ATOM     26  C   UNL     1       5.375 -15.051  31.026  0.00  0.00    +0.015 C 
ENDBRANCH  17  14
ENDBRANCH   2  15
BRANCH   9   6
ATOM      6  C   UNL     1       7.974  -6.070  34.111  0.00  0.00    +0.047 C 
ATOM      7  C   UNL     1       8.244  -6.161  35.625  0.00  0.00    +0.039 C 
ATOM      8  C   UNL     1       8.854  -4.810  36.034  0.00  0.00    +0.098 C 
ATOM     10  C   UNL     1       8.915  -4.982  33.685  0.00  0.00    -0.021 C 
ATOM     11  C   UNL     1       9.386  -4.295  34.732  0.00  0.00    -0.009 C 
BRANCH   8   3
ATOM      1  O   UNL     1       8.061  -4.575  38.813  0.00  0.00    -0.253 OA
ATOM      3  N   UNL     1       7.857  -3.907  36.597  0.00  0.00    -0.293 N 
ATOM      5  N   UNL     1       6.555  -2.912  38.221  0.00  0.00    -0.300 N 
ATOM     21  C   UNL     1       7.538  -3.862  37.957  0.00  0.00    +0.300 C 
ATOM     29  H   UNL     1       7.339  -3.305  35.964  0.00  0.00    +0.151 HD
ATOM     30  H   UNL     1       6.189  -2.361  37.451  0.00  0.00    +0.150 HD
BRANCH   5  27
ATOM     27  C   UNL     1       6.043  -2.663  39.548  0.00  0.00    +0.102 C 
ATOM     28  C   UNL     1       4.548  -2.421  39.529  0.00  0.00    +0.024 C 
ENDBRANCH   5  27
ENDBRANCH   8   3
ENDBRANCH   9   6
TORSDOF 5
ENDMDL
MODEL 8
REMARK VINA RESULT:      -5.9     27.815     32.020
REMARK  Name = 28960230
REMARK  11 active torsions:
REMARK  status: ('A' for Active; 'I' for Inactive)
REMARK    1  A    between atoms: N_2  and  C_15
REMARK    2  A    between atoms: N_3  and  C_8
REMARK    3  A    between atoms: N_5  and  C_27
REMARK    4  A    between atoms: C_6  and  C_9
REMARK    5  A    between atoms: C_12  and  C_16
REMARK    6  A    between atoms: C_13  and  C_18
REMARK    7  A    between atoms: C_14  and  C_17
REMARK    8  A    between atoms: C_14  and  C_24
REMARK    9  A    between atoms: C_14  and  C_25
REMARK   10  A    between atoms: C_14  and  C_26
REMARK   11  A    between atoms: C_27  and  C_28
REMARK                            x       y       z     vdW  Elec       q    Type
REMARK                         _______ _______ _______ _____ _____    ______ ____
ROOT
ATOM      2  N   UNL     1      12.133   4.914   1.624  0.00  0.00    -0.236 N 
ATOM      4  N   UNL     1      13.434   4.585   1.542  0.00  0.00    -0.171 NA
ATOM      9  C   UNL     1      12.424   4.527  -0.506  0.00  0.00    +0.003 A 
ATOM     12  C   UNL     1      11.483   4.894   0.426  0.00  0.00    +0.046 A 
ATOM     13  C   UNL     1      13.605   4.350   0.239  0.00  0.00    +0.064 A 
ATOM     16  C   UNL     1      10.049   5.217   0.275  0.00  0.00    +0.066 C 
ATOM     18  C   UNL     1      14.935   3.954  -0.257  0.00  0.00    +0.068 C 
ENDROOT
BRANCH   2  15
ATOM     15  C   UNL     1      11.576   5.233   2.864  0.00  0.00    +0.066 A 
ATOM     17  C   UNL     1      10.465   5.872   5.341  0.00  0.00    -0.042 A 
ATOM     19  C   UNL     1      10.747   4.318   3.512  0.00  0.00    +0.028 A 
ATOM     20  C   UNL     1      11.850   6.466   3.454  0.00  0.00    +0.028 A 
ATOM     22  C   UNL     1      10.191   4.638   4.751  0.00  0.00    +0.006 A 
ATOM     23  C   UNL     1      11.294   6.787   4.693  0.00  0.00    +0.006 A 
BRANCH  17  14
ATOM     14  C   UNL     1       9.871   6.213   6.666  0.00  0.00    -0.013 C 
ATOM     24  C   UNL     1      10.659   7.276   7.502  0.00  0.00    +0.015 C 
ATOM     25  C   UNL     1       8.432   6.794   6.508  0.00  0.00    +0.015 C 
ATOM     26  C   UNL     1       9.772   4.954   7.582  0.00  0.00    +0.015 C 
ENDBRANCH  17  14
ENDBRANCH   2  15
BRANCH   9   6
ATOM      6  C   UNL     1      12.229   4.353  -1.995  0.00  0.00    +0.047 C 
ATOM      7  C   UNL     1      11.226   3.239  -2.351  0.00  0.00    +0.039 C 
ATOM      8  C   UNL     1      10.504   3.704  -3.626  0.00  0.00    +0.098 C 
ATOM     10  C   UNL     1      11.644   5.543  -2.695  0.00  0.00    -0.021 C 
ATOM     11  C   UNL     1      10.713   5.186  -3.586  0.00  0.00    -0.009 C 
BRANCH   8   3
ATOM      1  O   UNL     1       9.203   3.279  -6.183  0.00  0.00    -0.253 OA
ATOM      3  N   UNL     1      11.084   3.117  -4.829  0.00  0.00    -0.293 N 
ATOM      5  N   UNL     1      11.170   2.366  -7.008  0.00  0.00    -0.300 N 
ATOM     21  C   UNL     1      10.378   2.950  -6.023  0.00  0.00    +0.300 C 
ATOM     29  H   UNL     1      12.040   2.774  -4.787  0.00  0.00    +0.151 HD
ATOM     30  H   UNL     1      12.134   2.138  -6.788  0.00  0.00    +0.150 HD
BRANCH   5  27
ATOM     27  C   UNL     1      10.683   2.083  -8.338  0.00  0.00    +0.102 C 
ATOM     28  C   UNL     1      10.028   0.720  -8.411  0.00  0.00    +0.024 C 
ENDBRANCH   5  27
ENDBRANCH   8   3
ENDBRANCH   9   6
TORSDOF 5
ENDMDL
MODEL 9
REMARK VINA RESULT:      -5.8      4.736      9.800
REMARK  Name = 28960230
REMARK  11 active torsions:
REMARK  status: ('A' for Active; 'I' for Inactive)
REMARK    1  A    between atoms: N_2  and  C_15
REMARK    2  A    between atoms: N_3  and  C_8
REMARK    3  A    between atoms: N_5  and  C_27
REMARK    4  A    between atoms: C_6  and  C_9
REMARK    5  A    between atoms: C_12  and  C_16
REMARK    6  A    between atoms: C_13  and  C_18
REMARK    7  A    between atoms: C_14  and  C_17
REMARK    8  A    between atoms: C_14  and  C_24
REMARK    9  A    between atoms: C_14  and  C_25
REMARK   10  A    between atoms: C_14  and  C_26
REMARK   11  A    between atoms: C_27  and  C_28
REMARK                            x       y       z     vdW  Elec       q    Type
REMARK                         _______ _______ _______ _____ _____    ______ ____
ROOT
ATOM      2  N   UNL     1      -8.489  -9.716  16.926  0.00  0.00    -0.236 N 
ATOM      4  N   UNL     1      -8.345  -9.958  18.241  0.00  0.00    -0.171 NA
ATOM      9  C   UNL     1      -6.558 -10.729  17.045  0.00  0.00    +0.003 A 
ATOM     12  C   UNL     1      -7.447 -10.158  16.166  0.00  0.00    +0.046 A 
ATOM     13  C   UNL     1      -7.164 -10.578  18.306  0.00  0.00    +0.064 A 
ATOM     16  C   UNL     1      -7.389 -10.002  14.698  0.00  0.00    +0.066 C 
ATOM     18  C   UNL     1      -6.647 -11.013  19.616  0.00  0.00    +0.068 C 
ENDROOT
BRANCH   2  15
ATOM     15  C   UNL     1      -9.634  -9.064  16.464  0.00  0.00    +0.066 A 
ATOM     17  C   UNL     1     -11.921  -7.762  15.539  0.00  0.00    -0.042 A 
ATOM     19  C   UNL     1      -9.752  -7.681  16.600  0.00  0.00    +0.028 A 
ATOM     20  C   UNL     1     -10.658  -9.796  15.865  0.00  0.00    +0.028 A 
ATOM     22  C   UNL     1     -10.895  -7.030  16.137  0.00  0.00    +0.006 A 
ATOM     23  C   UNL     1     -11.803  -9.145  15.403  0.00  0.00    +0.006 A 
BRANCH  17  14
ATOM     14  C   UNL     1     -13.143  -7.066  15.044  0.00  0.00    -0.013 C 
ATOM     24  C   UNL     1     -14.298  -6.912  16.090  0.00  0.00    +0.015 C 
ATOM     25  C   UNL     1     -12.817  -5.616  14.571  0.00  0.00    +0.015 C 
ATOM     26  C   UNL     1     -13.776  -7.824  13.836  0.00  0.00    +0.015 C 
ENDBRANCH  17  14
ENDBRANCH   2  15
BRANCH   9   6
ATOM      6  C   UNL     1      -5.230 -11.377  16.724  0.00  0.00    +0.047 C 
ATOM      7  C   UNL     1      -5.208 -12.069  15.348  0.00  0.00    +0.039 C 
ATOM      8  C   UNL     1      -3.780 -11.896  14.804  0.00  0.00    +0.098 C 
ATOM     10  C   UNL     1      -4.077 -10.423  16.619  0.00  0.00    -0.021 C 
ATOM     11  C   UNL     1      -3.287 -10.713  15.579  0.00  0.00    -0.009 C 
BRANCH   8   3
ATOM      1  O   UNL     1      -3.576 -14.273  13.157  0.00  0.00    -0.253 OA
ATOM      3  N   UNL     1      -2.955 -13.074  15.047  0.00  0.00    -0.293 N 
ATOM      5  N   UNL     1      -2.050 -15.161  14.663  0.00  0.00    -0.300 N 
ATOM     21  C   UNL     1      -2.919 -14.179  14.193  0.00  0.00    +0.300 C 
ATOM     29  H   UNL     1      -2.405 -13.111  15.901  0.00  0.00    +0.151 HD
ATOM     30  H   UNL     1      -1.541 -14.990  15.524  0.00  0.00    +0.150 HD
BRANCH   5  27
ATOM     27  C   UNL     1      -1.827 -16.407  13.968  0.00  0.00    +0.102 C 
ATOM     28  C   UNL     1      -0.702 -16.287  12.962  0.00  0.00    +0.024 C 
ENDBRANCH   5  27
ENDBRANCH   8   3
ENDBRANCH   9   6
TORSDOF 5
ENDMDL
MODEL 10
REMARK VINA RESULT:      -5.8      8.566     12.212
REMARK  Name = 28960230
REMARK  11 active torsions:
REMARK  status: ('A' for Active; 'I' for Inactive)
REMARK    1  A    between atoms: N_2  and  C_15
REMARK    2  A    between atoms: N_3  and  C_8
REMARK    3  A    between atoms: N_5  and  C_27
REMARK    4  A    between atoms: C_6  and  C_9
REMARK    5  A    between atoms: C_12  and  C_16
REMARK    6  A    between atoms: C_13  and  C_18
REMARK    7  A    between atoms: C_14  and  C_17
REMARK    8  A    between atoms: C_14  and  C_24
REMARK    9  A    between atoms: C_14  and  C_25
REMARK   10  A    between atoms: C_14  and  C_26
REMARK   11  A    between atoms: C_27  and  C_28
REMARK                            x       y       z     vdW  Elec       q    Type
REMARK                         _______ _______ _______ _____ _____    ______ ____
ROOT
ATOM      2  N   UNL     1      -6.615  -9.803   7.019  0.00  0.00    -0.236 N 
ATOM      4  N   UNL     1      -5.855 -10.886   6.780  0.00  0.00    -0.171 NA
ATOM      9  C   UNL     1      -5.367  -9.950   8.806  0.00  0.00    +0.003 A 
ATOM     12  C   UNL     1      -6.362  -9.206   8.219  0.00  0.00    +0.046 A 
ATOM     13  C   UNL     1      -5.095 -10.970   7.875  0.00  0.00    +0.064 A 
ATOM     16  C   UNL     1      -7.073  -8.000   8.692  0.00  0.00    +0.066 C 
ATOM     18  C   UNL     1      -4.109 -12.059   7.989  0.00  0.00    +0.068 C 
ENDROOT
BRANCH   2  15
ATOM     15  C   UNL     1      -7.555  -9.394   6.072  0.00  0.00    +0.066 A 
ATOM     17  C   UNL     1      -9.435  -8.577   4.180  0.00  0.00    -0.042 A 
ATOM     19  C   UNL     1      -7.200  -8.466   5.093  0.00  0.00    +0.028 A 
ATOM     20  C   UNL     1      -8.848  -9.913   6.105  0.00  0.00    +0.028 A 
ATOM     22  C   UNL     1      -8.140  -8.058   4.147  0.00  0.00    +0.006 A 
ATOM     23  C   UNL     1      -9.789  -9.505   5.159  0.00  0.00    +0.006 A 
BRANCH  17  14
ATOM     14  C   UNL     1     -10.439  -8.141   3.168  0.00  0.00    -0.013 C 
ATOM     24  C   UNL     1     -11.286  -6.885   3.560  0.00  0.00    +0.015 C 
ATOM     25  C   UNL     1      -9.756  -7.772   1.814  0.00  0.00    +0.015 C 
ATOM     26  C   UNL     1     -11.478  -9.268   2.879  0.00  0.00    +0.015 C 
ENDBRANCH  17  14
ENDBRANCH   2  15
BRANCH   9   6
ATOM      6  C   UNL     1      -4.713  -9.721  10.149  0.00  0.00    +0.047 C 
ATOM      7  C   UNL     1      -4.595 -11.003  10.995  0.00  0.00    +0.039 C 
ATOM      8  C   UNL     1      -3.287 -10.870  11.794  0.00  0.00    +0.098 C 
ATOM     10  C   UNL     1      -3.290  -9.252  10.082  0.00  0.00    -0.021 C 
ATOM     11  C   UNL     1      -2.520  -9.874  10.982  0.00  0.00    -0.009 C 
BRANCH   8   3
ATOM      1  O   UNL     1      -2.504 -12.146  14.277  0.00  0.00    -0.253 OA
ATOM      3  N   UNL     1      -3.521 -10.387  13.150  0.00  0.00    -0.293 N 
ATOM      5  N   UNL     1      -3.456 -10.389  15.456  0.00  0.00    -0.300 N 
ATOM     21  C   UNL     1      -3.104 -11.072  14.295  0.00  0.00    +0.300 C 
ATOM     29  H   UNL     1      -4.047  -9.527  13.273  0.00  0.00    +0.151 HD
ATOM     30  H   UNL     1      -3.942  -9.502  15.373  0.00  0.00    +0.150 HD
BRANCH   5  27
ATOM     27  C   UNL     1      -3.144 -10.880  16.778  0.00  0.00    +0.102 C 
ATOM     28  C   UNL     1      -4.395 -11.286  17.528  0.00  0.00    +0.024 C 
ENDBRANCH   5  27
ENDBRANCH   8   3
ENDBRANCH   9   6
TORSDOF 5
ENDMDL
