MODEL 1
REMARK VINA RESULT:      -5.1      0.000      0.000
REMARK  Name = 56775466
REMARK  9 active torsions:
REMARK  status: ('A' for Active; 'I' for Inactive)
REMARK    1  A    between atoms: N_4  and  C_6
REMARK    2  A    between atoms: N_4  and  C_11
REMARK    3  A    between atoms: C_6  and  C_9
REMARK    4  A    between atoms: C_9  and  C_10
REMARK    5  A    between atoms: C_11  and  C_15
REMARK    6  A    between atoms: C_12  and  C_14
REMARK    7  A    between atoms: C_12  and  C_16
REMARK    8  A    between atoms: C_12  and  C_17
REMARK    9  A    between atoms: C_12  and  C_18
REMARK                            x       y       z     vdW  Elec       q    Type
REMARK                         _______ _______ _______ _____ _____    ______ ____
ROOT
ATOM      1  O   UNL     1      -1.946 -14.176  14.106  0.00  0.00    -0.376 OA
ATOM      6  C   UNL     1      -2.677 -12.170  14.108  0.00  0.00    +0.072 C 
ATOM      7  C   UNL     1      -3.209 -13.559  14.442  0.00  0.00    +0.184 C 
ATOM      8  C   UNL     1      -1.409 -12.903  13.682  0.00  0.00    +0.184 C 
ENDROOT
BRANCH   6   4
ATOM      4  N   UNL     1      -3.358 -11.682  12.917  0.00  0.00    -0.300 NA
ATOM     22  H   UNL     1      -3.340 -12.318  12.121  0.00  0.00    +0.123 HD
BRANCH   4  11
ATOM     11  C   UNL     1      -2.803 -10.389  12.524  0.00  0.00    +0.156 C 
BRANCH  11  15
ATOM      3  O   UNL     1      -4.836  -9.884  11.286  0.00  0.00    -0.467 OA
ATOM     15  C   UNL     1      -3.478  -9.838  11.297  0.00  0.00    +0.119 A 
ATOM     19  C   UNL     1      -3.003  -9.273  10.136  0.00  0.00    +0.046 A 
ATOM     20  C   UNL     1      -4.143  -8.952   9.361  0.00  0.00    +0.041 A 
ATOM     21  C   UNL     1      -5.233  -9.343  10.104  0.00  0.00    +0.195 A 
ENDBRANCH  11  15
ENDBRANCH   4  11
ENDBRANCH   6   4
BRANCH   6   9
ATOM      9  C   UNL     1      -2.590 -11.119  15.222  0.00  0.00    +0.085 C 
BRANCH   9  10
ATOM      2  O   UNL     1      -5.950 -10.337  16.147  0.00  0.00    -0.359 OA
ATOM      5  N   UNL     1      -4.888 -10.327  15.250  0.00  0.00    -0.083 NA
ATOM     10  C   UNL     1      -3.891 -10.946  15.889  0.00  0.00    +0.086 A 
ATOM     13  C   UNL     1      -4.261 -11.364  17.179  0.00  0.00    +0.071 A 
ATOM     14  C   UNL     1      -5.565 -10.958  17.292  0.00  0.00    +0.143 A 
BRANCH  14  12
ATOM     12  C   UNL     1      -6.620 -11.063  18.406  0.00  0.00    +0.023 C 
ATOM     16  C   UNL     1      -7.934 -10.311  18.093  0.00  0.00    +0.019 C 
ATOM     17  C   UNL     1      -6.985 -12.544  18.636  0.00  0.00    +0.019 C 
ATOM     18  C   UNL     1      -6.055 -10.469  19.714  0.00  0.00    +0.019 C 
ENDBRANCH  14  12
ENDBRANCH   9  10
ENDBRANCH   6   9
TORSDOF 6
ENDMDL
MODEL 2
REMARK VINA RESULT:      -5.0     22.701     26.190
REMARK  Name = 56775466
REMARK  9 active torsions:
REMARK  status: ('A' for Active; 'I' for Inactive)
REMARK    1  A    between atoms: N_4  and  C_6
REMARK    2  A    between atoms: N_4  and  C_11
REMARK    3  A    between atoms: C_6  and  C_9
REMARK    4  A    between atoms: C_9  and  C_10
REMARK    5  A    between atoms: C_11  and  C_15
REMARK    6  A    between atoms: C_12  and  C_14
REMARK    7  A    between atoms: C_12  and  C_16
REMARK    8  A    between atoms: C_12  and  C_17
REMARK    9  A    between atoms: C_12  and  C_18
REMARK                            x       y       z     vdW  Elec       q    Type
REMARK                         _______ _______ _______ _____ _____    ______ ____
ROOT
ATOM      1  O   UNL     1      12.077   7.269   2.312  0.00  0.00    -0.376 OA
ATOM      6  C   UNL     1      11.349   5.639   3.482  0.00  0.00    +0.072 C 
ATOM      7  C   UNL     1      10.766   6.834   2.737  0.00  0.00    +0.184 C 
ATOM      8  C   UNL     1      12.702   6.213   3.076  0.00  0.00    +0.184 C 
ENDROOT
BRANCH   6   4
ATOM      4  N   UNL     1      11.163   5.842   4.912  0.00  0.00    -0.300 NA
ATOM     22  H   UNL     1      12.018   5.794   5.467  0.00  0.00    +0.123 HD
BRANCH   4  11
ATOM     11  C   UNL     1      10.191   4.880   5.426  0.00  0.00    +0.156 C 
BRANCH  11  15
ATOM      3  O   UNL     1       9.385   6.383   7.163  0.00  0.00    -0.467 OA
ATOM     15  C   UNL     1       9.853   5.141   6.869  0.00  0.00    +0.119 A 
ATOM     19  C   UNL     1       9.915   4.367   8.005  0.00  0.00    +0.046 A 
ATOM     20  C   UNL     1       9.456   5.187   9.064  0.00  0.00    +0.041 A 
ATOM     21  C   UNL     1       9.146   6.402   8.500  0.00  0.00    +0.195 A 
ENDBRANCH  11  15
ENDBRANCH   4  11
ENDBRANCH   6   4
BRANCH   6   9
ATOM      9  C   UNL     1      10.973   4.223   3.025  0.00  0.00    +0.085 C 
BRANCH   9  10
ATOM      2  O   UNL     1      13.075   3.088   0.369  0.00  0.00    -0.359 OA
ATOM      5  N   UNL     1      12.765   3.230   1.717  0.00  0.00    -0.083 NA
ATOM     10  C   UNL     1      11.607   3.896   1.737  0.00  0.00    +0.086 A 
ATOM     13  C   UNL     1      11.143   4.198   0.446  0.00  0.00    +0.071 A 
ATOM     14  C   UNL     1      12.100   3.668  -0.378  0.00  0.00    +0.143 A 
BRANCH  14  12
ATOM     12  C   UNL     1      12.277   3.607  -1.904  0.00  0.00    +0.023 C 
ATOM     16  C   UNL     1      13.702   3.966  -2.383  0.00  0.00    +0.019 C 
ATOM     17  C   UNL     1      11.974   2.179  -2.405  0.00  0.00    +0.019 C 
ATOM     18  C   UNL     1      11.305   4.600  -2.579  0.00  0.00    +0.019 C 
ENDBRANCH  14  12
ENDBRANCH   9  10
ENDBRANCH   6   9
TORSDOF 6
ENDMDL
MODEL 3
REMARK VINA RESULT:      -4.9     20.221     22.514
REMARK  Name = 56775466
REMARK  9 active torsions:
REMARK  status: ('A' for Active; 'I' for Inactive)
REMARK    1  A    between atoms: N_4  and  C_6
REMARK    2  A    between atoms: N_4  and  C_11
REMARK    3  A    between atoms: C_6  and  C_9
REMARK    4  A    between atoms: C_9  and  C_10
REMARK    5  A    between atoms: C_11  and  C_15
REMARK    6  A    between atoms: C_12  and  C_14
REMARK    7  A    between atoms: C_12  and  C_16
REMARK    8  A    between atoms: C_12  and  C_17
REMARK    9  A    between atoms: C_12  and  C_18
REMARK                            x       y       z     vdW  Elec       q    Type
REMARK                         _______ _______ _______ _____ _____    ______ ____
ROOT
ATOM      1  O   UNL     1     -16.077   8.750  23.352  0.00  0.00    -0.376 OA
ATOM      6  C   UNL     1     -15.170   6.955  22.636  0.00  0.00    +0.072 C 
ATOM      7  C   UNL     1     -16.553   7.410  23.088  0.00  0.00    +0.184 C 
ATOM      8  C   UNL     1     -14.724   8.360  23.028  0.00  0.00    +0.184 C 
ENDROOT
BRANCH   6   4
ATOM      4  N   UNL     1     -14.646   6.008  23.610  0.00  0.00    -0.300 NA
ATOM     22  H   UNL     1     -13.690   6.191  23.916  0.00  0.00    +0.123 HD
BRANCH   4  11
ATOM     11  C   UNL     1     -14.740   4.650  23.080  0.00  0.00    +0.156 C 
BRANCH  11  15
ATOM      3  O   UNL     1     -16.304   2.787  23.163  0.00  0.00    -0.467 OA
ATOM     15  C   UNL     1     -15.737   3.819  23.842  0.00  0.00    +0.119 A 
ATOM     19  C   UNL     1     -16.221   3.874  25.129  0.00  0.00    +0.046 A 
ATOM     20  C   UNL     1     -17.146   2.809  25.247  0.00  0.00    +0.041 A 
ATOM     21  C   UNL     1     -17.160   2.178  24.025  0.00  0.00    +0.195 A 
ENDBRANCH  11  15
ENDBRANCH   4  11
ENDBRANCH   6   4
BRANCH   6   9
ATOM      9  C   UNL     1     -14.978   6.490  21.186  0.00  0.00    +0.085 C 
BRANCH   9  10
ATOM      2  O   UNL     1     -11.587   7.260  20.375  0.00  0.00    -0.359 OA
ATOM      5  N   UNL     1     -12.550   6.589  21.118  0.00  0.00    -0.083 NA
ATOM     10  C   UNL     1     -13.720   7.008  20.625  0.00  0.00    +0.086 A 
ATOM     13  C   UNL     1     -13.558   7.933  19.580  0.00  0.00    +0.071 A 
ATOM     14  C   UNL     1     -12.199   8.058  19.462  0.00  0.00    +0.143 A 
BRANCH  14  12
ATOM     12  C   UNL     1     -11.281   8.882  18.544  0.00  0.00    +0.023 C 
ATOM     16  C   UNL     1     -12.005  10.031  17.805  0.00  0.00    +0.019 C 
ATOM     17  C   UNL     1     -10.148   9.518  19.377  0.00  0.00    +0.019 C 
ATOM     18  C   UNL     1     -10.665   7.964  17.466  0.00  0.00    +0.019 C 
ENDBRANCH  14  12
ENDBRANCH   9  10
ENDBRANCH   6   9
TORSDOF 6
ENDMDL
MODEL 4
REMARK VINA RESULT:      -4.8     20.413     21.603
REMARK  Name = 56775466
REMARK  9 active torsions:
REMARK  status: ('A' for Active; 'I' for Inactive)
REMARK    1  A    between atoms: N_4  and  C_6
REMARK    2  A    between atoms: N_4  and  C_11
REMARK    3  A    between atoms: C_6  and  C_9
REMARK    4  A    between atoms: C_9  and  C_10
REMARK    5  A    between atoms: C_11  and  C_15
REMARK    6  A    between atoms: C_12  and  C_14
REMARK    7  A    between atoms: C_12  and  C_16
REMARK    8  A    between atoms: C_12  and  C_17
REMARK    9  A    between atoms: C_12  and  C_18
REMARK                            x       y       z     vdW  Elec       q    Type
REMARK                         _______ _______ _______ _____ _____    ______ ____
ROOT
ATOM      1  O   UNL     1     -10.863  12.131  17.306  0.00  0.00    -0.376 OA
ATOM      6  C   UNL     1     -10.533  10.177  16.515  0.00  0.00    +0.072 C 
ATOM      7  C   UNL     1      -9.731  11.458  16.711  0.00  0.00    +0.184 C 
ATOM      8  C   UNL     1     -11.706  10.983  17.063  0.00  0.00    +0.184 C 
ENDROOT
BRANCH   6   4
ATOM      4  N   UNL     1     -10.735   9.965  15.089  0.00  0.00    -0.300 NA
ATOM     22  H   UNL     1     -11.556  10.428  14.698  0.00  0.00    +0.123 HD
BRANCH   4  11
ATOM     11  C   UNL     1     -10.799   8.533  14.805  0.00  0.00    +0.156 C 
BRANCH  11  15
ATOM      3  O   UNL     1     -12.354   7.375  13.333  0.00  0.00    -0.467 OA
ATOM     15  C   UNL     1     -12.200   8.087  14.480  0.00  0.00    +0.119 A 
ATOM     19  C   UNL     1     -13.409   8.248  15.116  0.00  0.00    +0.046 A 
ATOM     20  C   UNL     1     -14.368   7.593  14.306  0.00  0.00    +0.041 A 
ATOM     21  C   UNL     1     -13.676   7.079  13.234  0.00  0.00    +0.195 A 
ENDBRANCH  11  15
ENDBRANCH   4  11
ENDBRANCH   6   4
BRANCH   6   9
ATOM      9  C   UNL     1     -10.094   8.905  17.253  0.00  0.00    +0.085 C 
BRANCH   9  10
ATOM      2  O   UNL     1     -11.542   8.910  20.518  0.00  0.00    -0.359 OA
ATOM      5  N   UNL     1     -10.595   9.334  19.593  0.00  0.00    -0.083 NA
ATOM     10  C   UNL     1     -10.903   8.688  18.464  0.00  0.00    +0.086 A 
ATOM     13  C   UNL     1     -12.022   7.853  18.615  0.00  0.00    +0.071 A 
ATOM     14  C   UNL     1     -12.386   8.028  19.924  0.00  0.00    +0.143 A 
BRANCH  14  12
ATOM     12  C   UNL     1     -13.507   7.450  20.804  0.00  0.00    +0.023 C 
ATOM     16  C   UNL     1     -14.807   7.131  20.030  0.00  0.00    +0.019 C 
ATOM     17  C   UNL     1     -13.030   6.135  21.455  0.00  0.00    +0.019 C 
ATOM     18  C   UNL     1     -13.872   8.463  21.911  0.00  0.00    +0.019 C 
ENDBRANCH  14  12
ENDBRANCH   9  10
ENDBRANCH   6   9
TORSDOF 6
ENDMDL
MODEL 5
REMARK VINA RESULT:      -4.7      2.402      3.951
REMARK  Name = 56775466
REMARK  9 active torsions:
REMARK  status: ('A' for Active; 'I' for Inactive)
REMARK    1  A    between atoms: N_4  and  C_6
REMARK    2  A    between atoms: N_4  and  C_11
REMARK    3  A    between atoms: C_6  and  C_9
REMARK    4  A    between atoms: C_9  and  C_10
REMARK    5  A    between atoms: C_11  and  C_15
REMARK    6  A    between atoms: C_12  and  C_14
REMARK    7  A    between atoms: C_12  and  C_16
REMARK    8  A    between atoms: C_12  and  C_17
REMARK    9  A    between atoms: C_12  and  C_18
REMARK                            x       y       z     vdW  Elec       q    Type
REMARK                         _______ _______ _______ _____ _____    ______ ____
ROOT
ATOM      1  O   UNL     1      -5.954 -13.694  17.260  0.00  0.00    -0.376 OA
ATOM      6  C   UNL     1      -4.745 -11.952  17.012  0.00  0.00    +0.072 C 
ATOM      7  C   UNL     1      -5.828 -12.687  16.230  0.00  0.00    +0.184 C 
ATOM      8  C   UNL     1      -4.867 -13.101  18.007  0.00  0.00    +0.184 C 
ENDROOT
BRANCH   6   4
ATOM      4  N   UNL     1      -3.483 -12.083  16.297  0.00  0.00    -0.300 NA
ATOM     22  H   UNL     1      -2.742 -12.553  16.818  0.00  0.00    +0.123 HD
BRANCH   4  11
ATOM     11  C   UNL     1      -3.019 -10.766  15.867  0.00  0.00    +0.156 C 
BRANCH  11  15
ATOM      3  O   UNL     1      -1.779 -10.427  13.800  0.00  0.00    -0.467 OA
ATOM     15  C   UNL     1      -2.996 -10.642  14.368  0.00  0.00    +0.119 A 
ATOM     19  C   UNL     1      -3.976 -10.700  13.403  0.00  0.00    +0.046 A 
ATOM     20  C   UNL     1      -3.319 -10.509  12.164  0.00  0.00    +0.041 A 
ATOM     21  C   UNL     1      -1.985 -10.347  12.459  0.00  0.00    +0.195 A 
ENDBRANCH  11  15
ENDBRANCH   4  11
ENDBRANCH   6   4
BRANCH   6   9
ATOM      9  C   UNL     1      -5.017 -10.520  17.491  0.00  0.00    +0.085 C 
BRANCH   9  10
ATOM      2  O   UNL     1      -8.348 -10.389  18.771  0.00  0.00    -0.359 OA
ATOM      5  N   UNL     1      -7.010 -10.756  18.861  0.00  0.00    -0.083 NA
ATOM     10  C   UNL     1      -6.452 -10.305  17.733  0.00  0.00    +0.086 A 
ATOM     13  C   UNL     1      -7.379  -9.652  16.903  0.00  0.00    +0.071 A 
ATOM     14  C   UNL     1      -8.555  -9.732  17.601  0.00  0.00    +0.143 A 
BRANCH  14  12
ATOM     12  C   UNL     1      -9.989  -9.248  17.329  0.00  0.00    +0.023 C 
ATOM     16  C   UNL     1     -10.625  -9.858  16.059  0.00  0.00    +0.019 C 
ATOM     17  C   UNL     1     -10.898  -9.622  18.519  0.00  0.00    +0.019 C 
ATOM     18  C   UNL     1      -9.993  -7.714  17.150  0.00  0.00    +0.019 C 
ENDBRANCH  14  12
ENDBRANCH   9  10
ENDBRANCH   6   9
TORSDOF 6
ENDMDL
MODEL 6
REMARK VINA RESULT:      -4.7     24.742     26.456
REMARK  Name = 56775466
REMARK  9 active torsions:
REMARK  status: ('A' for Active; 'I' for Inactive)
REMARK    1  A    between atoms: N_4  and  C_6
REMARK    2  A    between atoms: N_4  and  C_11
REMARK    3  A    between atoms: C_6  and  C_9
REMARK    4  A    between atoms: C_9  and  C_10
REMARK    5  A    between atoms: C_11  and  C_15
REMARK    6  A    between atoms: C_12  and  C_14
REMARK    7  A    between atoms: C_12  and  C_16
REMARK    8  A    between atoms: C_12  and  C_17
REMARK    9  A    between atoms: C_12  and  C_18
REMARK                            x       y       z     vdW  Elec       q    Type
REMARK                         _______ _______ _______ _____ _____    ______ ____
ROOT
ATOM      1  O   UNL     1      21.588  -8.802  23.482  0.00  0.00    -0.376 OA
ATOM      6  C   UNL     1      20.336  -7.118  23.875  0.00  0.00    +0.072 C 
ATOM      7  C   UNL     1      21.087  -7.705  22.685  0.00  0.00    +0.184 C 
ATOM      8  C   UNL     1      20.980  -8.248  24.671  0.00  0.00    +0.184 C 
ENDROOT
BRANCH   6   4
ATOM      4  N   UNL     1      20.966  -5.860  24.252  0.00  0.00    -0.300 NA
ATOM     22  H   UNL     1      21.973  -5.820  24.091  0.00  0.00    +0.123 HD
BRANCH   4  11
ATOM     11  C   UNL     1      20.682  -5.565  25.654  0.00  0.00    +0.156 C 
BRANCH  11  15
ATOM      3  O   UNL     1      20.610  -3.270  24.849  0.00  0.00    -0.467 OA
ATOM     15  C   UNL     1      20.295  -4.125  25.857  0.00  0.00    +0.119 A 
ATOM     19  C   UNL     1      19.667  -3.455  26.881  0.00  0.00    +0.046 A 
ATOM     20  C   UNL     1      19.591  -2.100  26.476  0.00  0.00    +0.041 A 
ATOM     21  C   UNL     1      20.179  -2.040  25.234  0.00  0.00    +0.195 A 
ENDBRANCH  11  15
ENDBRANCH   4  11
ENDBRANCH   6   4
BRANCH   6   9
ATOM      9  C   UNL     1      18.806  -7.026  23.815  0.00  0.00    +0.085 C 
BRANCH   9  10
ATOM      2  O   UNL     1      18.295  -3.849  22.267  0.00  0.00    -0.359 OA
ATOM      5  N   UNL     1      18.927  -5.083  22.359  0.00  0.00    -0.083 NA
ATOM     10  C   UNL     1      18.370  -5.677  23.419  0.00  0.00    +0.086 A 
ATOM     13  C   UNL     1      17.391  -4.874  24.028  0.00  0.00    +0.071 A 
ATOM     14  C   UNL     1      17.383  -3.735  23.266  0.00  0.00    +0.143 A 
BRANCH  14  12
ATOM     12  C   UNL     1      16.582  -2.424  23.320  0.00  0.00    +0.023 C 
ATOM     16  C   UNL     1      17.275  -1.240  22.607  0.00  0.00    +0.019 C 
ATOM     17  C   UNL     1      15.210  -2.625  22.643  0.00  0.00    +0.019 C 
ATOM     18  C   UNL     1      16.367  -2.007  24.791  0.00  0.00    +0.019 C 
ENDBRANCH  14  12
ENDBRANCH   9  10
ENDBRANCH   6   9
TORSDOF 6
ENDMDL
MODEL 7
REMARK VINA RESULT:      -4.7     22.496     26.209
REMARK  Name = 56775466
REMARK  9 active torsions:
REMARK  status: ('A' for Active; 'I' for Inactive)
REMARK    1  A    between atoms: N_4  and  C_6
REMARK    2  A    between atoms: N_4  and  C_11
REMARK    3  A    between atoms: C_6  and  C_9
REMARK    4  A    between atoms: C_9  and  C_10
REMARK    5  A    between atoms: C_11  and  C_15
REMARK    6  A    between atoms: C_12  and  C_14
REMARK    7  A    between atoms: C_12  and  C_16
REMARK    8  A    between atoms: C_12  and  C_17
REMARK    9  A    between atoms: C_12  and  C_18
REMARK                            x       y       z     vdW  Elec       q    Type
REMARK                         _______ _______ _______ _____ _____    ______ ____
ROOT
ATOM      1  O   UNL     1      11.306   9.338   4.221  0.00  0.00    -0.376 OA
ATOM      6  C   UNL     1      10.735   7.298   4.479  0.00  0.00    +0.072 C 
ATOM      7  C   UNL     1      10.163   8.673   4.805  0.00  0.00    +0.184 C 
ATOM      8  C   UNL     1      11.948   8.068   3.969  0.00  0.00    +0.184 C 
ENDROOT
BRANCH   6   4
ATOM      4  N   UNL     1      11.091   6.632   5.724  0.00  0.00    -0.300 NA
ATOM     22  H   UNL     1      12.075   6.374   5.806  0.00  0.00    +0.123 HD
BRANCH   4  11
ATOM     11  C   UNL     1      10.257   5.446   5.907  0.00  0.00    +0.156 C 
BRANCH  11  15
ATOM      3  O   UNL     1       9.864   3.999   7.824  0.00  0.00    -0.467 OA
ATOM     15  C   UNL     1       9.842   5.270   7.343  0.00  0.00    +0.119 A 
ATOM     19  C   UNL     1       9.427   6.149   8.317  0.00  0.00    +0.046 A 
ATOM     20  C   UNL     1       9.178   5.367   9.471  0.00  0.00    +0.041 A 
ATOM     21  C   UNL     1       9.459   4.067   9.120  0.00  0.00    +0.195 A 
ENDBRANCH  11  15
ENDBRANCH   4  11
ENDBRANCH   6   4
BRANCH   6   9
ATOM      9  C   UNL     1       9.970   6.386   3.510  0.00  0.00    +0.085 C 
BRANCH   9  10
ATOM      2  O   UNL     1      11.633   5.810   0.402  0.00  0.00    -0.359 OA
ATOM      5  N   UNL     1      10.667   6.435   1.181  0.00  0.00    -0.083 NA
ATOM     10  C   UNL     1      10.837   5.936   2.409  0.00  0.00    +0.086 A 
ATOM     13  C   UNL     1      11.886   5.002   2.464  0.00  0.00    +0.071 A 
ATOM     14  C   UNL     1      12.353   4.959   1.177  0.00  0.00    +0.143 A 
BRANCH  14  12
ATOM     12  C   UNL     1      13.476   4.175   0.477  0.00  0.00    +0.023 C 
ATOM     16  C   UNL     1      14.446   5.065  -0.334  0.00  0.00    +0.019 C 
ATOM     17  C   UNL     1      14.319   3.424   1.530  0.00  0.00    +0.019 C 
ATOM     18  C   UNL     1      12.862   3.155  -0.505  0.00  0.00    +0.019 C 
ENDBRANCH  14  12
ENDBRANCH   9  10
ENDBRANCH   6   9
TORSDOF 6
ENDMDL
MODEL 8
REMARK VINA RESULT:      -4.6     20.553     23.066
REMARK  Name = 56775466
REMARK  9 active torsions:
REMARK  status: ('A' for Active; 'I' for Inactive)
REMARK    1  A    between atoms: N_4  and  C_6
REMARK    2  A    between atoms: N_4  and  C_11
REMARK    3  A    between atoms: C_6  and  C_9
REMARK    4  A    between atoms: C_9  and  C_10
REMARK    5  A    between atoms: C_11  and  C_15
REMARK    6  A    between atoms: C_12  and  C_14
REMARK    7  A    between atoms: C_12  and  C_16
REMARK    8  A    between atoms: C_12  and  C_17
REMARK    9  A    between atoms: C_12  and  C_18
REMARK                            x       y       z     vdW  Elec       q    Type
REMARK                         _______ _______ _______ _____ _____    ______ ____
ROOT
ATOM      1  O   UNL     1     -13.137  13.371  18.528  0.00  0.00    -0.376 OA
ATOM      6  C   UNL     1     -11.998  11.579  18.304  0.00  0.00    +0.072 C 
ATOM      7  C   UNL     1     -13.123  12.294  17.563  0.00  0.00    +0.184 C 
ATOM      8  C   UNL     1     -12.138  12.700  19.329  0.00  0.00    +0.184 C 
ENDROOT
BRANCH   6   4
ATOM      4  N   UNL     1     -12.524  10.349  18.879  0.00  0.00    -0.300 NA
ATOM     22  H   UNL     1     -13.493  10.402  19.193  0.00  0.00    +0.123 HD
BRANCH   4  11
ATOM     11  C   UNL     1     -11.673   9.917  19.984  0.00  0.00    +0.156 C 
BRANCH  11  15
ATOM      3  O   UNL     1     -13.253   8.419  21.073  0.00  0.00    -0.467 OA
ATOM     15  C   UNL     1     -12.041   8.541  20.471  0.00  0.00    +0.119 A 
ATOM     19  C   UNL     1     -11.393   7.327  20.438  0.00  0.00    +0.046 A 
ATOM     20  C   UNL     1     -12.263   6.401  21.061  0.00  0.00    +0.041 A 
ATOM     21  C   UNL     1     -13.380   7.114  21.429  0.00  0.00    +0.195 A 
ENDBRANCH  11  15
ENDBRANCH   4  11
ENDBRANCH   6   4
BRANCH   6   9
ATOM      9  C   UNL     1     -10.651  11.382  17.596  0.00  0.00    +0.085 C 
BRANCH   9  10
ATOM      2  O   UNL     1     -10.521   8.295  15.804  0.00  0.00    -0.359 OA
ATOM      5  N   UNL     1     -10.315   9.064  16.943  0.00  0.00    -0.083 NA
ATOM     10  C   UNL     1     -10.725  10.291  16.609  0.00  0.00    +0.086 A 
ATOM     13  C   UNL     1     -11.197  10.356  15.287  0.00  0.00    +0.071 A 
ATOM     14  C   UNL     1     -11.047   9.075  14.825  0.00  0.00    +0.143 A 
BRANCH  14  12
ATOM     12  C   UNL     1     -11.344   8.386  13.483  0.00  0.00    +0.023 C 
ATOM     16  C   UNL     1     -11.653   9.370  12.331  0.00  0.00    +0.019 C 
ATOM     17  C   UNL     1     -10.125   7.545  13.049  0.00  0.00    +0.019 C 
ATOM     18  C   UNL     1     -12.572   7.462  13.634  0.00  0.00    +0.019 C 
ENDBRANCH  14  12
ENDBRANCH   9  10
ENDBRANCH   6   9
TORSDOF 6
ENDMDL
MODEL 9
REMARK VINA RESULT:      -4.6     23.701     26.814
REMARK  Name = 56775466
REMARK  9 active torsions:
REMARK  status: ('A' for Active; 'I' for Inactive)
REMARK    1  A    between atoms: N_4  and  C_6
REMARK    2  A    between atoms: N_4  and  C_11
REMARK    3  A    between atoms: C_6  and  C_9
REMARK    4  A    between atoms: C_9  and  C_10
REMARK    5  A    between atoms: C_11  and  C_15
REMARK    6  A    between atoms: C_12  and  C_14
REMARK    7  A    between atoms: C_12  and  C_16
REMARK    8  A    between atoms: C_12  and  C_17
REMARK    9  A    between atoms: C_12  and  C_18
REMARK                            x       y       z     vdW  Elec       q    Type
REMARK                         _______ _______ _______ _____ _____    ______ ____
ROOT
ATOM      1  O   UNL     1      14.052   6.195   0.900  0.00  0.00    -0.376 OA
ATOM      6  C   UNL     1      12.559   5.285   2.125  0.00  0.00    +0.072 C 
ATOM      7  C   UNL     1      12.627   6.376   1.062  0.00  0.00    +0.184 C 
ATOM      8  C   UNL     1      14.075   5.220   1.967  0.00  0.00    +0.184 C 
ENDROOT
BRANCH   6   4
ATOM      4  N   UNL     1      12.248   5.900   3.407  0.00  0.00    -0.300 NA
ATOM     22  H   UNL     1      12.845   5.606   4.181  0.00  0.00    +0.123 HD
BRANCH   4  11
ATOM     11  C   UNL     1      10.849   5.654   3.747  0.00  0.00    +0.156 C 
BRANCH  11  15
ATOM      3  O   UNL     1      11.428   6.400   5.990  0.00  0.00    -0.467 OA
ATOM     15  C   UNL     1      10.635   5.595   5.236  0.00  0.00    +0.119 A 
ATOM     19  C   UNL     1       9.776   4.876   6.035  0.00  0.00    +0.046 A 
ATOM     20  C   UNL     1      10.062   5.264   7.367  0.00  0.00    +0.041 A 
ATOM     21  C   UNL     1      11.073   6.193   7.286  0.00  0.00    +0.195 A 
ENDBRANCH  11  15
ENDBRANCH   4  11
ENDBRANCH   6   4
BRANCH   6   9
ATOM      9  C   UNL     1      11.726   4.027   1.846  0.00  0.00    +0.085 C 
BRANCH   9  10
ATOM      2  O   UNL     1       9.919   4.327  -1.219  0.00  0.00    -0.359 OA
ATOM      5  N   UNL     1      10.048   4.503   0.153  0.00  0.00    -0.083 NA
ATOM     10  C   UNL     1      11.251   4.003   0.453  0.00  0.00    +0.086 A 
ATOM     13  C   UNL     1      11.918   3.504  -0.678  0.00  0.00    +0.071 A 
ATOM     14  C   UNL     1      11.039   3.731  -1.703  0.00  0.00    +0.143 A 
BRANCH  14  12
ATOM     12  C   UNL     1      11.073   3.457  -3.216  0.00  0.00    +0.023 C 
ATOM     16  C   UNL     1       9.962   2.498  -3.702  0.00  0.00    +0.019 C 
ATOM     17  C   UNL     1      10.902   4.782  -3.988  0.00  0.00    +0.019 C 
ATOM     18  C   UNL     1      12.426   2.818  -3.597  0.00  0.00    +0.019 C 
ENDBRANCH  14  12
ENDBRANCH   9  10
ENDBRANCH   6   9
TORSDOF 6
ENDMDL
MODEL 10
REMARK VINA RESULT:      -4.5      1.329      6.511
REMARK  Name = 56775466
REMARK  9 active torsions:
REMARK  status: ('A' for Active; 'I' for Inactive)
REMARK    1  A    between atoms: N_4  and  C_6
REMARK    2  A    between atoms: N_4  and  C_11
REMARK    3  A    between atoms: C_6  and  C_9
REMARK    4  A    between atoms: C_9  and  C_10
REMARK    5  A    between atoms: C_11  and  C_15
REMARK    6  A    between atoms: C_12  and  C_14
REMARK    7  A    between atoms: C_12  and  C_16
REMARK    8  A    between atoms: C_12  and  C_17
REMARK    9  A    between atoms: C_12  and  C_18
REMARK                            x       y       z     vdW  Elec       q    Type
REMARK                         _______ _______ _______ _____ _____    ______ ____
ROOT
ATOM      1  O   UNL     1      -3.098 -14.065  13.242  0.00  0.00    -0.376 OA
ATOM      6  C   UNL     1      -3.134 -12.315  14.463  0.00  0.00    +0.072 C 
ATOM      7  C   UNL     1      -2.144 -13.421  14.117  0.00  0.00    +0.184 C 
ATOM      8  C   UNL     1      -4.115 -13.103  13.601  0.00  0.00    +0.184 C 
ENDROOT
BRANCH   6   4
ATOM      4  N   UNL     1      -3.521 -12.454  15.860  0.00  0.00    -0.300 NA
ATOM     22  H   UNL     1      -4.426 -12.899  16.013  0.00  0.00    +0.123 HD
BRANCH   4  11
ATOM     11  C   UNL     1      -3.502 -11.147  16.512  0.00  0.00    +0.156 C 
BRANCH  11  15
ATOM      3  O   UNL     1      -5.728 -10.442  17.200  0.00  0.00    -0.467 OA
ATOM     15  C   UNL     1      -4.563 -11.034  17.574  0.00  0.00    +0.119 A 
ATOM     19  C   UNL     1      -4.615 -11.414  18.895  0.00  0.00    +0.046 A 
ATOM     20  C   UNL     1      -5.895 -11.030  19.363  0.00  0.00    +0.041 A 
ATOM     21  C   UNL     1      -6.533 -10.444  18.295  0.00  0.00    +0.195 A 
ENDBRANCH  11  15
ENDBRANCH   4  11
ENDBRANCH   6   4
BRANCH   6   9
ATOM      9  C   UNL     1      -2.798 -10.869  14.077  0.00  0.00    +0.085 C 
BRANCH   9  10
ATOM      2  O   UNL     1      -3.031 -10.394  10.545  0.00  0.00    -0.359 OA
ATOM      5  N   UNL     1      -2.332 -10.743  11.694  0.00  0.00    -0.083 NA
ATOM     10  C   UNL     1      -3.206 -10.581  12.692  0.00  0.00    +0.086 A 
ATOM     13  C   UNL     1      -4.459 -10.137  12.237  0.00  0.00    +0.071 A 
ATOM     14  C   UNL     1      -4.296 -10.035  10.881  0.00  0.00    +0.143 A 
BRANCH  14  12
ATOM     12  C   UNL     1      -5.221  -9.615   9.726  0.00  0.00    +0.023 C 
ATOM     16  C   UNL     1      -4.667  -9.960   8.325  0.00  0.00    +0.019 C 
ATOM     17  C   UNL     1      -6.583 -10.328   9.866  0.00  0.00    +0.019 C 
ATOM     18  C   UNL     1      -5.441  -8.087   9.767  0.00  0.00    +0.019 C 
ENDBRANCH  14  12
ENDBRANCH   9  10
ENDBRANCH   6   9
TORSDOF 6
ENDMDL
