REMARK  Name = 28960475
REMARK  8 active torsions:
REMARK  status: ('A' for Active; 'I' for Inactive)
REMARK    1  A    between atoms: O_3  and  C_9
REMARK    2  A    between atoms: O_4  and  C_23
REMARK    3  A    between atoms: O_4  and  C_31
REMARK    4  A    between atoms: N_5  and  C_8
REMARK    5  A    between atoms: N_6  and  C_10
REMARK    6  A    between atoms: N_6  and  C_18
REMARK    7  A    between atoms: N_7  and  C_19
REMARK    8  A    between atoms: C_18  and  C_20
REMARK                            x       y       z     vdW  Elec       q    Type
REMARK                         _______ _______ _______ _____ _____    ______ ____
ROOT
ATOM      1  O   UNL     1       1.848  -2.491  -1.551  0.00  0.00    -0.343 OA
ATOM      2  O   UNL     1       2.370  -4.249  -0.131  0.00  0.00    -0.347 OA
ATOM      8  C   UNL     1       0.910  -2.498   0.673  0.00  0.00    +0.143 C 
ATOM      9  C   UNL     1       2.124  -1.700   1.204  0.00  0.00    +0.156 C 
ATOM     10  C   UNL     1       3.116  -1.260   0.099  0.00  0.00    +0.116 C 
ATOM     11  C   UNL     1       3.179  -2.264  -1.075  0.00  0.00    +0.166 C 
ATOM     12  C   UNL     1       1.319  -3.357  -0.538  0.00  0.00    +0.270 C 
ATOM     13  C   UNL     1       3.570  -3.673  -0.668  0.00  0.00    +0.196 C 
ENDROOT
BRANCH   8   5
ATOM      5  N   UNL     1      -0.180  -1.595   0.301  0.00  0.00    -0.290 NA
ATOM      7  N   UNL     1      -2.895  -0.733   0.090  0.00  0.00    -0.327 N 
ATOM     14  C   UNL     1      -0.915  -1.155   1.493  0.00  0.00    +0.104 C 
ATOM     15  C   UNL     1      -1.097  -2.255  -0.636  0.00  0.00    +0.104 C 
ATOM     16  C   UNL     1      -2.023  -0.166   1.123  0.00  0.00    +0.120 C 
ATOM     17  C   UNL     1      -2.210  -1.302  -1.078  0.00  0.00    +0.120 C 
BRANCH   7  19
ATOM     19  C   UNL     1      -4.184  -0.218  -0.090  0.00  0.00    +0.030 A 
ATOM     21  C   UNL     1      -4.445   1.122   0.192  0.00  0.00    +0.023 A 
ATOM     22  C   UNL     1      -5.207  -1.046  -0.551  0.00  0.00    +0.023 A 
ATOM     25  C   UNL     1      -5.729   1.635   0.013  0.00  0.00    +0.002 A 
ATOM     26  C   UNL     1      -6.492  -0.533  -0.730  0.00  0.00    +0.002 A 
ATOM     29  C   UNL     1      -6.753   0.808  -0.448  0.00  0.00    +0.000 A 
ENDBRANCH   7  19
ENDBRANCH   8   5
BRANCH   9   3
ATOM      3  O   UNL     1       2.822  -2.541   2.134  0.00  0.00    -0.388 OA
ATOM     33  H   UNL     1       3.548  -2.018   2.515  0.00  0.00    +0.210 HD
ENDBRANCH   9   3
BRANCH  10   6
ATOM      6  N   UNL     1       2.738   0.051  -0.440  0.00  0.00    -0.305 NA
ATOM     32  H   UNL     1       1.732   0.073  -0.608  0.00  0.00    +0.123 HD
BRANCH   6  18
ATOM     18  C   UNL     1       3.117   1.109   0.479  0.00  0.00    +0.120 C 
BRANCH  18  20
ATOM     20  C   UNL     1       2.737   2.469  -0.043  0.00  0.00    +0.008 A 
ATOM     23  C   UNL     1       1.630   3.146   0.469  0.00  0.00    +0.124 A 
ATOM     24  C   UNL     1       3.506   3.051  -1.051  0.00  0.00    +0.008 A 
ATOM     27  C   UNL     1       1.292   4.405  -0.027  0.00  0.00    +0.046 A 
ATOM     28  C   UNL     1       3.168   4.311  -1.547  0.00  0.00    +0.001 A 
ATOM     30  C   UNL     1       2.061   4.987  -1.035  0.00  0.00    +0.004 A 
BRANCH  23   4
ATOM      4  O   UNL     1       0.868   2.591   1.453  0.00  0.00    -0.495 OA
ATOM     31  C   UNL     1      -0.245   3.353   1.917  0.00  0.00    +0.277 C 
ENDBRANCH  23   4
ENDBRANCH  18  20
ENDBRANCH   6  18
ENDBRANCH  10   6
TORSDOF 7
