REMARK  Name = 7143175
REMARK  5 active torsions:
REMARK  status: ('A' for Active; 'I' for Inactive)
REMARK    1  A    between atoms: S_1  and  N_6
REMARK    2  A    between atoms: S_1  and  C_20
REMARK    3  A    between atoms: N_8  and  C_18
REMARK    4  A    between atoms: C_21  and  C_22
REMARK    5  A    between atoms: C_22  and  C_23
REMARK                            x       y       z     vdW  Elec       q    Type
REMARK                         _______ _______ _______ _____ _____    ______ ____
ROOT
ATOM      4  O   UNL     1      -0.100  -1.323   2.163  0.00  0.00    -0.266 OA
ATOM      6  N   UNL     1       3.730   0.995  -0.025  0.00  0.00    -0.180 NA
ATOM      7  N   UNL     1       1.676  -1.313   0.644  0.00  0.00    -0.310 N 
ATOM      9  C   UNL     1       4.118  -1.042   1.366  0.00  0.00    +0.025 C 
ATOM     10  C   UNL     1       3.571  -1.281  -1.016  0.00  0.00    +0.052 C 
ATOM     11  C   UNL     1       4.431  -1.846   0.111  0.00  0.00    +0.017 C 
ATOM     12  C   UNL     1       4.455   0.443   1.155  0.00  0.00    +0.114 C 
ATOM     13  C   UNL     1       3.949   0.191  -1.265  0.00  0.00    +0.118 C 
ATOM     14  C   UNL     1       2.648  -1.260   1.745  0.00  0.00    +0.130 C 
ATOM     15  C   UNL     1       2.094  -1.399  -0.688  0.00  0.00    +0.026 A 
ATOM     16  C   UNL     1       1.192  -1.561  -1.670  0.00  0.00    +0.024 A 
ATOM     17  C   UNL     1       0.315  -1.377   1.004  0.00  0.00    +0.273 A 
ATOM     18  C   UNL     1      -0.660  -1.535  -0.121  0.00  0.00    +0.099 A 
ATOM     19  C   UNL     1      -0.213  -1.629  -1.378  0.00  0.00    +0.030 A 
ENDROOT
BRANCH   6   1
ATOM      1  S   UNL     1       3.817   2.693  -0.220  0.00  0.00    +0.029 S 
ATOM      2  O   UNL     1       3.757   3.315   1.085  0.00  0.00    -0.158 OA
ATOM      3  O   UNL     1       2.927   3.085  -1.291  0.00  0.00    -0.158 OA
ATOM     20  C   UNL     1       5.483   2.826  -0.815  0.00  0.00    +0.215 C 
ENDBRANCH   6   1
BRANCH  18   8
ATOM      5  O   UNL     1      -2.821  -0.671  -1.788  0.00  0.00    -0.275 OA
ATOM      8  N   UNL     1      -1.988  -1.588   0.184  0.00  0.00    -0.281 N 
ATOM     21  C   UNL     1      -2.994  -1.151  -0.670  0.00  0.00    +0.222 C 
ATOM     29  H   UNL     1      -2.220  -1.743   1.162  0.00  0.00    +0.155 HD
BRANCH  21  22
ATOM     22  C   UNL     1      -4.366  -1.340  -0.048  0.00  0.00    +0.131 C 
BRANCH  22  23
ATOM     23  C   UNL     1      -5.132  -0.053   0.110  0.00  0.00    -0.039 A 
ATOM     24  C   UNL     1      -5.002   0.679   1.282  0.00  0.00    +0.004 A 
ATOM     25  C   UNL     1      -5.958   0.381  -0.917  0.00  0.00    +0.004 A 
ATOM     26  C   UNL     1      -5.713   1.871   1.429  0.00  0.00    +0.000 A 
ATOM     27  C   UNL     1      -6.668   1.572  -0.770  0.00  0.00    +0.000 A 
ATOM     28  C   UNL     1      -6.545   2.317   0.402  0.00  0.00    +0.000 A 
ENDBRANCH  22  23
ENDBRANCH  21  22
ENDBRANCH  18   8
TORSDOF 4
