MODEL 1
REMARK VINA RESULT:      -7.1      0.000      0.000
REMARK  Name = 7050120
REMARK  13 active torsions:
REMARK  status: ('A' for Active; 'I' for Inactive)
REMARK    1  A    between atoms: O_2  and  C_19
REMARK    2  A    between atoms: O_4  and  C_21
REMARK    3  A    between atoms: O_5  and  C_22
REMARK    4  A    between atoms: N_8  and  C_20
REMARK    5  A    between atoms: N_9  and  C_27
REMARK    6  A    between atoms: C_11  and  C_16
REMARK    7  A    between atoms: C_11  and  C_17
REMARK    8  A    between atoms: C_16  and  C_18
REMARK    9  A    between atoms: C_17  and  C_19
REMARK   10  A    between atoms: C_25  and  C_26
REMARK   11  A    between atoms: C_27  and  C_28
REMARK   12  A    between atoms: C_27  and  C_29
REMARK   13  A    between atoms: C_28  and  C_30
REMARK                            x       y       z     vdW  Elec       q    Type
REMARK                         _______ _______ _______ _____ _____    ______ ____
ROOT
ATOM     20  C   UNL     1     -17.058   4.230  25.139  0.00  0.00    +0.127 C 
ATOM     21  C   UNL     1     -16.989   2.977  24.247  0.00  0.00    +0.167 C 
ATOM     22  C   UNL     1     -17.583   1.751  24.952  0.00  0.00    +0.149 C 
ATOM     23  C   UNL     1     -16.653   3.968  26.566  0.00  0.00    +0.006 C 
ATOM     24  C   UNL     1     -16.907   1.478  26.307  0.00  0.00    +0.074 C 
ATOM     25  C   UNL     1     -16.581   2.728  27.073  0.00  0.00    +0.015 C 
ENDROOT
BRANCH  20   8
ATOM      1  O   UNL     1     -17.720   6.024  22.967  0.00  0.00    -0.276 OA
ATOM      8  N   UNL     1     -16.247   5.303  24.615  0.00  0.00    -0.306 N 
ATOM     18  C   UNL     1     -16.651   6.116  23.564  0.00  0.00    +0.214 C 
ATOM     36  H   UNL     1     -15.317   5.424  25.005  0.00  0.00    +0.149 HD
BRANCH  18  16
ATOM     16  C   UNL     1     -15.600   7.158  23.228  0.00  0.00    +0.103 C 
BRANCH  16  11
ATOM     11  C   UNL     1     -14.966   6.934  21.854  0.00  0.00    -0.011 C 
ATOM     12  C   UNL     1     -15.883   7.420  20.723  0.00  0.00    +0.008 C 
ATOM     13  C   UNL     1     -13.728   7.818  21.651  0.00  0.00    +0.008 C 
ATOM     14  C   UNL     1     -14.951   7.681  19.541  0.00  0.00    +0.001 C 
ATOM     15  C   UNL     1     -13.567   7.935  20.137  0.00  0.00    +0.001 C 
BRANCH  11  17
ATOM     17  C   UNL     1     -14.621   5.445  21.692  0.00  0.00    +0.127 C 
BRANCH  17  19
ATOM      3  O   UNL     1     -13.438   4.740  23.703  0.00  0.00    -0.251 OA
ATOM     19  C   UNL     1     -13.433   5.066  22.526  0.00  0.00    +0.305 C 
BRANCH  19   2
ATOM      2  O   UNL     1     -12.309   5.135  21.768  0.00  0.00    -0.481 OA
ATOM     37  H   UNL     1     -12.515   5.143  20.809  0.00  0.00    +0.295 HD
ENDBRANCH  19   2
ENDBRANCH  17  19
ENDBRANCH  11  17
ENDBRANCH  16  11
ENDBRANCH  18  16
ENDBRANCH  20   8
BRANCH  25  26
ATOM      6  O   UNL     1     -16.410   3.487  29.290  0.00  0.00    -0.271 OA
ATOM      9  N   UNL     1     -15.539   1.395  28.741  0.00  0.00    -0.300 N 
ATOM     26  C   UNL     1     -16.178   2.594  28.476  0.00  0.00    +0.241 C 
ATOM     40  H   UNL     1     -15.461   0.700  28.003  0.00  0.00    +0.150 HD
BRANCH   9  27
ATOM     27  C   UNL     1     -15.047   1.036  30.051  0.00  0.00    +0.163 C 
BRANCH  27  29
ATOM      7  O   UNL     1     -13.875  -0.939  29.259  0.00  0.00    -0.274 OA
ATOM     10  N   UNL     1     -15.411  -1.179  30.950  0.00  0.00    -0.328 N 
ATOM     29  C   UNL     1     -14.711  -0.449  30.012  0.00  0.00    +0.231 C 
ATOM     41  H   UNL     1     -16.082  -0.755  31.582  0.00  0.00    +0.145 HD
ATOM     42  H   UNL     1     -15.271  -2.180  31.039  0.00  0.00    +0.145 HD
ENDBRANCH  27  29
BRANCH  27  28
ATOM     28  C   UNL     1     -13.812   1.851  30.452  0.00  0.00    +0.067 C 
BRANCH  28  30
ATOM     30  C   UNL     1     -14.020   2.638  31.724  0.00  0.00    -0.045 A 
ATOM     31  C   UNL     1     -14.493   1.999  32.869  0.00  0.00    +0.004 A 
ATOM     32  C   UNL     1     -13.739   4.004  31.752  0.00  0.00    +0.004 A 
ATOM     33  C   UNL     1     -14.686   2.726  34.045  0.00  0.00    +0.000 A 
ATOM     34  C   UNL     1     -13.931   4.731  32.928  0.00  0.00    +0.000 A 
ATOM     35  C   UNL     1     -14.404   4.092  34.073  0.00  0.00    +0.000 A 
ENDBRANCH  28  30
ENDBRANCH  27  28
ENDBRANCH   9  27
ENDBRANCH  25  26
BRANCH  21   4
ATOM      4  O   UNL     1     -15.627   2.700  23.914  0.00  0.00    -0.387 OA
ATOM     38  H   UNL     1     -15.421   1.809  24.243  0.00  0.00    +0.210 HD
ENDBRANCH  21   4
BRANCH  22   5
ATOM      5  O   UNL     1     -18.987   1.921  25.131  0.00  0.00    -0.389 OA
ATOM     39  H   UNL     1     -19.432   1.535  24.356  0.00  0.00    +0.210 HD
ENDBRANCH  22   5
TORSDOF 13
ENDMDL
MODEL 2
REMARK VINA RESULT:      -6.8     29.568     32.406
REMARK  Name = 7050120
REMARK  13 active torsions:
REMARK  status: ('A' for Active; 'I' for Inactive)
REMARK    1  A    between atoms: O_2  and  C_19
REMARK    2  A    between atoms: O_4  and  C_21
REMARK    3  A    between atoms: O_5  and  C_22
REMARK    4  A    between atoms: N_8  and  C_20
REMARK    5  A    between atoms: N_9  and  C_27
REMARK    6  A    between atoms: C_11  and  C_16
REMARK    7  A    between atoms: C_11  and  C_17
REMARK    8  A    between atoms: C_16  and  C_18
REMARK    9  A    between atoms: C_17  and  C_19
REMARK   10  A    between atoms: C_25  and  C_26
REMARK   11  A    between atoms: C_27  and  C_28
REMARK   12  A    between atoms: C_27  and  C_29
REMARK   13  A    between atoms: C_28  and  C_30
REMARK                            x       y       z     vdW  Elec       q    Type
REMARK                         _______ _______ _______ _____ _____    ______ ____
ROOT
ATOM     20  C   UNL     1      14.859  11.571  22.156  0.00  0.00    +0.127 C 
ATOM     21  C   UNL     1      14.845  12.111  23.598  0.00  0.00    +0.167 C 
ATOM     22  C   UNL     1      16.159  12.818  23.947  0.00  0.00    +0.149 C 
ATOM     23  C   UNL     1      16.150  10.887  21.789  0.00  0.00    +0.006 C 
ATOM     24  C   UNL     1      17.382  11.909  23.731  0.00  0.00    +0.074 C 
ATOM     25  C   UNL     1      17.271  11.042  22.510  0.00  0.00    +0.015 C 
ENDROOT
BRANCH  20   8
ATOM      1  O   UNL     1      12.461  12.077  20.617  0.00  0.00    -0.276 OA
ATOM      8  N   UNL     1      13.766  10.659  21.917  0.00  0.00    -0.306 N 
ATOM     18  C   UNL     1      12.649  10.993  21.162  0.00  0.00    +0.214 C 
ATOM     36  H   UNL     1      13.800   9.752  22.375  0.00  0.00    +0.149 HD
BRANCH  18  16
ATOM     16  C   UNL     1      11.666   9.839  21.079  0.00  0.00    +0.103 C 
BRANCH  16  11
ATOM     11  C   UNL     1      12.122   8.746  20.111  0.00  0.00    -0.011 C 
ATOM     12  C   UNL     1      11.077   8.486  19.017  0.00  0.00    +0.008 C 
ATOM     13  C   UNL     1      13.334   9.195  19.282  0.00  0.00    +0.008 C 
ATOM     14  C   UNL     1      11.858   7.863  17.862  0.00  0.00    +0.001 C 
ATOM     15  C   UNL     1      13.308   8.317  18.033  0.00  0.00    +0.001 C 
BRANCH  11  17
ATOM     17  C   UNL     1      12.432   7.465  20.903  0.00  0.00    +0.127 C 
BRANCH  17  19
ATOM      3  O   UNL     1      10.296   7.254  22.060  0.00  0.00    -0.251 OA
ATOM     19  C   UNL     1      11.172   6.783  21.351  0.00  0.00    +0.305 C 
BRANCH  19   2
ATOM      2  O   UNL     1      11.136   5.524  20.844  0.00  0.00    -0.481 OA
ATOM     37  H   UNL     1      11.418   4.856  21.503  0.00  0.00    +0.295 HD
ENDBRANCH  19   2
ENDBRANCH  17  19
ENDBRANCH  11  17
ENDBRANCH  16  11
ENDBRANCH  18  16
ENDBRANCH  20   8
BRANCH  25  26
ATOM      6  O   UNL     1      19.274  10.865  21.294  0.00  0.00    -0.271 OA
ATOM      9  N   UNL     1      18.565   9.050  22.573  0.00  0.00    -0.300 N 
ATOM     26  C   UNL     1      18.469  10.330  22.056  0.00  0.00    +0.241 C 
ATOM     40  H   UNL     1      17.873   8.734  23.249  0.00  0.00    +0.150 HD
BRANCH   9  27
ATOM     27  C   UNL     1      19.657   8.155  22.268  0.00  0.00    +0.163 C 
BRANCH  27  29
ATOM      7  O   UNL     1      21.795   8.763  23.249  0.00  0.00    -0.274 OA
ATOM     10  N   UNL     1      20.180   7.860  24.610  0.00  0.00    -0.328 N 
ATOM     29  C   UNL     1      20.673   8.287  23.395  0.00  0.00    +0.231 C 
ATOM     41  H   UNL     1      19.241   7.491  24.719  0.00  0.00    +0.145 HD
ATOM     42  H   UNL     1      20.751   7.906  25.448  0.00  0.00    +0.145 HD
ENDBRANCH  27  29
BRANCH  27  28
ATOM     28  C   UNL     1      19.195   6.699  22.134  0.00  0.00    +0.067 C 
BRANCH  28  30
ATOM     30  C   UNL     1      18.146   6.515  21.064  0.00  0.00    -0.045 A 
ATOM     31  C   UNL     1      18.494   5.945  19.840  0.00  0.00    +0.004 A 
ATOM     32  C   UNL     1      16.831   6.915  21.300  0.00  0.00    +0.004 A 
ATOM     33  C   UNL     1      17.525   5.774  18.850  0.00  0.00    +0.000 A 
ATOM     34  C   UNL     1      15.863   6.745  20.310  0.00  0.00    +0.000 A 
ATOM     35  C   UNL     1      16.210   6.174  19.086  0.00  0.00    +0.000 A 
ENDBRANCH  28  30
ENDBRANCH  27  28
ENDBRANCH   9  27
ENDBRANCH  25  26
BRANCH  21   4
ATOM      4  O   UNL     1      14.648  11.030  24.513  0.00  0.00    -0.387 OA
ATOM     38  H   UNL     1      14.214  10.310  24.026  0.00  0.00    +0.210 HD
ENDBRANCH  21   4
BRANCH  22   5
ATOM      5  O   UNL     1      16.294  14.011  23.176  0.00  0.00    -0.389 OA
ATOM     39  H   UNL     1      15.427  14.451  23.160  0.00  0.00    +0.210 HD
ENDBRANCH  22   5
TORSDOF 13
ENDMDL
MODEL 3
REMARK VINA RESULT:      -6.8     27.527     30.735
REMARK  Name = 7050120
REMARK  13 active torsions:
REMARK  status: ('A' for Active; 'I' for Inactive)
REMARK    1  A    between atoms: O_2  and  C_19
REMARK    2  A    between atoms: O_4  and  C_21
REMARK    3  A    between atoms: O_5  and  C_22
REMARK    4  A    between atoms: N_8  and  C_20
REMARK    5  A    between atoms: N_9  and  C_27
REMARK    6  A    between atoms: C_11  and  C_16
REMARK    7  A    between atoms: C_11  and  C_17
REMARK    8  A    between atoms: C_16  and  C_18
REMARK    9  A    between atoms: C_17  and  C_19
REMARK   10  A    between atoms: C_25  and  C_26
REMARK   11  A    between atoms: C_27  and  C_28
REMARK   12  A    between atoms: C_27  and  C_29
REMARK   13  A    between atoms: C_28  and  C_30
REMARK                            x       y       z     vdW  Elec       q    Type
REMARK                         _______ _______ _______ _____ _____    ______ ____
ROOT
ATOM     20  C   UNL     1      12.739  11.641  22.270  0.00  0.00    +0.127 C 
ATOM     21  C   UNL     1      11.407  12.030  22.939  0.00  0.00    +0.167 C 
ATOM     22  C   UNL     1      10.645  10.796  23.435  0.00  0.00    +0.149 C 
ATOM     23  C   UNL     1      12.615  10.464  21.339  0.00  0.00    +0.006 C 
ATOM     24  C   UNL     1      10.398   9.776  22.309  0.00  0.00    +0.074 C 
ATOM     25  C   UNL     1      11.556   9.641  21.362  0.00  0.00    +0.015 C 
ENDROOT
BRANCH  20   8
ATOM      1  O   UNL     1      15.550  12.182  21.844  0.00  0.00    -0.276 OA
ATOM      8  N   UNL     1      13.315  12.748  21.545  0.00  0.00    -0.306 N 
ATOM     18  C   UNL     1      14.684  12.927  21.393  0.00  0.00    +0.214 C 
ATOM     36  H   UNL     1      12.680  13.454  21.181  0.00  0.00    +0.149 HD
BRANCH  18  16
ATOM     16  C   UNL     1      14.998  14.172  20.584  0.00  0.00    +0.103 C 
BRANCH  16  11
ATOM     11  C   UNL     1      15.140  13.882  19.089  0.00  0.00    -0.011 C 
ATOM     12  C   UNL     1      16.611  13.730  18.679  0.00  0.00    +0.008 C 
ATOM     13  C   UNL     1      14.572  12.503  18.725  0.00  0.00    +0.008 C 
ATOM     14  C   UNL     1      16.582  12.903  17.395  0.00  0.00    +0.001 C 
ATOM     15  C   UNL     1      15.272  12.116  17.424  0.00  0.00    +0.001 C 
BRANCH  11  17
ATOM     17  C   UNL     1      14.450  14.999  18.288  0.00  0.00    +0.127 C 
BRANCH  17  19
ATOM      3  O   UNL     1      12.222  14.703  19.231  0.00  0.00    -0.251 OA
ATOM     19  C   UNL     1      12.961  14.815  18.265  0.00  0.00    +0.305 C 
BRANCH  19   2
ATOM      2  O   UNL     1      12.529  14.788  16.978  0.00  0.00    -0.481 OA
ATOM     37  H   UNL     1      11.947  14.018  16.804  0.00  0.00    +0.295 HD
ENDBRANCH  19   2
ENDBRANCH  17  19
ENDBRANCH  11  17
ENDBRANCH  16  11
ENDBRANCH  18  16
ENDBRANCH  20   8
BRANCH  25  26
ATOM      6  O   UNL     1      11.036   7.445  20.709  0.00  0.00    -0.271 OA
ATOM      9  N   UNL     1      12.149   8.837  19.207  0.00  0.00    -0.300 N 
ATOM     26  C   UNL     1      11.544   8.525  20.412  0.00  0.00    +0.241 C 
ATOM     40  H   UNL     1      12.477   9.786  19.047  0.00  0.00    +0.150 HD
BRANCH   9  27
ATOM     27  C   UNL     1      12.262   7.898  18.114  0.00  0.00    +0.163 C 
BRANCH  27  29
ATOM      7  O   UNL     1      12.181   8.998  15.949  0.00  0.00    -0.274 OA
ATOM     10  N   UNL     1      10.201   8.470  16.987  0.00  0.00    -0.328 N 
ATOM     29  C   UNL     1      11.577   8.528  16.909  0.00  0.00    +0.231 C 
ATOM     41  H   UNL     1       9.716   8.056  17.777  0.00  0.00    +0.145 HD
ATOM     42  H   UNL     1       9.622   8.843  16.241  0.00  0.00    +0.145 HD
ENDBRANCH  27  29
BRANCH  27  28
ATOM     28  C   UNL     1      13.721   7.565  17.784  0.00  0.00    +0.067 C 
BRANCH  28  30
ATOM     30  C   UNL     1      14.637   7.704  18.976  0.00  0.00    -0.045 A 
ATOM     31  C   UNL     1      15.283   8.915  19.220  0.00  0.00    +0.004 A 
ATOM     32  C   UNL     1      14.835   6.621  19.833  0.00  0.00    +0.004 A 
ATOM     33  C   UNL     1      16.130   9.044  20.322  0.00  0.00    +0.000 A 
ATOM     34  C   UNL     1      15.681   6.750  20.935  0.00  0.00    +0.000 A 
ATOM     35  C   UNL     1      16.327   7.961  21.179  0.00  0.00    +0.000 A 
ENDBRANCH  28  30
ENDBRANCH  27  28
ENDBRANCH   9  27
ENDBRANCH  25  26
BRANCH  21   4
ATOM      4  O   UNL     1      10.586  12.730  22.002  0.00  0.00    -0.387 OA
ATOM     38  H   UNL     1       9.712  12.848  22.410  0.00  0.00    +0.210 HD
ENDBRANCH  21   4
BRANCH  22   5
ATOM      5  O   UNL     1      11.356  10.178  24.507  0.00  0.00    -0.389 OA
ATOM     39  H   UNL     1      12.292  10.429  24.423  0.00  0.00    +0.210 HD
ENDBRANCH  22   5
TORSDOF 13
ENDMDL
MODEL 4
REMARK VINA RESULT:      -6.6     31.309     35.964
REMARK  Name = 7050120
REMARK  13 active torsions:
REMARK  status: ('A' for Active; 'I' for Inactive)
REMARK    1  A    between atoms: O_2  and  C_19
REMARK    2  A    between atoms: O_4  and  C_21
REMARK    3  A    between atoms: O_5  and  C_22
REMARK    4  A    between atoms: N_8  and  C_20
REMARK    5  A    between atoms: N_9  and  C_27
REMARK    6  A    between atoms: C_11  and  C_16
REMARK    7  A    between atoms: C_11  and  C_17
REMARK    8  A    between atoms: C_16  and  C_18
REMARK    9  A    between atoms: C_17  and  C_19
REMARK   10  A    between atoms: C_25  and  C_26
REMARK   11  A    between atoms: C_27  and  C_28
REMARK   12  A    between atoms: C_27  and  C_29
REMARK   13  A    between atoms: C_28  and  C_30
REMARK                            x       y       z     vdW  Elec       q    Type
REMARK                         _______ _______ _______ _____ _____    ______ ____
ROOT
ATOM     20  C   UNL     1      13.562   8.591   5.625  0.00  0.00    +0.127 C 
ATOM     21  C   UNL     1      14.954   8.410   6.260  0.00  0.00    +0.167 C 
ATOM     22  C   UNL     1      16.064   8.459   5.204  0.00  0.00    +0.149 C 
ATOM     23  C   UNL     1      13.375   7.791   4.364  0.00  0.00    +0.006 C 
ATOM     24  C   UNL     1      15.849   7.421   4.088  0.00  0.00    +0.074 C 
ATOM     25  C   UNL     1      14.409   7.265   3.690  0.00  0.00    +0.015 C 
ENDROOT
BRANCH  20   8
ATOM      1  O   UNL     1      10.816   9.504   5.556  0.00  0.00    -0.276 OA
ATOM      8  N   UNL     1      12.507   8.255   6.550  0.00  0.00    -0.306 N 
ATOM     18  C   UNL     1      11.212   8.745   6.436  0.00  0.00    +0.214 C 
ATOM     36  H   UNL     1      12.748   7.676   7.350  0.00  0.00    +0.149 HD
BRANCH  18  16
ATOM     16  C   UNL     1      10.317   8.221   7.545  0.00  0.00    +0.103 C 
BRANCH  16  11
ATOM     11  C   UNL     1       9.487   7.012   7.110  0.00  0.00    -0.011 C 
ATOM     12  C   UNL     1       8.280   7.432   6.260  0.00  0.00    +0.008 C 
ATOM     13  C   UNL     1      10.261   6.119   6.131  0.00  0.00    +0.008 C 
ATOM     14  C   UNL     1       7.917   6.192   5.447  0.00  0.00    +0.001 C 
ATOM     15  C   UNL     1       9.188   5.347   5.365  0.00  0.00    +0.001 C 
BRANCH  11  17
ATOM     17  C   UNL     1       9.046   6.225   8.355  0.00  0.00    +0.127 C 
BRANCH  17  19
ATOM      3  O   UNL     1       9.764   3.914   8.645  0.00  0.00    -0.251 OA
ATOM     19  C   UNL     1      10.003   5.112   8.665  0.00  0.00    +0.305 C 
BRANCH  19   2
ATOM      2  O   UNL     1      11.215   5.635   8.982  0.00  0.00    -0.481 OA
ATOM     37  H   UNL     1      11.144   6.564   9.288  0.00  0.00    +0.295 HD
ENDBRANCH  19   2
ENDBRANCH  17  19
ENDBRANCH  11  17
ENDBRANCH  16  11
ENDBRANCH  18  16
ENDBRANCH  20   8
BRANCH  25  26
ATOM      6  O   UNL     1      14.797   6.632   1.460  0.00  0.00    -0.271 OA
ATOM      9  N   UNL     1      13.006   5.680   2.609  0.00  0.00    -0.300 N 
ATOM     26  C   UNL     1      14.108   6.507   2.472  0.00  0.00    +0.241 C 
ATOM     40  H   UNL     1      12.551   5.607   3.516  0.00  0.00    +0.150 HD
BRANCH   9  27
ATOM     27  C   UNL     1      12.514   4.837   1.545  0.00  0.00    +0.163 C 
BRANCH  27  29
ATOM      7  O   UNL     1      14.317   3.208   1.599  0.00  0.00    -0.274 OA
ATOM     10  N   UNL     1      12.200   2.522   2.168  0.00  0.00    -0.328 N 
ATOM     29  C   UNL     1      13.123   3.456   1.748  0.00  0.00    +0.231 C 
ATOM     41  H   UNL     1      11.220   2.749   2.311  0.00  0.00    +0.145 HD
ATOM     42  H   UNL     1      12.477   1.564   2.354  0.00  0.00    +0.145 HD
ENDBRANCH  27  29
BRANCH  27  28
ATOM     28  C   UNL     1      10.984   4.748   1.534  0.00  0.00    +0.067 C 
BRANCH  28  30
ATOM     30  C   UNL     1      10.324   6.080   1.270  0.00  0.00    -0.045 A 
ATOM     31  C   UNL     1      10.242   6.571  -0.032  0.00  0.00    +0.004 A 
ATOM     32  C   UNL     1       9.795   6.818   2.330  0.00  0.00    +0.004 A 
ATOM     33  C   UNL     1       9.632   7.803  -0.276  0.00  0.00    +0.000 A 
ATOM     34  C   UNL     1       9.185   8.049   2.086  0.00  0.00    +0.000 A 
ATOM     35  C   UNL     1       9.104   8.540   0.783  0.00  0.00    +0.000 A 
ENDBRANCH  28  30
ENDBRANCH  27  28
ENDBRANCH   9  27
ENDBRANCH  25  26
BRANCH  21   4
ATOM      4  O   UNL     1      15.015   7.150   6.932  0.00  0.00    -0.387 OA
ATOM     38  H   UNL     1      14.109   6.917   7.197  0.00  0.00    +0.210 HD
ENDBRANCH  21   4
BRANCH  22   5
ATOM      5  O   UNL     1      16.152   9.768   4.644  0.00  0.00    -0.389 OA
ATOM     39  H   UNL     1      16.157  10.404   5.380  0.00  0.00    +0.210 HD
ENDBRANCH  22   5
TORSDOF 13
ENDMDL
MODEL 5
REMARK VINA RESULT:      -6.6     28.742     31.425
REMARK  Name = 7050120
REMARK  13 active torsions:
REMARK  status: ('A' for Active; 'I' for Inactive)
REMARK    1  A    between atoms: O_2  and  C_19
REMARK    2  A    between atoms: O_4  and  C_21
REMARK    3  A    between atoms: O_5  and  C_22
REMARK    4  A    between atoms: N_8  and  C_20
REMARK    5  A    between atoms: N_9  and  C_27
REMARK    6  A    between atoms: C_11  and  C_16
REMARK    7  A    between atoms: C_11  and  C_17
REMARK    8  A    between atoms: C_16  and  C_18
REMARK    9  A    between atoms: C_17  and  C_19
REMARK   10  A    between atoms: C_25  and  C_26
REMARK   11  A    between atoms: C_27  and  C_28
REMARK   12  A    between atoms: C_27  and  C_29
REMARK   13  A    between atoms: C_28  and  C_30
REMARK                            x       y       z     vdW  Elec       q    Type
REMARK                         _______ _______ _______ _____ _____    ______ ____
ROOT
ATOM     20  C   UNL     1      13.899  11.913  17.778  0.00  0.00    +0.127 C 
ATOM     21  C   UNL     1      14.637  12.236  16.465  0.00  0.00    +0.167 C 
ATOM     22  C   UNL     1      14.297  11.224  15.364  0.00  0.00    +0.149 C 
ATOM     23  C   UNL     1      13.925  10.449  18.130  0.00  0.00    +0.006 C 
ATOM     24  C   UNL     1      14.590   9.777  15.798  0.00  0.00    +0.074 C 
ATOM     25  C   UNL     1      14.245   9.503  17.233  0.00  0.00    +0.015 C 
ENDROOT
BRANCH  20   8
ATOM      1  O   UNL     1      12.630  14.112  19.166  0.00  0.00    -0.276 OA
ATOM      8  N   UNL     1      14.430  12.668  18.887  0.00  0.00    -0.306 N 
ATOM     18  C   UNL     1      13.744  13.713  19.492  0.00  0.00    +0.214 C 
ATOM     36  H   UNL     1      15.374  12.451  19.195  0.00  0.00    +0.149 HD
BRANCH  18  16
ATOM     16  C   UNL     1      14.543  14.319  20.632  0.00  0.00    +0.103 C 
BRANCH  16  11
ATOM     11  C   UNL     1      14.087  13.817  22.003  0.00  0.00    -0.011 C 
ATOM     12  C   UNL     1      13.417  14.931  22.819  0.00  0.00    +0.008 C 
ATOM     13  C   UNL     1      12.948  12.795  21.879  0.00  0.00    +0.008 C 
ATOM     14  C   UNL     1      12.533  14.204  23.831  0.00  0.00    +0.001 C 
ATOM     15  C   UNL     1      12.233  12.833  23.228  0.00  0.00    +0.001 C 
BRANCH  11  17
ATOM     17  C   UNL     1      15.291  13.222  22.752  0.00  0.00    +0.127 C 
BRANCH  17  19
ATOM      3  O   UNL     1      15.748  11.347  21.263  0.00  0.00    -0.251 OA
ATOM     19  C   UNL     1      15.512  11.786  22.378  0.00  0.00    +0.305 C 
BRANCH  19   2
ATOM      2  O   UNL     1      15.409  11.011  23.488  0.00  0.00    -0.481 OA
ATOM     37  H   UNL     1      15.121  10.099  23.271  0.00  0.00    +0.295 HD
ENDBRANCH  19   2
ENDBRANCH  17  19
ENDBRANCH  11  17
ENDBRANCH  16  11
ENDBRANCH  18  16
ENDBRANCH  20   8
BRANCH  25  26
ATOM      6  O   UNL     1      13.561   7.259  17.107  0.00  0.00    -0.271 OA
ATOM      9  N   UNL     1      15.038   7.896  18.794  0.00  0.00    -0.300 N 
ATOM     26  C   UNL     1      14.234   8.110  17.688  0.00  0.00    +0.241 C 
ATOM     40  H   UNL     1      15.604   8.662  19.151  0.00  0.00    +0.150 HD
BRANCH   9  27
ATOM     27  C   UNL     1      15.187   6.605  19.424  0.00  0.00    +0.163 C 
BRANCH  27  29
ATOM      7  O   UNL     1      17.521   6.491  20.091  0.00  0.00    -0.274 OA
ATOM     10  N   UNL     1      16.879   5.429  18.158  0.00  0.00    -0.328 N 
ATOM     29  C   UNL     1      16.648   6.201  19.277  0.00  0.00    +0.231 C 
ATOM     41  H   UNL     1      16.141   5.177  17.507  0.00  0.00    +0.145 HD
ATOM     42  H   UNL     1      17.809   5.081  17.948  0.00  0.00    +0.145 HD
ENDBRANCH  27  29
BRANCH  27  28
ATOM     28  C   UNL     1      14.788   6.631  20.904  0.00  0.00    +0.067 C 
BRANCH  28  30
ATOM     30  C   UNL     1      13.497   7.375  21.147  0.00  0.00    -0.045 A 
ATOM     31  C   UNL     1      12.291   6.847  20.687  0.00  0.00    +0.004 A 
ATOM     32  C   UNL     1      13.511   8.590  21.832  0.00  0.00    +0.004 A 
ATOM     33  C   UNL     1      11.098   7.535  20.911  0.00  0.00    +0.000 A 
ATOM     34  C   UNL     1      12.318   9.278  22.056  0.00  0.00    +0.000 A 
ATOM     35  C   UNL     1      11.112   8.750  21.596  0.00  0.00    +0.000 A 
ENDBRANCH  28  30
ENDBRANCH  27  28
ENDBRANCH   9  27
ENDBRANCH  25  26
BRANCH  21   4
ATOM      4  O   UNL     1      16.048  12.213  16.689  0.00  0.00    -0.387 OA
ATOM     38  H   UNL     1      16.234  11.487  17.308  0.00  0.00    +0.210 HD
ENDBRANCH  21   4
BRANCH  22   5
ATOM      5  O   UNL     1      12.928  11.353  14.985  0.00  0.00    -0.389 OA
ATOM     39  H   UNL     1      12.669  10.533  14.531  0.00  0.00    +0.210 HD
ENDBRANCH  22   5
TORSDOF 13
ENDMDL
MODEL 6
REMARK VINA RESULT:      -6.5      1.909      9.060
REMARK  Name = 7050120
REMARK  13 active torsions:
REMARK  status: ('A' for Active; 'I' for Inactive)
REMARK    1  A    between atoms: O_2  and  C_19
REMARK    2  A    between atoms: O_4  and  C_21
REMARK    3  A    between atoms: O_5  and  C_22
REMARK    4  A    between atoms: N_8  and  C_20
REMARK    5  A    between atoms: N_9  and  C_27
REMARK    6  A    between atoms: C_11  and  C_16
REMARK    7  A    between atoms: C_11  and  C_17
REMARK    8  A    between atoms: C_16  and  C_18
REMARK    9  A    between atoms: C_17  and  C_19
REMARK   10  A    between atoms: C_25  and  C_26
REMARK   11  A    between atoms: C_27  and  C_28
REMARK   12  A    between atoms: C_27  and  C_29
REMARK   13  A    between atoms: C_28  and  C_30
REMARK                            x       y       z     vdW  Elec       q    Type
REMARK                         _______ _______ _______ _____ _____    ______ ____
ROOT
ATOM     20  C   UNL     1     -16.603   1.195  26.766  0.00  0.00    +0.127 C 
ATOM     21  C   UNL     1     -17.961   0.612  26.334  0.00  0.00    +0.167 C 
ATOM     22  C   UNL     1     -18.094   0.567  24.807  0.00  0.00    +0.149 C 
ATOM     23  C   UNL     1     -16.205   2.419  25.985  0.00  0.00    +0.006 C 
ATOM     24  C   UNL     1     -17.879   1.949  24.166  0.00  0.00    +0.074 C 
ATOM     25  C   UNL     1     -16.792   2.750  24.824  0.00  0.00    +0.015 C 
ENDROOT
BRANCH  20   8
ATOM      1  O   UNL     1     -14.842   0.103  28.787  0.00  0.00    -0.276 OA
ATOM      8  N   UNL     1     -16.584   1.515  28.173  0.00  0.00    -0.306 N 
ATOM     18  C   UNL     1     -15.698   0.936  29.072  0.00  0.00    +0.214 C 
ATOM     36  H   UNL     1     -17.294   2.154  28.521  0.00  0.00    +0.149 HD
BRANCH  18  16
ATOM     16  C   UNL     1     -15.906   1.464  30.480  0.00  0.00    +0.103 C 
BRANCH  16  11
ATOM     11  C   UNL     1     -15.021   2.672  30.793  0.00  0.00    -0.011 C 
ATOM     12  C   UNL     1     -15.365   3.288  32.156  0.00  0.00    +0.008 C 
ATOM     13  C   UNL     1     -13.556   2.260  30.999  0.00  0.00    +0.008 C 
ATOM     14  C   UNL     1     -14.105   4.039  32.581  0.00  0.00    +0.001 C 
ATOM     15  C   UNL     1     -12.944   3.380  31.838  0.00  0.00    +0.001 C 
BRANCH  11  17
ATOM     17  C   UNL     1     -15.156   3.705  29.663  0.00  0.00    +0.127 C 
BRANCH  17  19
ATOM      3  O   UNL     1     -17.562   4.091  29.592  0.00  0.00    -0.251 OA
ATOM     19  C   UNL     1     -16.426   4.494  29.793  0.00  0.00    +0.305 C 
BRANCH  19   2
ATOM      2  O   UNL     1     -16.133   5.762  30.179  0.00  0.00    -0.481 OA
ATOM     37  H   UNL     1     -16.016   6.360  29.411  0.00  0.00    +0.295 HD
ENDBRANCH  19   2
ENDBRANCH  17  19
ENDBRANCH  11  17
ENDBRANCH  16  11
ENDBRANCH  18  16
ENDBRANCH  20   8
BRANCH  25  26
ATOM      6  O   UNL     1     -16.439   5.068  24.676  0.00  0.00    -0.271 OA
ATOM      9  N   UNL     1     -15.759   3.707  22.910  0.00  0.00    -0.300 N 
ATOM     26  C   UNL     1     -16.321   3.962  24.149  0.00  0.00    +0.241 C 
ATOM     40  H   UNL     1     -15.653   2.743  22.603  0.00  0.00    +0.150 HD
BRANCH   9  27
ATOM     27  C   UNL     1     -15.227   4.743  22.056  0.00  0.00    +0.163 C 
BRANCH  27  29
ATOM      7  O   UNL     1     -17.096   6.271  21.778  0.00  0.00    -0.274 OA
ATOM     10  N   UNL     1     -16.583   4.839  20.057  0.00  0.00    -0.328 N 
ATOM     29  C   UNL     1     -16.405   5.366  21.319  0.00  0.00    +0.231 C 
ATOM     41  H   UNL     1     -15.988   4.107  19.681  0.00  0.00    +0.145 HD
ATOM     42  H   UNL     1     -17.327   5.175  19.453  0.00  0.00    +0.145 HD
ENDBRANCH  27  29
BRANCH  27  28
ATOM     28  C   UNL     1     -14.467   5.814  22.847  0.00  0.00    +0.067 C 
BRANCH  28  30
ATOM     30  C   UNL     1     -13.568   6.657  21.973  0.00  0.00    -0.045 A 
ATOM     31  C   UNL     1     -12.429   6.094  21.399  0.00  0.00    +0.004 A 
ATOM     32  C   UNL     1     -13.879   7.997  21.742  0.00  0.00    +0.004 A 
ATOM     33  C   UNL     1     -11.598   6.872  20.592  0.00  0.00    +0.000 A 
ATOM     34  C   UNL     1     -13.047   8.775  20.935  0.00  0.00    +0.000 A 
ATOM     35  C   UNL     1     -11.909   8.212  20.360  0.00  0.00    +0.000 A 
ENDBRANCH  28  30
ENDBRANCH  27  28
ENDBRANCH   9  27
ENDBRANCH  25  26
BRANCH  21   4
ATOM      4  O   UNL     1     -19.019   1.415  26.863  0.00  0.00    -0.387 OA
ATOM     38  H   UNL     1     -19.058   2.230  26.335  0.00  0.00    +0.210 HD
ENDBRANCH  21   4
BRANCH  22   5
ATOM      5  O   UNL     1     -17.171  -0.374  24.262  0.00  0.00    -0.389 OA
ATOM     39  H   UNL     1     -17.279  -0.367  23.295  0.00  0.00    +0.210 HD
ENDBRANCH  22   5
TORSDOF 13
ENDMDL
MODEL 7
REMARK VINA RESULT:      -6.5     31.516     36.063
REMARK  Name = 7050120
REMARK  13 active torsions:
REMARK  status: ('A' for Active; 'I' for Inactive)
REMARK    1  A    between atoms: O_2  and  C_19
REMARK    2  A    between atoms: O_4  and  C_21
REMARK    3  A    between atoms: O_5  and  C_22
REMARK    4  A    between atoms: N_8  and  C_20
REMARK    5  A    between atoms: N_9  and  C_27
REMARK    6  A    between atoms: C_11  and  C_16
REMARK    7  A    between atoms: C_11  and  C_17
REMARK    8  A    between atoms: C_16  and  C_18
REMARK    9  A    between atoms: C_17  and  C_19
REMARK   10  A    between atoms: C_25  and  C_26
REMARK   11  A    between atoms: C_27  and  C_28
REMARK   12  A    between atoms: C_27  and  C_29
REMARK   13  A    between atoms: C_28  and  C_30
REMARK                            x       y       z     vdW  Elec       q    Type
REMARK                         _______ _______ _______ _____ _____    ______ ____
ROOT
ATOM     20  C   UNL     1      12.350   4.548   1.685  0.00  0.00    +0.127 C 
ATOM     21  C   UNL     1      12.518   6.044   1.356  0.00  0.00    +0.167 C 
ATOM     22  C   UNL     1      12.774   6.873   2.620  0.00  0.00    +0.149 C 
ATOM     23  C   UNL     1      11.475   4.298   2.885  0.00  0.00    +0.006 C 
ATOM     24  C   UNL     1      11.669   6.680   3.673  0.00  0.00    +0.074 C 
ATOM     25  C   UNL     1      11.172   5.265   3.764  0.00  0.00    +0.015 C 
ENDROOT
BRANCH  20   8
ATOM      1  O   UNL     1      13.817   3.546  -0.599  0.00  0.00    -0.276 OA
ATOM      8  N   UNL     1      11.821   3.812   0.563  0.00  0.00    -0.306 N 
ATOM     18  C   UNL     1      12.607   3.369  -0.494  0.00  0.00    +0.214 C 
ATOM     36  H   UNL     1      10.816   3.664   0.527  0.00  0.00    +0.149 HD
BRANCH  18  16
ATOM     16  C   UNL     1      11.783   2.622  -1.527  0.00  0.00    +0.103 C 
BRANCH  16  11
ATOM     11  C   UNL     1      11.638   3.399  -2.837  0.00  0.00    -0.011 C 
ATOM     12  C   UNL     1      12.846   3.183  -3.759  0.00  0.00    +0.008 C 
ATOM     13  C   UNL     1      10.490   2.850  -3.696  0.00  0.00    +0.008 C 
ATOM     14  C   UNL     1      12.333   3.493  -5.164  0.00  0.00    +0.001 C 
ATOM     15  C   UNL     1      10.820   3.281  -5.123  0.00  0.00    +0.001 C 
BRANCH  11  17
ATOM     17  C   UNL     1      11.436   4.890  -2.523  0.00  0.00    +0.127 C 
BRANCH  17  19
ATOM      3  O   UNL     1       9.424   4.872  -1.146  0.00  0.00    -0.251 OA
ATOM     19  C   UNL     1      10.007   5.186  -2.174  0.00  0.00    +0.305 C 
BRANCH  19   2
ATOM      2  O   UNL     1       9.427   5.873  -3.190  0.00  0.00    -0.481 OA
ATOM     37  H   UNL     1       8.476   5.652  -3.285  0.00  0.00    +0.295 HD
ENDBRANCH  19   2
ENDBRANCH  17  19
ENDBRANCH  11  17
ENDBRANCH  16  11
ENDBRANCH  18  16
ENDBRANCH  20   8
BRANCH  25  26
ATOM      6  O   UNL     1       9.774   3.801   4.957  0.00  0.00    -0.271 OA
ATOM      9  N   UNL     1      10.202   5.919   5.833  0.00  0.00    -0.300 N 
ATOM     26  C   UNL     1      10.314   4.905   4.897  0.00  0.00    +0.241 C 
ATOM     40  H   UNL     1      10.749   6.768   5.712  0.00  0.00    +0.150 HD
BRANCH   9  27
ATOM     27  C   UNL     1       9.409   5.800   7.034  0.00  0.00    +0.163 C 
BRANCH  27  29
ATOM      7  O   UNL     1      11.043   5.845   8.832  0.00  0.00    -0.274 OA
ATOM     10  N   UNL     1      10.160   3.820   8.202  0.00  0.00    -0.328 N 
ATOM     29  C   UNL     1      10.304   5.188   8.103  0.00  0.00    +0.231 C 
ATOM     41  H   UNL     1       9.527   3.294   7.608  0.00  0.00    +0.145 HD
ATOM     42  H   UNL     1      10.690   3.289   8.885  0.00  0.00    +0.145 HD
ENDBRANCH  27  29
BRANCH  27  28
ATOM     28  C   UNL     1       8.863   7.152   7.506  0.00  0.00    +0.067 C 
BRANCH  28  30
ATOM     30  C   UNL     1       8.718   8.148   6.380  0.00  0.00    -0.045 A 
ATOM     31  C   UNL     1       9.406   9.360   6.430  0.00  0.00    +0.004 A 
ATOM     32  C   UNL     1       7.897   7.855   5.292  0.00  0.00    +0.004 A 
ATOM     33  C   UNL     1       9.272  10.281   5.390  0.00  0.00    +0.000 A 
ATOM     34  C   UNL     1       7.763   8.776   4.252  0.00  0.00    +0.000 A 
ATOM     35  C   UNL     1       8.451   9.988   4.302  0.00  0.00    +0.000 A 
ENDBRANCH  28  30
ENDBRANCH  27  28
ENDBRANCH   9  27
ENDBRANCH  25  26
BRANCH  21   4
ATOM      4  O   UNL     1      11.334   6.531   0.720  0.00  0.00    -0.387 OA
ATOM     38  H   UNL     1      11.573   7.342   0.241  0.00  0.00    +0.210 HD
ENDBRANCH  21   4
BRANCH  22   5
ATOM      5  O   UNL     1      14.044   6.538   3.177  0.00  0.00    -0.389 OA
ATOM     39  H   UNL     1      14.725   6.990   2.650  0.00  0.00    +0.210 HD
ENDBRANCH  22   5
TORSDOF 13
ENDMDL
MODEL 8
REMARK VINA RESULT:      -6.4     34.048     38.963
REMARK  Name = 7050120
REMARK  13 active torsions:
REMARK  status: ('A' for Active; 'I' for Inactive)
REMARK    1  A    between atoms: O_2  and  C_19
REMARK    2  A    between atoms: O_4  and  C_21
REMARK    3  A    between atoms: O_5  and  C_22
REMARK    4  A    between atoms: N_8  and  C_20
REMARK    5  A    between atoms: N_9  and  C_27
REMARK    6  A    between atoms: C_11  and  C_16
REMARK    7  A    between atoms: C_11  and  C_17
REMARK    8  A    between atoms: C_16  and  C_18
REMARK    9  A    between atoms: C_17  and  C_19
REMARK   10  A    between atoms: C_25  and  C_26
REMARK   11  A    between atoms: C_27  and  C_28
REMARK   12  A    between atoms: C_27  and  C_29
REMARK   13  A    between atoms: C_28  and  C_30
REMARK                            x       y       z     vdW  Elec       q    Type
REMARK                         _______ _______ _______ _____ _____    ______ ____
ROOT
ATOM     20  C   UNL     1      16.269   7.740   5.262  0.00  0.00    +0.127 C 
ATOM     21  C   UNL     1      15.414   8.527   6.274  0.00  0.00    +0.167 C 
ATOM     22  C   UNL     1      14.046   7.869   6.487  0.00  0.00    +0.149 C 
ATOM     23  C   UNL     1      15.497   7.302   4.046  0.00  0.00    +0.006 C 
ATOM     24  C   UNL     1      13.278   7.690   5.166  0.00  0.00    +0.074 C 
ATOM     25  C   UNL     1      14.156   7.292   4.014  0.00  0.00    +0.015 C 
ENDROOT
BRANCH  20   8
ATOM      1  O   UNL     1      18.691   8.242   6.765  0.00  0.00    -0.276 OA
ATOM      8  N   UNL     1      17.420   8.497   4.834  0.00  0.00    -0.306 N 
ATOM     18  C   UNL     1      18.543   8.686   5.630  0.00  0.00    +0.214 C 
ATOM     36  H   UNL     1      17.373   8.956   3.929  0.00  0.00    +0.149 HD
BRANCH  18  16
ATOM     16  C   UNL     1      19.596   9.518   4.920  0.00  0.00    +0.103 C 
BRANCH  16  11
ATOM     11  C   UNL     1      20.685   8.662   4.272  0.00  0.00    -0.011 C 
ATOM     12  C   UNL     1      22.055   8.902   4.921  0.00  0.00    +0.008 C 
ATOM     13  C   UNL     1      20.468   7.168   4.548  0.00  0.00    +0.008 C 
ATOM     14  C   UNL     1      22.863   7.642   4.619  0.00  0.00    +0.001 C 
ATOM     15  C   UNL     1      21.844   6.529   4.379  0.00  0.00    +0.001 C 
BRANCH  11  17
ATOM     17  C   UNL     1      20.725   8.950   2.762  0.00  0.00    +0.127 C 
BRANCH  17  19
ATOM      3  O   UNL     1      18.530   8.124   2.096  0.00  0.00    -0.251 OA
ATOM     19  C   UNL     1      19.749   8.089   2.016  0.00  0.00    +0.305 C 
BRANCH  19   2
ATOM      2  O   UNL     1      20.427   7.234   1.209  0.00  0.00    -0.481 OA
ATOM     37  H   UNL     1      20.096   7.261   0.286  0.00  0.00    +0.295 HD
ENDBRANCH  19   2
ENDBRANCH  17  19
ENDBRANCH  11  17
ENDBRANCH  16  11
ENDBRANCH  18  16
ENDBRANCH  20   8
BRANCH  25  26
ATOM      6  O   UNL     1      13.313   7.622   1.846  0.00  0.00    -0.271 OA
ATOM      9  N   UNL     1      13.176   5.500   2.800  0.00  0.00    -0.300 N 
ATOM     26  C   UNL     1      13.511   6.843   2.777  0.00  0.00    +0.241 C 
ATOM     40  H   UNL     1      13.449   4.934   3.600  0.00  0.00    +0.150 HD
BRANCH   9  27
ATOM     27  C   UNL     1      12.529   4.829   1.696  0.00  0.00    +0.163 C 
BRANCH  27  29
ATOM      7  O   UNL     1      13.250   3.003   0.264  0.00  0.00    -0.274 OA
ATOM     10  N   UNL     1      14.567   3.579   2.056  0.00  0.00    -0.328 N 
ATOM     29  C   UNL     1      13.452   3.702   1.254  0.00  0.00    +0.231 C 
ATOM     41  H   UNL     1      14.732   4.180   2.857  0.00  0.00    +0.145 HD
ATOM     42  H   UNL     1      15.271   2.874   1.863  0.00  0.00    +0.145 HD
ENDBRANCH  27  29
BRANCH  27  28
ATOM     28  C   UNL     1      11.153   4.272   2.081  0.00  0.00    +0.067 C 
BRANCH  28  30
ATOM     30  C   UNL     1      10.373   5.208   2.973  0.00  0.00    -0.045 A 
ATOM     31  C   UNL     1       9.866   6.400   2.458  0.00  0.00    +0.004 A 
ATOM     32  C   UNL     1      10.160   4.878   4.312  0.00  0.00    +0.004 A 
ATOM     33  C   UNL     1       9.145   7.265   3.282  0.00  0.00    +0.000 A 
ATOM     34  C   UNL     1       9.439   5.744   5.136  0.00  0.00    +0.000 A 
ATOM     35  C   UNL     1       8.932   6.936   4.621  0.00  0.00    +0.000 A 
ENDBRANCH  28  30
ENDBRANCH  27  28
ENDBRANCH   9  27
ENDBRANCH  25  26
BRANCH  21   4
ATOM      4  O   UNL     1      15.214   9.860   5.798  0.00  0.00    -0.387 OA
ATOM     38  H   UNL     1      15.190  10.446   6.573  0.00  0.00    +0.210 HD
ENDBRANCH  21   4
BRANCH  22   5
ATOM      5  O   UNL     1      14.204   6.608   7.136  0.00  0.00    -0.389 OA
ATOM     39  H   UNL     1      14.998   6.662   7.694  0.00  0.00    +0.210 HD
ENDBRANCH  22   5
TORSDOF 13
ENDMDL
MODEL 9
REMARK VINA RESULT:      -6.3     27.863     30.851
REMARK  Name = 7050120
REMARK  13 active torsions:
REMARK  status: ('A' for Active; 'I' for Inactive)
REMARK    1  A    between atoms: O_2  and  C_19
REMARK    2  A    between atoms: O_4  and  C_21
REMARK    3  A    between atoms: O_5  and  C_22
REMARK    4  A    between atoms: N_8  and  C_20
REMARK    5  A    between atoms: N_9  and  C_27
REMARK    6  A    between atoms: C_11  and  C_16
REMARK    7  A    between atoms: C_11  and  C_17
REMARK    8  A    between atoms: C_16  and  C_18
REMARK    9  A    between atoms: C_17  and  C_19
REMARK   10  A    between atoms: C_25  and  C_26
REMARK   11  A    between atoms: C_27  and  C_28
REMARK   12  A    between atoms: C_27  and  C_29
REMARK   13  A    between atoms: C_28  and  C_30
REMARK                            x       y       z     vdW  Elec       q    Type
REMARK                         _______ _______ _______ _____ _____    ______ ____
ROOT
ATOM     20  C   UNL     1      13.228  13.405  18.992  0.00  0.00    +0.127 C 
ATOM     21  C   UNL     1      14.153  14.411  18.281  0.00  0.00    +0.167 C 
ATOM     22  C   UNL     1      14.233  14.134  16.775  0.00  0.00    +0.149 C 
ATOM     23  C   UNL     1      13.439  11.983  18.543  0.00  0.00    +0.006 C 
ATOM     24  C   UNL     1      14.681  12.694  16.473  0.00  0.00    +0.074 C 
ATOM     25  C   UNL     1      14.100  11.679  17.416  0.00  0.00    +0.015 C 
ENDROOT
BRANCH  20   8
ATOM      1  O   UNL     1      11.115  13.526  20.965  0.00  0.00    -0.276 OA
ATOM      8  N   UNL     1      13.375  13.467  20.426  0.00  0.00    -0.306 N 
ATOM     18  C   UNL     1      12.297  13.523  21.299  0.00  0.00    +0.214 C 
ATOM     36  H   UNL     1      14.318  13.527  20.800  0.00  0.00    +0.149 HD
BRANCH  18  16
ATOM     16  C   UNL     1      12.751  13.578  22.746  0.00  0.00    +0.103 C 
BRANCH  16  11
ATOM     11  C   UNL     1      13.214  12.216  23.269  0.00  0.00    -0.011 C 
ATOM     12  C   UNL     1      12.665  11.066  22.414  0.00  0.00    +0.008 C 
ATOM     13  C   UNL     1      14.729  12.032  23.101  0.00  0.00    +0.008 C 
ATOM     14  C   UNL     1      13.622   9.901  22.656  0.00  0.00    +0.001 C 
ATOM     15  C   UNL     1      14.947  10.521  23.098  0.00  0.00    +0.001 C 
BRANCH  11  17
ATOM     17  C   UNL     1      12.793  12.069  24.740  0.00  0.00    +0.127 C 
BRANCH  17  19
ATOM      3  O   UNL     1      10.372  12.255  24.529  0.00  0.00    -0.251 OA
ATOM     19  C   UNL     1      11.365  11.624  24.858  0.00  0.00    +0.305 C 
BRANCH  19   2
ATOM      2  O   UNL     1      11.324  10.379  25.397  0.00  0.00    -0.481 OA
ATOM     37  H   UNL     1      10.751  10.345  26.193  0.00  0.00    +0.295 HD
ENDBRANCH  19   2
ENDBRANCH  17  19
ENDBRANCH  11  17
ENDBRANCH  16  11
ENDBRANCH  18  16
ENDBRANCH  20   8
BRANCH  25  26
ATOM      6  O   UNL     1      14.145   9.874  15.912  0.00  0.00    -0.271 OA
ATOM      9  N   UNL     1      14.485   9.462  18.181  0.00  0.00    -0.300 N 
ATOM     26  C   UNL     1      14.242  10.260  17.077  0.00  0.00    +0.241 C 
ATOM     40  H   UNL     1      14.612   9.900  19.091  0.00  0.00    +0.150 HD
BRANCH   9  27
ATOM     27  C   UNL     1      14.658   8.031  18.099  0.00  0.00    +0.163 C 
BRANCH  27  29
ATOM      7  O   UNL     1      15.581   8.321  20.328  0.00  0.00    -0.274 OA
ATOM     10  N   UNL     1      15.833   6.286  19.291  0.00  0.00    -0.328 N 
ATOM     29  C   UNL     1      15.409   7.597  19.350  0.00  0.00    +0.231 C 
ATOM     41  H   UNL     1      15.662   5.693  18.486  0.00  0.00    +0.145 HD
ATOM     42  H   UNL     1      16.335   5.866  20.067  0.00  0.00    +0.145 HD
ENDBRANCH  27  29
BRANCH  27  28
ATOM     28  C   UNL     1      13.321   7.289  17.995  0.00  0.00    +0.067 C 
BRANCH  28  30
ATOM     30  C   UNL     1      12.439   7.504  19.202  0.00  0.00    -0.045 A 
ATOM     31  C   UNL     1      11.626   8.634  19.277  0.00  0.00    +0.004 A 
ATOM     32  C   UNL     1      12.438   6.571  20.240  0.00  0.00    +0.004 A 
ATOM     33  C   UNL     1      10.811   8.833  20.393  0.00  0.00    +0.000 A 
ATOM     34  C   UNL     1      11.623   6.771  21.355  0.00  0.00    +0.000 A 
ATOM     35  C   UNL     1      10.810   7.901  21.430  0.00  0.00    +0.000 A 
ENDBRANCH  28  30
ENDBRANCH  27  28
ENDBRANCH   9  27
ENDBRANCH  25  26
BRANCH  21   4
ATOM      4  O   UNL     1      15.469  14.326  18.834  0.00  0.00    -0.387 OA
ATOM     38  H   UNL     1      16.067  14.808  18.238  0.00  0.00    +0.210 HD
ENDBRANCH  21   4
BRANCH  22   5
ATOM      5  O   UNL     1      12.972  14.393  16.161  0.00  0.00    -0.389 OA
ATOM     39  H   UNL     1      12.886  13.794  15.399  0.00  0.00    +0.210 HD
ENDBRANCH  22   5
TORSDOF 13
ENDMDL
MODEL 10
REMARK VINA RESULT:      -6.3     32.902     37.140
REMARK  Name = 7050120
REMARK  13 active torsions:
REMARK  status: ('A' for Active; 'I' for Inactive)
REMARK    1  A    between atoms: O_2  and  C_19
REMARK    2  A    between atoms: O_4  and  C_21
REMARK    3  A    between atoms: O_5  and  C_22
REMARK    4  A    between atoms: N_8  and  C_20
REMARK    5  A    between atoms: N_9  and  C_27
REMARK    6  A    between atoms: C_11  and  C_16
REMARK    7  A    between atoms: C_11  and  C_17
REMARK    8  A    between atoms: C_16  and  C_18
REMARK    9  A    between atoms: C_17  and  C_19
REMARK   10  A    between atoms: C_25  and  C_26
REMARK   11  A    between atoms: C_27  and  C_28
REMARK   12  A    between atoms: C_27  and  C_29
REMARK   13  A    between atoms: C_28  and  C_30
REMARK                            x       y       z     vdW  Elec       q    Type
REMARK                         _______ _______ _______ _____ _____    ______ ____
ROOT
ATOM     20  C   UNL     1      14.537   5.518   1.742  0.00  0.00    +0.127 C 
ATOM     21  C   UNL     1      15.092   4.176   1.228  0.00  0.00    +0.167 C 
ATOM     22  C   UNL     1      14.045   3.411   0.410  0.00  0.00    +0.149 C 
ATOM     23  C   UNL     1      13.143   5.411   2.299  0.00  0.00    +0.006 C 
ATOM     24  C   UNL     1      12.745   3.182   1.201  0.00  0.00    +0.074 C 
ATOM     25  C   UNL     1      12.354   4.354   2.055  0.00  0.00    +0.015 C 
ENDROOT
BRANCH  20   8
ATOM      1  O   UNL     1      15.075   8.330   2.168  0.00  0.00    -0.276 OA
ATOM      8  N   UNL     1      15.396   6.101   2.745  0.00  0.00    -0.306 N 
ATOM     18  C   UNL     1      15.594   7.469   2.873  0.00  0.00    +0.214 C 
ATOM     36  H   UNL     1      15.918   5.467   3.343  0.00  0.00    +0.149 HD
BRANCH  18  16
ATOM     16  C   UNL     1      16.543   7.791   4.013  0.00  0.00    +0.103 C 
BRANCH  16  11
ATOM     11  C   UNL     1      15.820   8.349   5.241  0.00  0.00    -0.011 C 
ATOM     12  C   UNL     1      14.906   9.526   4.873  0.00  0.00    +0.008 C 
ATOM     13  C   UNL     1      14.814   7.340   5.810  0.00  0.00    +0.008 C 
ATOM     14  C   UNL     1      13.866   9.584   5.990  0.00  0.00    +0.001 C 
ATOM     15  C   UNL     1      13.807   8.181   6.592  0.00  0.00    +0.001 C 
BRANCH  11  17
ATOM     17  C   UNL     1      16.859   8.758   6.298  0.00  0.00    +0.127 C 
BRANCH  17  19
ATOM      3  O   UNL     1      18.321  10.248   5.039  0.00  0.00    -0.251 OA
ATOM     19  C   UNL     1      17.519  10.058   5.941  0.00  0.00    +0.305 C 
BRANCH  19   2
ATOM      2  O   UNL     1      17.088  11.029   6.785  0.00  0.00    -0.481 OA
ATOM     37  H   UNL     1      17.643  11.836   6.727  0.00  0.00    +0.295 HD
ENDBRANCH  19   2
ENDBRANCH  17  19
ENDBRANCH  11  17
ENDBRANCH  16  11
ENDBRANCH  18  16
ENDBRANCH  20   8
BRANCH  25  26
ATOM      6  O   UNL     1      10.047   3.906   2.036  0.00  0.00    -0.271 OA
ATOM      9  N   UNL     1      10.986   4.913   3.916  0.00  0.00    -0.300 N 
ATOM     26  C   UNL     1      11.013   4.360   2.648  0.00  0.00    +0.241 C 
ATOM     40  H   UNL     1      11.860   5.197   4.353  0.00  0.00    +0.150 HD
BRANCH   9  27
ATOM     27  C   UNL     1       9.778   5.031   4.700  0.00  0.00    +0.163 C 
BRANCH  27  29
ATOM      7  O   UNL     1      10.491   5.640   6.942  0.00  0.00    -0.274 OA
ATOM     10  N   UNL     1      10.038   3.433   6.496  0.00  0.00    -0.328 N 
ATOM     29  C   UNL     1      10.157   4.763   6.150  0.00  0.00    +0.231 C 
ATOM     41  H   UNL     1       9.737   2.722   5.836  0.00  0.00    +0.145 HD
ATOM     42  H   UNL     1      10.247   3.119   7.438  0.00  0.00    +0.145 HD
ENDBRANCH  27  29
BRANCH  27  28
ATOM     28  C   UNL     1       9.131   6.415   4.566  0.00  0.00    +0.067 C 
BRANCH  28  30
ATOM     30  C   UNL     1       9.870   7.314   3.605  0.00  0.00    -0.045 A 
ATOM     31  C   UNL     1      11.017   7.989   4.023  0.00  0.00    +0.004 A 
ATOM     32  C   UNL     1       9.406   7.469   2.298  0.00  0.00    +0.004 A 
ATOM     33  C   UNL     1      11.700   8.820   3.135  0.00  0.00    +0.000 A 
ATOM     34  C   UNL     1      10.090   8.300   1.410  0.00  0.00    +0.000 A 
ATOM     35  C   UNL     1      11.236   8.975   1.829  0.00  0.00    +0.000 A 
ENDBRANCH  28  30
ENDBRANCH  27  28
ENDBRANCH   9  27
ENDBRANCH  25  26
BRANCH  21   4
ATOM      4  O   UNL     1      15.490   3.366   2.336  0.00  0.00    -0.387 OA
ATOM     38  H   UNL     1      16.461   3.328   2.337  0.00  0.00    +0.210 HD
ENDBRANCH  21   4
BRANCH  22   5
ATOM      5  O   UNL     1      13.764   4.108  -0.802  0.00  0.00    -0.389 OA
ATOM     39  H   UNL     1      14.578   4.115  -1.334  0.00  0.00    +0.210 HD
ENDBRANCH  22   5
TORSDOF 13
ENDMDL
