REMARK  Name = 75536382
REMARK  9 active torsions:
REMARK  status: ('A' for Active; 'I' for Inactive)
REMARK    1  A    between atoms: O_2  and  C_8
REMARK    2  A    between atoms: O_4  and  C_22
REMARK    3  A    between atoms: N_5  and  C_12
REMARK    4  A    between atoms: N_5  and  C_15
REMARK    5  A    between atoms: N_5  and  C_16
REMARK    6  A    between atoms: C_7  and  C_12
REMARK    7  A    between atoms: C_9  and  C_13
REMARK    8  A    between atoms: C_13  and  C_14
REMARK    9  A    between atoms: C_18  and  C_19
REMARK                            x       y       z     vdW  Elec       q    Type
REMARK                         _______ _______ _______ _____ _____    ______ ____
ROOT
ATOM     13  C   UNL     1       1.566  -2.151   0.621  0.00  0.00    +0.090 C 
ENDROOT
BRANCH  13   9
ATOM      1  O   UNL     1       2.495   0.037   0.789  0.00  0.00    -0.369 OA
ATOM      7  C   UNL     1       3.389   1.078   0.373  0.00  0.00    +0.161 C 
ATOM      8  C   UNL     1       4.846   0.597   0.376  0.00  0.00    +0.145 C 
ATOM      9  C   UNL     1       2.582  -1.176   0.038  0.00  0.00    +0.125 C 
ATOM     10  C   UNL     1       5.021  -0.729  -0.360  0.00  0.00    +0.036 C 
ATOM     11  C   UNL     1       3.994  -1.755   0.111  0.00  0.00    +0.034 C 
BRANCH   8   2
ATOM      2  O   UNL     1       5.264   0.403   1.729  0.00  0.00    -0.389 OA
ATOM     25  H   UNL     1       6.202   0.145   1.713  0.00  0.00    +0.210 HD
ENDBRANCH   8   2
BRANCH   7  12
ATOM     12  C   UNL     1       2.959   1.669  -0.968  0.00  0.00    +0.118 C 
BRANCH  12   5
ATOM      5  N   UNL     1       1.581   2.132  -0.913  0.00  0.00    -0.306 NA
ATOM     15  C   UNL     1       1.019   2.252  -2.261  0.00  0.00    +0.104 C 
ATOM     16  C   UNL     1       1.492   3.416  -0.213  0.00  0.00    +0.104 C 
ENDBRANCH  12   5
ENDBRANCH   7  12
ENDBRANCH  13   9
BRANCH  13  14
ATOM      3  O   UNL     1      -1.602  -1.900  -1.081  0.00  0.00    -0.354 OA
ATOM      6  N   UNL     1      -0.309  -2.395  -0.955  0.00  0.00    -0.083 NA
ATOM     14  C   UNL     1       0.167  -1.837   0.162  0.00  0.00    +0.087 A 
ATOM     17  C   UNL     1      -0.771  -0.990   0.777  0.00  0.00    +0.076 A 
ATOM     18  C   UNL     1      -1.865  -1.064  -0.044  0.00  0.00    +0.168 A 
BRANCH  18  19
ATOM     19  C   UNL     1      -3.171  -0.473  -0.037  0.00  0.00    +0.023 A 
ATOM     20  C   UNL     1      -3.539   0.396   0.990  0.00  0.00    +0.057 A 
ATOM     21  C   UNL     1      -4.076  -0.770  -1.057  0.00  0.00    +0.012 A 
ATOM     22  C   UNL     1      -4.810   0.969   0.997  0.00  0.00    +0.118 A 
ATOM     23  C   UNL     1      -5.348  -0.197  -1.050  0.00  0.00    +0.004 A 
ATOM     24  C   UNL     1      -5.715   0.673  -0.022  0.00  0.00    +0.045 A 
BRANCH  22   4
ATOM      4  O   UNL     1      -5.169   1.816   2.000  0.00  0.00    -0.507 OA
ATOM     26  H   UNL     1      -6.081   2.118   1.847  0.00  0.00    +0.292 HD
ENDBRANCH  22   4
ENDBRANCH  18  19
ENDBRANCH  13  14
TORSDOF 7
