MODEL 1
REMARK VINA RESULT:      -7.4      0.000      0.000
REMARK  Name = 45784389
REMARK  11 active torsions:
REMARK  status: ('A' for Active; 'I' for Inactive)
REMARK    1  A    between atoms: O_1  and  C_11
REMARK    2  A    between atoms: N_5  and  C_15
REMARK    3  A    between atoms: N_6  and  C_25
REMARK    4  A    between atoms: N_7  and  C_26
REMARK    5  A    between atoms: C_8  and  C_18
REMARK    6  A    between atoms: C_10  and  C_20
REMARK    7  A    between atoms: C_14  and  C_19
REMARK    8  A    between atoms: C_19  and  C_21
REMARK    9  A    between atoms: C_19  and  C_22
REMARK   10  A    between atoms: C_23  and  C_24
REMARK   11  A    between atoms: C_25  and  C_26
REMARK                            x       y       z     vdW  Elec       q    Type
REMARK                         _______ _______ _______ _____ _____    ______ ____
ROOT
ATOM      8  C   UNL     1     -16.408   6.591  22.433  0.00  0.00    -0.027 C 
ATOM      9  C   UNL     1     -14.969   6.085  22.784  0.00  0.00    +0.028 C 
ATOM     10  C   UNL     1     -13.982   6.329  21.586  0.00  0.00    +0.012 C 
ATOM     11  C   UNL     1     -15.002   4.630  23.335  0.00  0.00    +0.122 C 
ATOM     12  C   UNL     1     -17.324   6.439  23.669  0.00  0.00    +0.007 C 
ATOM     13  C   UNL     1     -16.340   8.094  22.079  0.00  0.00    +0.009 C 
ATOM     14  C   UNL     1     -15.999   4.460  24.506  0.00  0.00    +0.029 C 
ATOM     15  C   UNL     1     -13.980   7.833  21.190  0.00  0.00    +0.076 C 
ATOM     16  C   UNL     1     -17.391   5.009  24.188  0.00  0.00    +0.007 C 
ATOM     17  C   UNL     1     -15.378   8.398  20.939  0.00  0.00    +0.023 C 
ATOM     18  C   UNL     1     -17.038   5.816  21.247  0.00  0.00    +0.011 C 
ATOM     20  C   UNL     1     -12.540   5.880  21.874  0.00  0.00    +0.010 C 
ENDROOT
BRANCH  15   5
ATOM      3  O   UNL     1     -12.007   9.894  20.864  0.00  0.00    -0.270 OA
ATOM      5  N   UNL     1     -13.170   8.077  20.015  0.00  0.00    -0.308 N 
ATOM     23  C   UNL     1     -12.241   9.101  19.955  0.00  0.00    +0.244 C 
ATOM     36  H   UNL     1     -13.391   7.534  19.187  0.00  0.00    +0.149 HD
BRANCH  23  24
ATOM     24  C   UNL     1     -11.509   9.236  18.669  0.00  0.00    +0.037 A 
ATOM     27  C   UNL     1     -10.789  10.399  18.394  0.00  0.00    +0.013 A 
ATOM     28  C   UNL     1     -11.540   8.197  17.738  0.00  0.00    +0.013 A 
ATOM     29  C   UNL     1     -10.102  10.523  17.187  0.00  0.00    +0.001 A 
ATOM     30  C   UNL     1     -10.853   8.322  16.532  0.00  0.00    +0.001 A 
ATOM     33  C   UNL     1     -10.133   9.485  16.256  0.00  0.00    +0.000 A 
ENDBRANCH  23  24
ENDBRANCH  15   5
BRANCH  11   1
ATOM      1  O   UNL     1     -13.714   4.283  23.843  0.00  0.00    -0.391 OA
ATOM     37  H   UNL     1     -13.463   4.945  24.509  0.00  0.00    +0.210 HD
ENDBRANCH  11   1
BRANCH  14  19
ATOM     19  C   UNL     1     -16.114   2.997  24.947  0.00  0.00    +0.077 C 
ATOM     21  C   UNL     1     -17.065   2.242  24.025  0.00  0.00    +0.017 C 
BRANCH  19  22
ATOM      2  O   UNL     1     -17.454   2.157  26.781  0.00  0.00    -0.276 OA
ATOM      6  N   UNL     1     -15.897   3.820  27.217  0.00  0.00    -0.314 N 
ATOM     22  C   UNL     1     -16.575   2.926  26.400  0.00  0.00    +0.216 C 
ATOM     38  H   UNL     1     -15.197   4.435  26.813  0.00  0.00    +0.149 HD
BRANCH   6  25
ATOM     25  C   UNL     1     -16.160   3.938  28.632  0.00  0.00    +0.119 C 
BRANCH  25  26
ATOM     26  C   UNL     1     -14.954   3.509  29.454  0.00  0.00    +0.103 C 
BRANCH  26   7
ATOM      4  O   UNL     1     -14.717  -0.447  30.836  0.00  0.00    -0.377 OA
ATOM      7  N   UNL     1     -14.848   2.052  29.478  0.00  0.00    -0.297 NA
ATOM     31  C   UNL     1     -13.636   1.629  30.195  0.00  0.00    +0.112 C 
ATOM     32  C   UNL     1     -16.036   1.452  30.102  0.00  0.00    +0.112 C 
ATOM     34  C   UNL     1     -13.554   0.105  30.217  0.00  0.00    +0.175 C 
ATOM     35  C   UNL     1     -15.897  -0.067  30.128  0.00  0.00    +0.175 C 
ENDBRANCH  26   7
ENDBRANCH  25  26
ENDBRANCH   6  25
ENDBRANCH  19  22
ENDBRANCH  14  19
TORSDOF 8
ENDMDL
MODEL 2
REMARK VINA RESULT:      -7.4      1.379      1.802
REMARK  Name = 45784389
REMARK  11 active torsions:
REMARK  status: ('A' for Active; 'I' for Inactive)
REMARK    1  A    between atoms: O_1  and  C_11
REMARK    2  A    between atoms: N_5  and  C_15
REMARK    3  A    between atoms: N_6  and  C_25
REMARK    4  A    between atoms: N_7  and  C_26
REMARK    5  A    between atoms: C_8  and  C_18
REMARK    6  A    between atoms: C_10  and  C_20
REMARK    7  A    between atoms: C_14  and  C_19
REMARK    8  A    between atoms: C_19  and  C_21
REMARK    9  A    between atoms: C_19  and  C_22
REMARK   10  A    between atoms: C_23  and  C_24
REMARK   11  A    between atoms: C_25  and  C_26
REMARK                            x       y       z     vdW  Elec       q    Type
REMARK                         _______ _______ _______ _____ _____    ______ ____
ROOT
ATOM      8  C   UNL     1     -17.462   5.390  22.186  0.00  0.00    -0.027 C 
ATOM      9  C   UNL     1     -16.117   4.962  22.864  0.00  0.00    +0.028 C 
ATOM     10  C   UNL     1     -14.889   5.339  21.959  0.00  0.00    +0.012 C 
ATOM     11  C   UNL     1     -16.170   3.479  23.333  0.00  0.00    +0.122 C 
ATOM     12  C   UNL     1     -18.638   5.107  23.149  0.00  0.00    +0.007 C 
ATOM     13  C   UNL     1     -17.427   6.912  21.918  0.00  0.00    +0.009 C 
ATOM     14  C   UNL     1     -17.406   3.177  24.213  0.00  0.00    +0.029 C 
ATOM     15  C   UNL     1     -14.909   6.859  21.634  0.00  0.00    +0.076 C 
ATOM     16  C   UNL     1     -18.716   3.649  23.580  0.00  0.00    +0.007 C 
ATOM     17  C   UNL     1     -16.242   7.343  21.066  0.00  0.00    +0.023 C 
ATOM     18  C   UNL     1     -17.719   4.643  20.852  0.00  0.00    +0.011 C 
ATOM     20  C   UNL     1     -13.531   4.971  22.579  0.00  0.00    +0.010 C 
ENDROOT
BRANCH  15   5
ATOM      3  O   UNL     1     -13.000   8.981  21.951  0.00  0.00    -0.270 OA
ATOM      5  N   UNL     1     -13.857   7.223  20.707  0.00  0.00    -0.308 N 
ATOM     23  C   UNL     1     -12.983   8.267  20.952  0.00  0.00    +0.244 C 
ATOM     36  H   UNL     1     -13.856   6.751  19.809  0.00  0.00    +0.149 HD
BRANCH  23  24
ATOM     24  C   UNL     1     -11.976   8.530  19.890  0.00  0.00    +0.037 A 
ATOM     27  C   UNL     1     -11.805   7.618  18.849  0.00  0.00    +0.013 A 
ATOM     28  C   UNL     1     -11.204   9.691  19.936  0.00  0.00    +0.013 A 
ATOM     29  C   UNL     1     -10.861   7.866  17.854  0.00  0.00    +0.001 A 
ATOM     30  C   UNL     1     -10.260   9.939  18.940  0.00  0.00    +0.001 A 
ATOM     33  C   UNL     1     -10.088   9.026  17.899  0.00  0.00    +0.000 A 
ENDBRANCH  23  24
ENDBRANCH  15   5
BRANCH  11   1
ATOM      1  O   UNL     1     -15.021   3.190  24.132  0.00  0.00    -0.391 OA
ATOM     37  H   UNL     1     -15.210   3.470  25.044  0.00  0.00    +0.210 HD
ENDBRANCH  11   1
BRANCH  14  19
ATOM     19  C   UNL     1     -17.510   1.687  24.555  0.00  0.00    +0.077 C 
ATOM     21  C   UNL     1     -18.749   1.082  23.903  0.00  0.00    +0.017 C 
BRANCH  19  22
ATOM      2  O   UNL     1     -18.075   0.542  26.614  0.00  0.00    -0.276 OA
ATOM      6  N   UNL     1     -16.882   2.527  26.740  0.00  0.00    -0.314 N 
ATOM     22  C   UNL     1     -17.533   1.502  26.069  0.00  0.00    +0.216 C 
ATOM     38  H   UNL     1     -16.477   3.294  26.211  0.00  0.00    +0.149 HD
BRANCH   6  25
ATOM     25  C   UNL     1     -16.773   2.573  28.180  0.00  0.00    +0.119 C 
BRANCH  25  26
ATOM     26  C   UNL     1     -15.385   3.024  28.612  0.00  0.00    +0.103 C 
BRANCH  26   7
ATOM      4  O   UNL     1     -14.910   0.731  32.096  0.00  0.00    -0.377 OA
ATOM      7  N   UNL     1     -14.835   2.097  29.599  0.00  0.00    -0.297 NA
ATOM     31  C   UNL     1     -14.552   2.791  30.864  0.00  0.00    +0.112 C 
ATOM     32  C   UNL     1     -15.756   0.977  29.834  0.00  0.00    +0.112 C 
ATOM     34  C   UNL     1     -13.990   1.802  31.882  0.00  0.00    +0.175 C 
ATOM     35  C   UNL     1     -15.166   0.032  30.877  0.00  0.00    +0.175 C 
ENDBRANCH  26   7
ENDBRANCH  25  26
ENDBRANCH   6  25
ENDBRANCH  19  22
ENDBRANCH  14  19
TORSDOF 8
ENDMDL
MODEL 3
REMARK VINA RESULT:      -6.9     18.755     21.950
REMARK  Name = 45784389
REMARK  11 active torsions:
REMARK  status: ('A' for Active; 'I' for Inactive)
REMARK    1  A    between atoms: O_1  and  C_11
REMARK    2  A    between atoms: N_5  and  C_15
REMARK    3  A    between atoms: N_6  and  C_25
REMARK    4  A    between atoms: N_7  and  C_26
REMARK    5  A    between atoms: C_8  and  C_18
REMARK    6  A    between atoms: C_10  and  C_20
REMARK    7  A    between atoms: C_14  and  C_19
REMARK    8  A    between atoms: C_19  and  C_21
REMARK    9  A    between atoms: C_19  and  C_22
REMARK   10  A    between atoms: C_23  and  C_24
REMARK   11  A    between atoms: C_25  and  C_26
REMARK                            x       y       z     vdW  Elec       q    Type
REMARK                         _______ _______ _______ _____ _____    ______ ____
ROOT
ATOM      8  C   UNL     1      -4.786 -11.014  16.914  0.00  0.00    -0.027 C 
ATOM      9  C   UNL     1      -5.557 -10.386  15.705  0.00  0.00    +0.028 C 
ATOM     10  C   UNL     1      -7.110 -10.477  15.924  0.00  0.00    +0.012 C 
ATOM     11  C   UNL     1      -5.040 -10.950  14.351  0.00  0.00    +0.122 C 
ATOM     12  C   UNL     1      -3.266 -10.808  16.719  0.00  0.00    +0.007 C 
ATOM     13  C   UNL     1      -5.199 -10.281  18.211  0.00  0.00    +0.009 C 
ATOM     14  C   UNL     1      -3.504 -10.835  14.206  0.00  0.00    +0.029 C 
ATOM     15  C   UNL     1      -7.504  -9.803  17.269  0.00  0.00    +0.076 C 
ATOM     16  C   UNL     1      -2.748 -11.394  15.413  0.00  0.00    +0.007 C 
ATOM     17  C   UNL     1      -6.700 -10.313  18.464  0.00  0.00    +0.023 C 
ATOM     18  C   UNL     1      -5.066 -12.531  17.073  0.00  0.00    +0.011 C 
ATOM     20  C   UNL     1      -7.931  -9.850  14.785  0.00  0.00    +0.010 C 
ENDROOT
BRANCH  15   5
ATOM      3  O   UNL     1      -9.481  -7.725  17.423  0.00  0.00    -0.270 OA
ATOM      5  N   UNL     1      -8.913  -9.969  17.560  0.00  0.00    -0.308 N 
ATOM     23  C   UNL     1      -9.789  -8.899  17.612  0.00  0.00    +0.244 C 
ATOM     36  H   UNL     1      -9.215 -10.896  17.840  0.00  0.00    +0.149 HD
BRANCH  23  24
ATOM     24  C   UNL     1     -11.197  -9.233  17.949  0.00  0.00    +0.037 A 
ATOM     27  C   UNL     1     -12.229  -8.860  17.088  0.00  0.00    +0.013 A 
ATOM     28  C   UNL     1     -11.486  -9.922  19.128  0.00  0.00    +0.013 A 
ATOM     29  C   UNL     1     -13.550  -9.175  17.405  0.00  0.00    +0.001 A 
ATOM     30  C   UNL     1     -12.807 -10.236  19.445  0.00  0.00    +0.001 A 
ATOM     33  C   UNL     1     -13.839  -9.863  18.583  0.00  0.00    +0.000 A 
ENDBRANCH  23  24
ENDBRANCH  15   5
BRANCH  11   1
ATOM      1  O   UNL     1      -5.608 -10.204  13.274  0.00  0.00    -0.391 OA
ATOM     37  H   UNL     1      -6.457 -10.614  13.037  0.00  0.00    +0.210 HD
ENDBRANCH  11   1
BRANCH  14  19
ATOM     19  C   UNL     1      -3.000 -11.514  12.927  0.00  0.00    +0.077 C 
ATOM     21  C   UNL     1      -1.852 -12.463  13.253  0.00  0.00    +0.017 C 
BRANCH  19  22
ATOM      2  O   UNL     1      -1.457  -9.952  11.905  0.00  0.00    -0.276 OA
ATOM      6  N   UNL     1      -3.591 -10.145  11.016  0.00  0.00    -0.314 N 
ATOM     22  C   UNL     1      -2.577 -10.458  11.911  0.00  0.00    +0.216 C 
ATOM     38  H   UNL     1      -4.495 -10.599  11.105  0.00  0.00    +0.149 HD
BRANCH   6  25
ATOM     25  C   UNL     1      -3.429  -9.172   9.961  0.00  0.00    +0.119 C 
BRANCH  25  26
ATOM     26  C   UNL     1      -4.720  -8.404   9.718  0.00  0.00    +0.103 C 
BRANCH  26   7
ATOM      4  O   UNL     1      -8.475 -10.000   8.731  0.00  0.00    -0.377 OA
ATOM      7  N   UNL     1      -5.844  -9.329   9.588  0.00  0.00    -0.297 NA
ATOM     31  C   UNL     1      -7.033  -8.804  10.274  0.00  0.00    +0.112 C 
ATOM     32  C   UNL     1      -6.150  -9.583   8.173  0.00  0.00    +0.112 C 
ATOM     34  C   UNL     1      -8.195  -9.781  10.114  0.00  0.00    +0.175 C 
ATOM     35  C   UNL     1      -7.334 -10.540   8.063  0.00  0.00    +0.175 C 
ENDBRANCH  26   7
ENDBRANCH  25  26
ENDBRANCH   6  25
ENDBRANCH  19  22
ENDBRANCH  14  19
TORSDOF 8
ENDMDL
MODEL 4
REMARK VINA RESULT:      -6.7     27.822     32.323
REMARK  Name = 45784389
REMARK  11 active torsions:
REMARK  status: ('A' for Active; 'I' for Inactive)
REMARK    1  A    between atoms: O_1  and  C_11
REMARK    2  A    between atoms: N_5  and  C_15
REMARK    3  A    between atoms: N_6  and  C_25
REMARK    4  A    between atoms: N_7  and  C_26
REMARK    5  A    between atoms: C_8  and  C_18
REMARK    6  A    between atoms: C_10  and  C_20
REMARK    7  A    between atoms: C_14  and  C_19
REMARK    8  A    between atoms: C_19  and  C_21
REMARK    9  A    between atoms: C_19  and  C_22
REMARK   10  A    between atoms: C_23  and  C_24
REMARK   11  A    between atoms: C_25  and  C_26
REMARK                            x       y       z     vdW  Elec       q    Type
REMARK                         _______ _______ _______ _____ _____    ______ ____
ROOT
ATOM      8  C   UNL     1       9.495   6.068   6.040  0.00  0.00    -0.027 C 
ATOM      9  C   UNL     1      10.408   7.258   5.591  0.00  0.00    +0.028 C 
ATOM     10  C   UNL     1       9.860   8.623   6.142  0.00  0.00    +0.012 C 
ATOM     11  C   UNL     1      10.676   7.216   4.059  0.00  0.00    +0.122 C 
ATOM     12  C   UNL     1      10.122   4.733   5.577  0.00  0.00    +0.007 C 
ATOM     13  C   UNL     1       9.422   6.045   7.584  0.00  0.00    +0.009 C 
ATOM     14  C   UNL     1      11.206   5.842   3.585  0.00  0.00    +0.029 C 
ATOM     15  C   UNL     1       9.719   8.560   7.689  0.00  0.00    +0.076 C 
ATOM     16  C   UNL     1      10.350   4.673   4.072  0.00  0.00    +0.007 C 
ATOM     17  C   UNL     1       8.921   7.353   8.180  0.00  0.00    +0.023 C 
ATOM     18  C   UNL     1       8.059   6.171   5.463  0.00  0.00    +0.011 C 
ATOM     20  C   UNL     1      10.727   9.835   5.762  0.00  0.00    +0.010 C 
ENDROOT
BRANCH  15   5
ATOM      3  O   UNL     1      11.025  10.629   9.194  0.00  0.00    -0.270 OA
ATOM      5  N   UNL     1       9.108   9.761   8.222  0.00  0.00    -0.308 N 
ATOM     23  C   UNL     1       9.826  10.702   8.938  0.00  0.00    +0.244 C 
ATOM     36  H   UNL     1       8.099   9.830   8.148  0.00  0.00    +0.149 HD
BRANCH  23  24
ATOM     24  C   UNL     1       9.047  11.865   9.439  0.00  0.00    +0.037 A 
ATOM     27  C   UNL     1       8.697  12.898   8.569  0.00  0.00    +0.013 A 
ATOM     28  C   UNL     1       8.666  11.922  10.779  0.00  0.00    +0.013 A 
ATOM     29  C   UNL     1       7.966  13.988   9.040  0.00  0.00    +0.001 A 
ATOM     30  C   UNL     1       7.935  13.011  11.250  0.00  0.00    +0.001 A 
ATOM     33  C   UNL     1       7.585  14.045  10.381  0.00  0.00    +0.000 A 
ENDBRANCH  23  24
ENDBRANCH  15   5
BRANCH  11   1
ATOM      1  O   UNL     1      11.677   8.178   3.723  0.00  0.00    -0.391 OA
ATOM     37  H   UNL     1      11.879   8.084   2.776  0.00  0.00    +0.210 HD
ENDBRANCH  11   1
BRANCH  14  19
ATOM     19  C   UNL     1      11.339   5.779   2.059  0.00  0.00    +0.077 C 
ATOM     21  C   UNL     1      10.543   4.600   1.511  0.00  0.00    +0.017 C 
BRANCH  19  22
ATOM      2  O   UNL     1      13.213   4.964   0.760  0.00  0.00    -0.276 OA
ATOM      6  N   UNL     1      13.620   6.499   2.450  0.00  0.00    -0.314 N 
ATOM     22  C   UNL     1      12.810   5.687   1.669  0.00  0.00    +0.216 C 
ATOM     38  H   UNL     1      13.205   7.051   3.195  0.00  0.00    +0.149 HD
BRANCH   6  25
ATOM     25  C   UNL     1      15.051   6.581   2.270  0.00  0.00    +0.119 C 
BRANCH  25  26
ATOM     26  C   UNL     1      15.745   6.990   3.560  0.00  0.00    +0.103 C 
BRANCH  26   7
ATOM      4  O   UNL     1      14.339   9.571   6.557  0.00  0.00    -0.377 OA
ATOM      7  N   UNL     1      14.858   7.820   4.373  0.00  0.00    -0.297 NA
ATOM     31  C   UNL     1      14.808   7.328   5.757  0.00  0.00    +0.112 C 
ATOM     32  C   UNL     1      15.293   9.224   4.353  0.00  0.00    +0.112 C 
ATOM     34  C   UNL     1      13.886   8.217   6.588  0.00  0.00    +0.175 C 
ATOM     35  C   UNL     1      14.361  10.067   5.218  0.00  0.00    +0.175 C 
ENDBRANCH  26   7
ENDBRANCH  25  26
ENDBRANCH   6  25
ENDBRANCH  19  22
ENDBRANCH  14  19
TORSDOF 8
ENDMDL
MODEL 5
REMARK VINA RESULT:      -6.7     19.832     21.583
REMARK  Name = 45784389
REMARK  11 active torsions:
REMARK  status: ('A' for Active; 'I' for Inactive)
REMARK    1  A    between atoms: O_1  and  C_11
REMARK    2  A    between atoms: N_5  and  C_15
REMARK    3  A    between atoms: N_6  and  C_25
REMARK    4  A    between atoms: N_7  and  C_26
REMARK    5  A    between atoms: C_8  and  C_18
REMARK    6  A    between atoms: C_10  and  C_20
REMARK    7  A    between atoms: C_14  and  C_19
REMARK    8  A    between atoms: C_19  and  C_21
REMARK    9  A    between atoms: C_19  and  C_22
REMARK   10  A    between atoms: C_23  and  C_24
REMARK   11  A    between atoms: C_25  and  C_26
REMARK                            x       y       z     vdW  Elec       q    Type
REMARK                         _______ _______ _______ _____ _____    ______ ____
ROOT
ATOM      8  C   UNL     1      -3.241 -11.571  11.803  0.00  0.00    -0.027 C 
ATOM      9  C   UNL     1      -4.569 -10.987  12.392  0.00  0.00    +0.028 C 
ATOM     10  C   UNL     1      -5.277 -10.047  11.352  0.00  0.00    +0.012 C 
ATOM     11  C   UNL     1      -4.337 -10.368  13.801  0.00  0.00    +0.122 C 
ATOM     12  C   UNL     1      -2.630 -12.576  12.807  0.00  0.00    +0.007 C 
ATOM     13  C   UNL     1      -3.563 -12.341  10.502  0.00  0.00    +0.009 C 
ATOM     14  C   UNL     1      -3.630 -11.345  14.771  0.00  0.00    +0.029 C 
ATOM     15  C   UNL     1      -5.527 -10.810  10.020  0.00  0.00    +0.076 C 
ATOM     16  C   UNL     1      -2.364 -11.964  14.176  0.00  0.00    +0.007 C 
ATOM     17  C   UNL     1      -4.275 -11.486   9.462  0.00  0.00    +0.023 C 
ATOM     18  C   UNL     1      -2.192 -10.471  11.499  0.00  0.00    +0.011 C 
ATOM     20  C   UNL     1      -6.606  -9.460  11.855  0.00  0.00    +0.010 C 
ENDROOT
BRANCH  15   5
ATOM      3  O   UNL     1      -7.872 -11.290   8.434  0.00  0.00    -0.270 OA
ATOM      5  N   UNL     1      -6.073  -9.942   8.998  0.00  0.00    -0.308 N 
ATOM     23  C   UNL     1      -7.214 -10.264   8.285  0.00  0.00    +0.244 C 
ATOM     36  H   UNL     1      -5.517  -9.133   8.741  0.00  0.00    +0.149 HD
BRANCH  23  24
ATOM     24  C   UNL     1      -7.631  -9.280   7.253  0.00  0.00    +0.037 A 
ATOM     27  C   UNL     1      -8.703  -8.422   7.497  0.00  0.00    +0.013 A 
ATOM     28  C   UNL     1      -6.948  -9.214   6.038  0.00  0.00    +0.013 A 
ATOM     29  C   UNL     1      -9.092  -7.498   6.528  0.00  0.00    +0.001 A 
ATOM     30  C   UNL     1      -7.337  -8.290   5.069  0.00  0.00    +0.001 A 
ATOM     33  C   UNL     1      -8.409  -7.433   5.313  0.00  0.00    +0.000 A 
ENDBRANCH  23  24
ENDBRANCH  15   5
BRANCH  11   1
ATOM      1  O   UNL     1      -5.595 -10.045  14.393  0.00  0.00    -0.391 OA
ATOM     37  H   UNL     1      -5.436  -9.782  15.316  0.00  0.00    +0.210 HD
ENDBRANCH  11   1
BRANCH  14  19
ATOM     19  C   UNL     1      -3.293 -10.675  16.107  0.00  0.00    +0.077 C 
ATOM     21  C   UNL     1      -1.788 -10.709  16.347  0.00  0.00    +0.017 C 
BRANCH  19  22
ATOM      2  O   UNL     1      -3.540 -11.607  18.329  0.00  0.00    -0.276 OA
ATOM      6  N   UNL     1      -5.360 -11.669  16.892  0.00  0.00    -0.314 N 
ATOM     22  C   UNL     1      -4.052 -11.362  17.239  0.00  0.00    +0.216 C 
ATOM     38  H   UNL     1      -5.696 -11.447  15.959  0.00  0.00    +0.149 HD
BRANCH   6  25
ATOM     25  C   UNL     1      -6.275 -12.324  17.798  0.00  0.00    +0.119 C 
BRANCH  25  26
ATOM     26  C   UNL     1      -6.969 -11.316  18.702  0.00  0.00    +0.103 C 
BRANCH  26   7
ATOM      4  O   UNL     1     -10.107  -8.707  17.716  0.00  0.00    -0.377 OA
ATOM      7  N   UNL     1      -8.104 -10.710  18.009  0.00  0.00    -0.297 NA
ATOM     31  C   UNL     1      -9.288 -10.673  18.880  0.00  0.00    +0.112 C 
ATOM     32  C   UNL     1      -7.773  -9.353  17.551  0.00  0.00    +0.112 C 
ATOM     34  C   UNL     1     -10.455 -10.026  18.139  0.00  0.00    +0.175 C 
ATOM     35  C   UNL     1      -8.976  -8.737  16.844  0.00  0.00    +0.175 C 
ENDBRANCH  26   7
ENDBRANCH  25  26
ENDBRANCH   6  25
ENDBRANCH  19  22
ENDBRANCH  14  19
TORSDOF 8
ENDMDL
MODEL 6
REMARK VINA RESULT:      -6.6     19.940     21.580
REMARK  Name = 45784389
REMARK  11 active torsions:
REMARK  status: ('A' for Active; 'I' for Inactive)
REMARK    1  A    between atoms: O_1  and  C_11
REMARK    2  A    between atoms: N_5  and  C_15
REMARK    3  A    between atoms: N_6  and  C_25
REMARK    4  A    between atoms: N_7  and  C_26
REMARK    5  A    between atoms: C_8  and  C_18
REMARK    6  A    between atoms: C_10  and  C_20
REMARK    7  A    between atoms: C_14  and  C_19
REMARK    8  A    between atoms: C_19  and  C_21
REMARK    9  A    between atoms: C_19  and  C_22
REMARK   10  A    between atoms: C_23  and  C_24
REMARK   11  A    between atoms: C_25  and  C_26
REMARK                            x       y       z     vdW  Elec       q    Type
REMARK                         _______ _______ _______ _____ _____    ______ ____
ROOT
ATOM      8  C   UNL     1      -3.285 -11.687  12.018  0.00  0.00    -0.027 C 
ATOM      9  C   UNL     1      -4.594 -11.045  12.586  0.00  0.00    +0.028 C 
ATOM     10  C   UNL     1      -5.263 -10.102  11.522  0.00  0.00    +0.012 C 
ATOM     11  C   UNL     1      -4.349 -10.406  13.983  0.00  0.00    +0.122 C 
ATOM     12  C   UNL     1      -2.715 -12.692  13.045  0.00  0.00    +0.007 C 
ATOM     13  C   UNL     1      -3.626 -12.472  10.730  0.00  0.00    +0.009 C 
ATOM     14  C   UNL     1      -3.682 -11.386  14.977  0.00  0.00    +0.029 C 
ATOM     15  C   UNL     1      -5.532 -10.884  10.205  0.00  0.00    +0.076 C 
ATOM     16  C   UNL     1      -2.436 -12.061  14.403  0.00  0.00    +0.007 C 
ATOM     17  C   UNL     1      -4.302 -11.615   9.669  0.00  0.00    +0.023 C 
ATOM     18  C   UNL     1      -2.196 -10.630  11.697  0.00  0.00    +0.011 C 
ATOM     20  C   UNL     1      -6.573  -9.459  12.005  0.00  0.00    +0.010 C 
ENDROOT
BRANCH  15   5
ATOM      3  O   UNL     1      -7.725 -11.437   8.435  0.00  0.00    -0.270 OA
ATOM      5  N   UNL     1      -6.042 -10.018   9.162  0.00  0.00    -0.308 N 
ATOM     23  C   UNL     1      -7.109 -10.378   8.357  0.00  0.00    +0.244 C 
ATOM     36  H   UNL     1      -5.510  -9.178   8.965  0.00  0.00    +0.149 HD
BRANCH  23  24
ATOM     24  C   UNL     1      -7.494  -9.390   7.316  0.00  0.00    +0.037 A 
ATOM     27  C   UNL     1      -8.520  -8.478   7.564  0.00  0.00    +0.013 A 
ATOM     28  C   UNL     1      -6.828  -9.375   6.091  0.00  0.00    +0.013 A 
ATOM     29  C   UNL     1      -8.881  -7.551   6.586  0.00  0.00    +0.001 A 
ATOM     30  C   UNL     1      -7.189  -8.448   5.113  0.00  0.00    +0.001 A 
ATOM     33  C   UNL     1      -8.215  -7.536   5.361  0.00  0.00    +0.000 A 
ENDBRANCH  23  24
ENDBRANCH  15   5
BRANCH  11   1
ATOM      1  O   UNL     1      -5.598 -10.026  14.561  0.00  0.00    -0.391 OA
ATOM     37  H   UNL     1      -6.020  -9.379  13.971  0.00  0.00    +0.210 HD
ENDBRANCH  11   1
BRANCH  14  19
ATOM     19  C   UNL     1      -3.329 -10.701  16.302  0.00  0.00    +0.077 C 
ATOM     21  C   UNL     1      -1.818 -10.692  16.503  0.00  0.00    +0.017 C 
BRANCH  19  22
ATOM      2  O   UNL     1      -3.443 -11.834  18.440  0.00  0.00    -0.276 OA
ATOM      6  N   UNL     1      -5.410 -11.494  17.259  0.00  0.00    -0.314 N 
ATOM     22  C   UNL     1      -4.040 -11.403  17.456  0.00  0.00    +0.216 C 
ATOM     38  H   UNL     1      -5.819 -11.127  16.405  0.00  0.00    +0.149 HD
BRANCH   6  25
ATOM     25  C   UNL     1      -6.296 -12.118  18.214  0.00  0.00    +0.119 C 
BRANCH  25  26
ATOM     26  C   UNL     1      -6.662 -11.157  19.335  0.00  0.00    +0.103 C 
BRANCH  26   7
ATOM      4  O   UNL     1     -10.634 -12.498  19.546  0.00  0.00    -0.377 OA
ATOM      7  N   UNL     1      -8.004 -11.448  19.836  0.00  0.00    -0.297 NA
ATOM     31  C   UNL     1      -9.022 -10.759  19.029  0.00  0.00    +0.112 C 
ATOM     32  C   UNL     1      -8.258 -12.895  19.839  0.00  0.00    +0.112 C 
ATOM     34  C   UNL     1     -10.414 -11.088  19.564  0.00  0.00    +0.175 C 
ATOM     35  C   UNL     1      -9.668 -13.173  20.353  0.00  0.00    +0.175 C 
ENDBRANCH  26   7
ENDBRANCH  25  26
ENDBRANCH   6  25
ENDBRANCH  19  22
ENDBRANCH  14  19
TORSDOF 8
ENDMDL
MODEL 7
REMARK VINA RESULT:      -6.5     27.919     33.158
REMARK  Name = 45784389
REMARK  11 active torsions:
REMARK  status: ('A' for Active; 'I' for Inactive)
REMARK    1  A    between atoms: O_1  and  C_11
REMARK    2  A    between atoms: N_5  and  C_15
REMARK    3  A    between atoms: N_6  and  C_25
REMARK    4  A    between atoms: N_7  and  C_26
REMARK    5  A    between atoms: C_8  and  C_18
REMARK    6  A    between atoms: C_10  and  C_20
REMARK    7  A    between atoms: C_14  and  C_19
REMARK    8  A    between atoms: C_19  and  C_21
REMARK    9  A    between atoms: C_19  and  C_22
REMARK   10  A    between atoms: C_23  and  C_24
REMARK   11  A    between atoms: C_25  and  C_26
REMARK                            x       y       z     vdW  Elec       q    Type
REMARK                         _______ _______ _______ _____ _____    ______ ____
ROOT
ATOM      8  C   UNL     1       9.497   6.027   5.937  0.00  0.00    -0.027 C 
ATOM      9  C   UNL     1      10.404   7.205   5.446  0.00  0.00    +0.028 C 
ATOM     10  C   UNL     1       9.894   8.578   6.016  0.00  0.00    +0.012 C 
ATOM     11  C   UNL     1      10.607   7.157   3.905  0.00  0.00    +0.122 C 
ATOM     12  C   UNL     1      10.090   4.684   5.452  0.00  0.00    +0.007 C 
ATOM     13  C   UNL     1       9.489   6.008   7.483  0.00  0.00    +0.009 C 
ATOM     14  C   UNL     1      11.102   5.776   3.413  0.00  0.00    +0.029 C 
ATOM     15  C   UNL     1       9.818   8.521   7.568  0.00  0.00    +0.076 C 
ATOM     16  C   UNL     1      10.254   4.617   3.940  0.00  0.00    +0.007 C 
ATOM     17  C   UNL     1       9.028   7.324   8.095  0.00  0.00    +0.023 C 
ATOM     18  C   UNL     1       8.040   6.144   5.420  0.00  0.00    +0.011 C 
ATOM     20  C   UNL     1      10.758   9.779   5.596  0.00  0.00    +0.010 C 
ENDROOT
BRANCH  15   5
ATOM      3  O   UNL     1      11.192  10.542   9.077  0.00  0.00    -0.270 OA
ATOM      5  N   UNL     1       9.242   9.729   8.121  0.00  0.00    -0.308 N 
ATOM     23  C   UNL     1       9.992  10.646   8.837  0.00  0.00    +0.244 C 
ATOM     36  H   UNL     1       8.234   9.824   8.062  0.00  0.00    +0.149 HD
BRANCH  23  24
ATOM     24  C   UNL     1       9.248  11.821   9.362  0.00  0.00    +0.037 A 
ATOM     27  C   UNL     1       9.090  12.958   8.569  0.00  0.00    +0.013 A 
ATOM     28  C   UNL     1       8.707  11.785  10.647  0.00  0.00    +0.013 A 
ATOM     29  C   UNL     1       8.391  14.059   9.061  0.00  0.00    +0.001 A 
ATOM     30  C   UNL     1       8.008  12.887  11.139  0.00  0.00    +0.001 A 
ATOM     33  C   UNL     1       7.850  14.024  10.347  0.00  0.00    +0.000 A 
ENDBRANCH  23  24
ENDBRANCH  15   5
BRANCH  11   1
ATOM      1  O   UNL     1      11.603   8.106   3.524  0.00  0.00    -0.391 OA
ATOM     37  H   UNL     1      11.765   8.008   2.570  0.00  0.00    +0.210 HD
ENDBRANCH  11   1
BRANCH  14  19
ATOM     19  C   UNL     1      11.169   5.707   1.883  0.00  0.00    +0.077 C 
ATOM     21  C   UNL     1      10.293   4.570   1.369  0.00  0.00    +0.017 C 
BRANCH  19  22
ATOM      2  O   UNL     1      13.522   6.277   1.819  0.00  0.00    -0.276 OA
ATOM      6  N   UNL     1      12.783   4.478   0.557  0.00  0.00    -0.314 N 
ATOM     22  C   UNL     1      12.618   5.539   1.434  0.00  0.00    +0.216 C 
ATOM     38  H   UNL     1      11.974   3.930   0.276  0.00  0.00    +0.149 HD
BRANCH   6  25
ATOM     25  C   UNL     1      14.064   4.122  -0.007  0.00  0.00    +0.119 C 
BRANCH  25  26
ATOM     26  C   UNL     1      13.963   3.903  -1.509  0.00  0.00    +0.103 C 
BRANCH  26   7
ATOM      4  O   UNL     1      10.518   3.466  -3.867  0.00  0.00    -0.377 OA
ATOM      7  N   UNL     1      12.562   3.807  -1.915  0.00  0.00    -0.297 NA
ATOM     31  C   UNL     1      12.221   4.875  -2.866  0.00  0.00    +0.112 C 
ATOM     32  C   UNL     1      12.280   2.494  -2.511  0.00  0.00    +0.112 C 
ATOM     34  C   UNL     1      10.758   4.747  -3.284  0.00  0.00    +0.175 C 
ATOM     35  C   UNL     1      10.817   2.423  -2.939  0.00  0.00    +0.175 C 
ENDBRANCH  26   7
ENDBRANCH  25  26
ENDBRANCH   6  25
ENDBRANCH  19  22
ENDBRANCH  14  19
TORSDOF 8
ENDMDL
MODEL 8
REMARK VINA RESULT:      -6.4     27.882     32.188
REMARK  Name = 45784389
REMARK  11 active torsions:
REMARK  status: ('A' for Active; 'I' for Inactive)
REMARK    1  A    between atoms: O_1  and  C_11
REMARK    2  A    between atoms: N_5  and  C_15
REMARK    3  A    between atoms: N_6  and  C_25
REMARK    4  A    between atoms: N_7  and  C_26
REMARK    5  A    between atoms: C_8  and  C_18
REMARK    6  A    between atoms: C_10  and  C_20
REMARK    7  A    between atoms: C_14  and  C_19
REMARK    8  A    between atoms: C_19  and  C_21
REMARK    9  A    between atoms: C_19  and  C_22
REMARK   10  A    between atoms: C_23  and  C_24
REMARK   11  A    between atoms: C_25  and  C_26
REMARK                            x       y       z     vdW  Elec       q    Type
REMARK                         _______ _______ _______ _____ _____    ______ ____
ROOT
ATOM      8  C   UNL     1      18.123  11.327  21.780  0.00  0.00    -0.027 C 
ATOM      9  C   UNL     1      17.162  10.097  21.665  0.00  0.00    +0.028 C 
ATOM     10  C   UNL     1      17.958   8.800  21.277  0.00  0.00    +0.012 C 
ATOM     11  C   UNL     1      15.935  10.422  20.764  0.00  0.00    +0.122 C 
ATOM     12  C   UNL     1      17.327  12.559  22.271  0.00  0.00    +0.007 C 
ATOM     13  C   UNL     1      19.211  11.019  22.833  0.00  0.00    +0.009 C 
ATOM     14  C   UNL     1      15.204  11.714  21.198  0.00  0.00    +0.029 C 
ATOM     15  C   UNL     1      19.098   8.542  22.301  0.00  0.00    +0.076 C 
ATOM     16  C   UNL     1      16.149  12.905  21.370  0.00  0.00    +0.007 C 
ATOM     17  C   UNL     1      20.001   9.754  22.524  0.00  0.00    +0.023 C 
ATOM     18  C   UNL     1      18.802  11.679  20.431  0.00  0.00    +0.011 C 
ATOM     20  C   UNL     1      17.077   7.543  21.174  0.00  0.00    +0.010 C 
ENDROOT
BRANCH  15   5
ATOM      3  O   UNL     1      20.212   6.546  24.040  0.00  0.00    -0.270 OA
ATOM      5  N   UNL     1      19.926   7.419  21.912  0.00  0.00    -0.308 N 
ATOM     23  C   UNL     1      20.417   6.507  22.829  0.00  0.00    +0.244 C 
ATOM     36  H   UNL     1      20.231   7.391  20.945  0.00  0.00    +0.149 HD
BRANCH  23  24
ATOM     24  C   UNL     1      21.273   5.427  22.273  0.00  0.00    +0.037 A 
ATOM     27  C   UNL     1      22.567   5.242  22.760  0.00  0.00    +0.013 A 
ATOM     28  C   UNL     1      20.780   4.599  21.265  0.00  0.00    +0.013 A 
ATOM     29  C   UNL     1      23.369   4.228  22.238  0.00  0.00    +0.001 A 
ATOM     30  C   UNL     1      21.582   3.584  20.743  0.00  0.00    +0.001 A 
ATOM     33  C   UNL     1      22.877   3.399  21.230  0.00  0.00    +0.000 A 
ENDBRANCH  23  24
ENDBRANCH  15   5
BRANCH  11   1
ATOM      1  O   UNL     1      14.981   9.363  20.856  0.00  0.00    -0.391 OA
ATOM     37  H   UNL     1      15.227   8.801  21.610  0.00  0.00    +0.210 HD
ENDBRANCH  11   1
BRANCH  14  19
ATOM     19  C   UNL     1      14.082  12.088  20.223  0.00  0.00    +0.077 C 
ATOM     21  C   UNL     1      14.306  13.494  19.677  0.00  0.00    +0.017 C 
BRANCH  19  22
ATOM      2  O   UNL     1      11.792  12.730  20.680  0.00  0.00    -0.276 OA
ATOM      6  N   UNL     1      12.689  10.927  21.831  0.00  0.00    -0.314 N 
ATOM     22  C   UNL     1      12.729  11.971  20.918  0.00  0.00    +0.216 C 
ATOM     38  H   UNL     1      13.518  10.360  21.979  0.00  0.00    +0.149 HD
BRANCH   6  25
ATOM     25  C   UNL     1      11.515  10.619  22.614  0.00  0.00    +0.119 C 
BRANCH  25  26
ATOM     26  C   UNL     1      10.960   9.248  22.256  0.00  0.00    +0.103 C 
BRANCH  26   7
ATOM      4  O   UNL     1      12.233   6.656  19.209  0.00  0.00    -0.377 OA
ATOM      7  N   UNL     1      11.771   8.629  21.209  0.00  0.00    -0.297 NA
ATOM     31  C   UNL     1      12.105   7.241  21.561  0.00  0.00    +0.112 C 
ATOM     32  C   UNL     1      11.072   8.666  19.917  0.00  0.00    +0.112 C 
ATOM     34  C   UNL     1      12.941   6.613  20.448  0.00  0.00    +0.175 C 
ATOM     35  C   UNL     1      11.932   8.004  18.844  0.00  0.00    +0.175 C 
ENDBRANCH  26   7
ENDBRANCH  25  26
ENDBRANCH   6  25
ENDBRANCH  19  22
ENDBRANCH  14  19
TORSDOF 8
ENDMDL
MODEL 9
REMARK VINA RESULT:      -6.3     16.394     17.933
REMARK  Name = 45784389
REMARK  11 active torsions:
REMARK  status: ('A' for Active; 'I' for Inactive)
REMARK    1  A    between atoms: O_1  and  C_11
REMARK    2  A    between atoms: N_5  and  C_15
REMARK    3  A    between atoms: N_6  and  C_25
REMARK    4  A    between atoms: N_7  and  C_26
REMARK    5  A    between atoms: C_8  and  C_18
REMARK    6  A    between atoms: C_10  and  C_20
REMARK    7  A    between atoms: C_14  and  C_19
REMARK    8  A    between atoms: C_19  and  C_21
REMARK    9  A    between atoms: C_19  and  C_22
REMARK   10  A    between atoms: C_23  and  C_24
REMARK   11  A    between atoms: C_25  and  C_26
REMARK                            x       y       z     vdW  Elec       q    Type
REMARK                         _______ _______ _______ _____ _____    ______ ____
ROOT
ATOM      8  C   UNL     1     -12.331  -4.307  10.665  0.00  0.00    -0.027 C 
ATOM      9  C   UNL     1     -11.823  -5.762  10.937  0.00  0.00    +0.028 C 
ATOM     10  C   UNL     1     -11.472  -6.493   9.591  0.00  0.00    +0.012 C 
ATOM     11  C   UNL     1     -12.793  -6.531  11.880  0.00  0.00    +0.122 C 
ATOM     12  C   UNL     1     -12.560  -3.581  12.011  0.00  0.00    +0.007 C 
ATOM     13  C   UNL     1     -11.242  -3.530   9.890  0.00  0.00    +0.009 C 
ATOM     14  C   UNL     1     -13.101  -5.752  13.181  0.00  0.00    +0.029 C 
ATOM     15  C   UNL     1     -10.433  -5.664   8.785  0.00  0.00    +0.076 C 
ATOM     16  C   UNL     1     -13.539  -4.310  12.922  0.00  0.00    +0.007 C 
ATOM     17  C   UNL     1     -10.840  -4.204   8.586  0.00  0.00    +0.023 C 
ATOM     18  C   UNL     1     -13.652  -4.280   9.854  0.00  0.00    +0.011 C 
ATOM     20  C   UNL     1     -10.938  -7.921   9.786  0.00  0.00    +0.010 C 
ENDROOT
BRANCH  15   5
ATOM      3  O   UNL     1      -7.931  -6.720   7.849  0.00  0.00    -0.270 OA
ATOM      5  N   UNL     1     -10.172  -6.248   7.486  0.00  0.00    -0.308 N 
ATOM     23  C   UNL     1      -8.925  -6.731   7.128  0.00  0.00    +0.244 C 
ATOM     36  H   UNL     1     -10.915  -6.185   6.799  0.00  0.00    +0.149 HD
BRANCH  23  24
ATOM     24  C   UNL     1      -8.814  -7.276   5.750  0.00  0.00    +0.037 A 
ATOM     27  C   UNL     1      -7.676  -7.986   5.369  0.00  0.00    +0.013 A 
ATOM     28  C   UNL     1      -9.850  -7.076   4.837  0.00  0.00    +0.013 A 
ATOM     29  C   UNL     1      -7.573  -8.497   4.076  0.00  0.00    +0.001 A 
ATOM     30  C   UNL     1      -9.747  -7.587   3.544  0.00  0.00    +0.001 A 
ATOM     33  C   UNL     1      -8.609  -8.298   3.163  0.00  0.00    +0.000 A 
ENDBRANCH  23  24
ENDBRANCH  15   5
BRANCH  11   1
ATOM      1  O   UNL     1     -12.195  -7.766  12.276  0.00  0.00    -0.391 OA
ATOM     37  H   UNL     1     -12.754  -8.164  12.965  0.00  0.00    +0.210 HD
ENDBRANCH  11   1
BRANCH  14  19
ATOM     19  C   UNL     1     -14.156  -6.463  14.034  0.00  0.00    +0.077 C 
ATOM     21  C   UNL     1     -15.426  -5.621  14.109  0.00  0.00    +0.017 C 
BRANCH  19  22
ATOM      2  O   UNL     1     -14.299  -6.773  16.432  0.00  0.00    -0.276 OA
ATOM      6  N   UNL     1     -12.226  -6.970  15.409  0.00  0.00    -0.314 N 
ATOM     22  C   UNL     1     -13.596  -6.748  15.424  0.00  0.00    +0.216 C 
ATOM     38  H   UNL     1     -11.719  -6.911  14.531  0.00  0.00    +0.149 HD
BRANCH   6  25
ATOM     25  C   UNL     1     -11.469  -7.259  16.605  0.00  0.00    +0.119 C 
BRANCH  25  26
ATOM     26  C   UNL     1     -10.022  -7.591  16.273  0.00  0.00    +0.103 C 
BRANCH  26   7
ATOM      4  O   UNL     1      -8.614 -10.613  18.823  0.00  0.00    -0.377 OA
ATOM      7  N   UNL     1      -9.668  -8.906  16.803  0.00  0.00    -0.297 NA
ATOM     31  C   UNL     1      -8.223  -8.992  17.060  0.00  0.00    +0.112 C 
ATOM     32  C   UNL     1     -10.416  -9.192  18.035  0.00  0.00    +0.112 C 
ATOM     34  C   UNL     1      -7.879 -10.369  17.623  0.00  0.00    +0.175 C 
ATOM     35  C   UNL     1     -10.019 -10.562  18.576  0.00  0.00    +0.175 C 
ENDBRANCH  26   7
ENDBRANCH  25  26
ENDBRANCH   6  25
ENDBRANCH  19  22
ENDBRANCH  14  19
TORSDOF 8
ENDMDL
MODEL 10
REMARK VINA RESULT:      -6.3      6.501     10.193
REMARK  Name = 45784389
REMARK  11 active torsions:
REMARK  status: ('A' for Active; 'I' for Inactive)
REMARK    1  A    between atoms: O_1  and  C_11
REMARK    2  A    between atoms: N_5  and  C_15
REMARK    3  A    between atoms: N_6  and  C_25
REMARK    4  A    between atoms: N_7  and  C_26
REMARK    5  A    between atoms: C_8  and  C_18
REMARK    6  A    between atoms: C_10  and  C_20
REMARK    7  A    between atoms: C_14  and  C_19
REMARK    8  A    between atoms: C_19  and  C_21
REMARK    9  A    between atoms: C_19  and  C_22
REMARK   10  A    between atoms: C_23  and  C_24
REMARK   11  A    between atoms: C_25  and  C_26
REMARK                            x       y       z     vdW  Elec       q    Type
REMARK                         _______ _______ _______ _____ _____    ______ ____
ROOT
ATOM      8  C   UNL     1     -14.860   1.749  31.179  0.00  0.00    -0.027 C 
ATOM      9  C   UNL     1     -16.164   2.595  30.994  0.00  0.00    +0.028 C 
ATOM     10  C   UNL     1     -16.496   2.785  29.470  0.00  0.00    +0.012 C 
ATOM     11  C   UNL     1     -16.111   3.904  31.833  0.00  0.00    +0.122 C 
ATOM     12  C   UNL     1     -14.624   1.487  32.684  0.00  0.00    +0.007 C 
ATOM     13  C   UNL     1     -15.045   0.380  30.485  0.00  0.00    +0.009 C 
ATOM     14  C   UNL     1     -15.772   3.644  33.320  0.00  0.00    +0.029 C 
ATOM     15  C   UNL     1     -16.605   1.403  28.767  0.00  0.00    +0.076 C 
ATOM     16  C   UNL     1     -14.532   2.767  33.504  0.00  0.00    +0.007 C 
ATOM     17  C   UNL     1     -15.395   0.500  29.008  0.00  0.00    +0.023 C 
ATOM     18  C   UNL     1     -13.608   2.452  30.594  0.00  0.00    +0.011 C 
ATOM     20  C   UNL     1     -17.784   3.585  29.215  0.00  0.00    +0.010 C 
ENDROOT
BRANCH  15   5
ATOM      3  O   UNL     1     -18.439  -0.081  27.130  0.00  0.00    -0.270 OA
ATOM      5  N   UNL     1     -16.796   1.541  27.338  0.00  0.00    -0.308 N 
ATOM     23  C   UNL     1     -17.710   0.775  26.636  0.00  0.00    +0.244 C 
ATOM     36  H   UNL     1     -16.147   2.146  26.847  0.00  0.00    +0.149 HD
BRANCH  23  24
ATOM     24  C   UNL     1     -17.767   1.018  25.171  0.00  0.00    +0.037 A 
ATOM     27  C   UNL     1     -18.255   0.029  24.317  0.00  0.00    +0.013 A 
ATOM     28  C   UNL     1     -17.334   2.238  24.651  0.00  0.00    +0.013 A 
ATOM     29  C   UNL     1     -18.309   0.259  22.943  0.00  0.00    +0.001 A 
ATOM     30  C   UNL     1     -17.388   2.468  23.277  0.00  0.00    +0.001 A 
ATOM     33  C   UNL     1     -17.875   1.479  22.423  0.00  0.00    +0.000 A 
ENDBRANCH  23  24
ENDBRANCH  15   5
BRANCH  11   1
ATOM      1  O   UNL     1     -17.391   4.537  31.812  0.00  0.00    -0.391 OA
ATOM     37  H   UNL     1     -17.711   4.540  30.894  0.00  0.00    +0.210 HD
ENDBRANCH  11   1
BRANCH  14  19
ATOM     19  C   UNL     1     -15.595   4.951  34.101  0.00  0.00    +0.077 C 
ATOM     21  C   UNL     1     -16.938   5.419  34.652  0.00  0.00    +0.017 C 
BRANCH  19  22
ATOM      2  O   UNL     1     -13.811   5.923  32.783  0.00  0.00    -0.276 OA
ATOM      6  N   UNL     1     -15.826   7.061  32.932  0.00  0.00    -0.314 N 
ATOM     22  C   UNL     1     -14.962   6.010  33.205  0.00  0.00    +0.216 C 
ATOM     38  H   UNL     1     -16.757   7.063  33.339  0.00  0.00    +0.149 HD
BRANCH   6  25
ATOM     25  C   UNL     1     -15.452   8.186  32.106  0.00  0.00    +0.119 C 
BRANCH  25  26
ATOM     26  C   UNL     1     -14.993   9.363  32.954  0.00  0.00    +0.103 C 
BRANCH  26   7
ATOM      4  O   UNL     1     -10.908   8.965  32.072  0.00  0.00    -0.377 OA
ATOM      7  N   UNL     1     -13.599   9.687  32.659  0.00  0.00    -0.297 NA
ATOM     31  C   UNL     1     -12.707   9.140  33.692  0.00  0.00    +0.112 C 
ATOM     32  C   UNL     1     -13.211   9.176  31.337  0.00  0.00    +0.112 C 
ATOM     34  C   UNL     1     -11.257   9.481  33.356  0.00  0.00    +0.175 C 
ATOM     35  C   UNL     1     -11.750   9.515  31.058  0.00  0.00    +0.175 C 
ENDBRANCH  26   7
ENDBRANCH  25  26
ENDBRANCH   6  25
ENDBRANCH  19  22
ENDBRANCH  14  19
TORSDOF 8
ENDMDL
