REMARK  Name = 75537115
REMARK  5 active torsions:
REMARK  status: ('A' for Active; 'I' for Inactive)
REMARK    1  A    between atoms: O_2  and  C_18
REMARK    2  A    between atoms: O_2  and  C_20
REMARK    3  A    between atoms: N_4  and  C_13
REMARK    4  A    between atoms: N_5  and  C_14
REMARK    5  A    between atoms: C_13  and  C_15
REMARK                            x       y       z     vdW  Elec       q    Type
REMARK                         _______ _______ _______ _____ _____    ______ ____
ROOT
ATOM      1  O   UNL     1       5.157   0.593   0.202  0.00  0.00    -0.252 OA
ATOM      3  N   UNL     1       2.830   0.610  -0.123  0.00  0.00    -0.278 N 
ATOM      4  N   UNL     1       0.119   1.201   0.339  0.00  0.00    -0.293 NA
ATOM      5  N   UNL     1       3.924  -1.337  -0.364  0.00  0.00    -0.287 N 
ATOM      7  C   UNL     1       1.820  -0.320  -0.583  0.00  0.00    +0.109 C 
ATOM      8  C   UNL     1       0.561  -0.207   0.276  0.00  0.00    +0.109 C 
ATOM      9  C   UNL     1       2.520  -1.676  -0.521  0.00  0.00    +0.132 C 
ATOM     10  C   UNL     1       2.466   1.991   0.117  0.00  0.00    +0.125 C 
ATOM     11  C   UNL     1       1.170   2.057   0.928  0.00  0.00    +0.104 C 
ATOM     12  C   UNL     1       4.104   0.029  -0.065  0.00  0.00    +0.305 C 
ATOM     14  C   UNL     1       4.962  -2.345  -0.370  0.00  0.00    +0.133 C 
ENDROOT
BRANCH   4  13
ATOM     13  C   UNL     1      -1.119   1.312   1.109  0.00  0.00    +0.140 C 
BRANCH  13  15
ATOM      6  N   UNL     1      -2.824  -0.349   0.607  0.00  0.00    -0.217 NA
ATOM     15  C   UNL     1      -2.317   0.869   0.312  0.00  0.00    +0.059 A 
ATOM     16  C   UNL     1      -2.833   1.709  -0.661  0.00  0.00    +0.025 A 
ATOM     17  C   UNL     1      -3.942   1.271  -1.378  0.00  0.00    +0.007 A 
ATOM     18  C   UNL     1      -3.901  -0.741  -0.110  0.00  0.00    +0.215 A 
ATOM     19  C   UNL     1      -4.492   0.024  -1.103  0.00  0.00    +0.067 A 
BRANCH  18   2
ATOM      2  O   UNL     1      -4.425  -1.973   0.180  0.00  0.00    -0.480 OA
ATOM     20  C   UNL     1      -3.781  -2.717   1.208  0.00  0.00    +0.279 C 
ENDBRANCH  18   2
ENDBRANCH  13  15
ENDBRANCH   4  13
TORSDOF 3
