MODEL 1
REMARK VINA RESULT:      -6.2      0.000      0.000
REMARK  Name = 56775555
REMARK  9 active torsions:
REMARK  status: ('A' for Active; 'I' for Inactive)
REMARK    1  A    between atoms: O_3  and  C_16
REMARK    2  A    between atoms: O_4  and  C_18
REMARK    3  A    between atoms: O_4  and  C_22
REMARK    4  A    between atoms: N_5  and  C_7
REMARK    5  A    between atoms: N_5  and  C_11
REMARK    6  A    between atoms: C_7  and  C_10
REMARK    7  A    between atoms: C_10  and  C_12
REMARK    8  A    between atoms: C_11  and  C_13
REMARK    9  A    between atoms: C_15  and  C_18
REMARK                            x       y       z     vdW  Elec       q    Type
REMARK                         _______ _______ _______ _____ _____    ______ ____
ROOT
ATOM      1  O   UNL     1      11.597   9.295  21.861  0.00  0.00    -0.376 OA
ATOM      7  C   UNL     1      12.359   8.572  20.002  0.00  0.00    +0.072 C 
ATOM      8  C   UNL     1      11.770   7.982  21.279  0.00  0.00    +0.184 C 
ATOM      9  C   UNL     1      12.058   9.922  20.642  0.00  0.00    +0.184 C 
ENDROOT
BRANCH   7   5
ATOM      5  N   UNL     1      13.808   8.359  20.008  0.00  0.00    -0.302 NA
ATOM     23  H   UNL     1      14.328   8.888  19.311  0.00  0.00    +0.123 HD
BRANCH   5  11
ATOM     11  C   UNL     1      14.084   6.929  19.864  0.00  0.00    +0.120 C 
BRANCH  11  13
ATOM     13  C   UNL     1      15.534   6.612  20.022  0.00  0.00    +0.008 A 
ATOM     16  C   UNL     1      16.158   6.725  21.264  0.00  0.00    +0.121 A 
ATOM     17  C   UNL     1      16.267   6.198  18.909  0.00  0.00    +0.008 A 
ATOM     19  C   UNL     1      17.514   6.424  21.394  0.00  0.00    +0.046 A 
ATOM     20  C   UNL     1      17.623   5.898  19.039  0.00  0.00    +0.001 A 
ATOM     21  C   UNL     1      18.246   6.011  20.280  0.00  0.00    +0.004 A 
BRANCH  16   3
ATOM      3  O   UNL     1      15.458   7.128  22.361  0.00  0.00    -0.506 OA
ATOM     24  H   UNL     1      15.109   6.345  22.821  0.00  0.00    +0.292 HD
ENDBRANCH  16   3
ENDBRANCH  11  13
ENDBRANCH   5  11
ENDBRANCH   7   5
BRANCH   7  10
ATOM     10  C   UNL     1      11.725   8.235  18.686  0.00  0.00    +0.085 C 
BRANCH  10  12
ATOM      2  O   UNL     1      13.919   8.399  15.821  0.00  0.00    -0.357 OA
ATOM      6  N   UNL     1      13.168   7.699  16.757  0.00  0.00    -0.083 NA
ATOM     12  C   UNL     1      12.625   8.638  17.537  0.00  0.00    +0.086 A 
ATOM     14  C   UNL     1      12.995   9.936  17.145  0.00  0.00    +0.073 A 
ATOM     15  C   UNL     1      13.808   9.730  16.062  0.00  0.00    +0.163 A 
BRANCH  15  18
ATOM     18  C   UNL     1      14.545  10.624  15.160  0.00  0.00    +0.236 C 
BRANCH  18   4
ATOM      4  O   UNL     1      13.657  11.198  14.198  0.00  0.00    -0.375 OA
ATOM     22  C   UNL     1      14.208  12.375  13.630  0.00  0.00    +0.194 C 
ENDBRANCH  18   4
ENDBRANCH  15  18
ENDBRANCH  10  12
ENDBRANCH   7  10
TORSDOF 8
ENDMDL
MODEL 2
REMARK VINA RESULT:      -5.9      3.534      4.863
REMARK  Name = 56775555
REMARK  9 active torsions:
REMARK  status: ('A' for Active; 'I' for Inactive)
REMARK    1  A    between atoms: O_3  and  C_16
REMARK    2  A    between atoms: O_4  and  C_18
REMARK    3  A    between atoms: O_4  and  C_22
REMARK    4  A    between atoms: N_5  and  C_7
REMARK    5  A    between atoms: N_5  and  C_11
REMARK    6  A    between atoms: C_7  and  C_10
REMARK    7  A    between atoms: C_10  and  C_12
REMARK    8  A    between atoms: C_11  and  C_13
REMARK    9  A    between atoms: C_15  and  C_18
REMARK                            x       y       z     vdW  Elec       q    Type
REMARK                         _______ _______ _______ _____ _____    ______ ____
ROOT
ATOM      1  O   UNL     1      11.054   5.871  21.313  0.00  0.00    -0.376 OA
ATOM      7  C   UNL     1      12.639   7.115  20.607  0.00  0.00    +0.072 C 
ATOM      8  C   UNL     1      11.717   6.043  20.039  0.00  0.00    +0.184 C 
ATOM      9  C   UNL     1      11.831   6.945  21.889  0.00  0.00    +0.184 C 
ENDROOT
BRANCH   7   5
ATOM      5  N   UNL     1      13.970   6.535  20.808  0.00  0.00    -0.302 NA
ATOM     23  H   UNL     1      14.428   6.791  21.680  0.00  0.00    +0.123 HD
BRANCH   5  11
ATOM     11  C   UNL     1      14.821   6.884  19.670  0.00  0.00    +0.120 C 
BRANCH  11  13
ATOM     13  C   UNL     1      16.266   6.625  19.942  0.00  0.00    +0.008 A 
ATOM     16  C   UNL     1      16.884   7.150  21.077  0.00  0.00    +0.121 A 
ATOM     17  C   UNL     1      17.000   5.845  19.048  0.00  0.00    +0.008 A 
ATOM     19  C   UNL     1      18.235   6.897  21.317  0.00  0.00    +0.046 A 
ATOM     20  C   UNL     1      18.351   5.593  19.286  0.00  0.00    +0.001 A 
ATOM     21  C   UNL     1      18.968   6.119  20.420  0.00  0.00    +0.004 A 
BRANCH  16   3
ATOM      3  O   UNL     1      16.183   7.913  21.962  0.00  0.00    -0.506 OA
ATOM     24  H   UNL     1      15.394   7.422  22.250  0.00  0.00    +0.292 HD
ENDBRANCH  16   3
ENDBRANCH  11  13
ENDBRANCH   5  11
ENDBRANCH   7   5
BRANCH   7  10
ATOM     10  C   UNL     1      12.682   8.461  19.950  0.00  0.00    +0.085 C 
BRANCH  10  12
ATOM      2  O   UNL     1      13.677  10.815  22.503  0.00  0.00    -0.357 OA
ATOM      6  N   UNL     1      13.924   9.744  21.653  0.00  0.00    -0.083 NA
ATOM     12  C   UNL     1      12.783   9.562  20.984  0.00  0.00    +0.086 A 
ATOM     14  C   UNL     1      11.789  10.479  21.366  0.00  0.00    +0.073 A 
ATOM     15  C   UNL     1      12.402  11.244  22.323  0.00  0.00    +0.163 A 
BRANCH  15  18
ATOM     18  C   UNL     1      11.969  12.379  23.148  0.00  0.00    +0.236 C 
BRANCH  18   4
ATOM      4  O   UNL     1      10.788  12.039  23.878  0.00  0.00    -0.375 OA
ATOM     22  C   UNL     1      10.972  12.236  25.270  0.00  0.00    +0.194 C 
ENDBRANCH  18   4
ENDBRANCH  15  18
ENDBRANCH  10  12
ENDBRANCH   7  10
TORSDOF 8
ENDMDL
MODEL 3
REMARK VINA RESULT:      -5.6     26.431     27.905
REMARK  Name = 56775555
REMARK  9 active torsions:
REMARK  status: ('A' for Active; 'I' for Inactive)
REMARK    1  A    between atoms: O_3  and  C_16
REMARK    2  A    between atoms: O_4  and  C_18
REMARK    3  A    between atoms: O_4  and  C_22
REMARK    4  A    between atoms: N_5  and  C_7
REMARK    5  A    between atoms: N_5  and  C_11
REMARK    6  A    between atoms: C_7  and  C_10
REMARK    7  A    between atoms: C_10  and  C_12
REMARK    8  A    between atoms: C_11  and  C_13
REMARK    9  A    between atoms: C_15  and  C_18
REMARK                            x       y       z     vdW  Elec       q    Type
REMARK                         _______ _______ _______ _____ _____    ______ ____
ROOT
ATOM      1  O   UNL     1      -2.587 -14.350  14.274  0.00  0.00    -0.376 OA
ATOM      7  C   UNL     1      -2.949 -12.248  14.337  0.00  0.00    +0.072 C 
ATOM      8  C   UNL     1      -3.630 -13.518  14.832  0.00  0.00    +0.184 C 
ATOM      9  C   UNL     1      -1.842 -13.182  13.862  0.00  0.00    +0.184 C 
ENDROOT
BRANCH   7   5
ATOM      5  N   UNL     1      -3.677 -11.746  13.168  0.00  0.00    -0.302 NA
ATOM     23  H   UNL     1      -3.796 -12.415  12.410  0.00  0.00    +0.123 HD
BRANCH   5  11
ATOM     11  C   UNL     1      -3.018 -10.536  12.676  0.00  0.00    +0.120 C 
BRANCH  11  13
ATOM     13  C   UNL     1      -3.800  -9.863  11.597  0.00  0.00    +0.008 A 
ATOM     16  C   UNL     1      -5.133  -9.505  11.800  0.00  0.00    +0.121 A 
ATOM     17  C   UNL     1      -3.184  -9.591  10.376  0.00  0.00    +0.008 A 
ATOM     19  C   UNL     1      -5.849  -8.876  10.781  0.00  0.00    +0.046 A 
ATOM     20  C   UNL     1      -3.900  -8.963   9.357  0.00  0.00    +0.001 A 
ATOM     21  C   UNL     1      -5.232  -8.606   9.559  0.00  0.00    +0.004 A 
BRANCH  16   3
ATOM      3  O   UNL     1      -5.751  -9.763  12.986  0.00  0.00    -0.506 OA
ATOM     24  H   UNL     1      -5.430  -9.134  13.655  0.00  0.00    +0.292 HD
ENDBRANCH  16   3
ENDBRANCH  11  13
ENDBRANCH   5  11
ENDBRANCH   7   5
BRANCH   7  10
ATOM     10  C   UNL     1      -2.615 -11.170  15.323  0.00  0.00    +0.085 C 
BRANCH  10  12
ATOM      2  O   UNL     1      -5.770 -10.133  16.744  0.00  0.00    -0.357 OA
ATOM      6  N   UNL     1      -4.884 -10.267  15.683  0.00  0.00    -0.083 NA
ATOM     12  C   UNL     1      -3.806 -10.859  16.205  0.00  0.00    +0.086 A 
ATOM     14  C   UNL     1      -3.953 -11.120  17.578  0.00  0.00    +0.073 A 
ATOM     15  C   UNL     1      -5.205 -10.644  17.867  0.00  0.00    +0.163 A 
BRANCH  15  18
ATOM     18  C   UNL     1      -6.011 -10.584  19.093  0.00  0.00    +0.236 C 
BRANCH  18   4
ATOM      4  O   UNL     1      -6.144 -11.888  19.664  0.00  0.00    -0.375 OA
ATOM     22  C   UNL     1      -7.412 -12.449  19.369  0.00  0.00    +0.194 C 
ENDBRANCH  18   4
ENDBRANCH  15  18
ENDBRANCH  10  12
ENDBRANCH   7  10
TORSDOF 8
ENDMDL
MODEL 4
REMARK VINA RESULT:      -5.4     26.287     27.352
REMARK  Name = 56775555
REMARK  9 active torsions:
REMARK  status: ('A' for Active; 'I' for Inactive)
REMARK    1  A    between atoms: O_3  and  C_16
REMARK    2  A    between atoms: O_4  and  C_18
REMARK    3  A    between atoms: O_4  and  C_22
REMARK    4  A    between atoms: N_5  and  C_7
REMARK    5  A    between atoms: N_5  and  C_11
REMARK    6  A    between atoms: C_7  and  C_10
REMARK    7  A    between atoms: C_10  and  C_12
REMARK    8  A    between atoms: C_11  and  C_13
REMARK    9  A    between atoms: C_15  and  C_18
REMARK                            x       y       z     vdW  Elec       q    Type
REMARK                         _______ _______ _______ _____ _____    ______ ____
ROOT
ATOM      1  O   UNL     1      -2.163 -14.142  13.072  0.00  0.00    -0.376 OA
ATOM      7  C   UNL     1      -2.643 -12.194  13.803  0.00  0.00    +0.072 C 
ATOM      8  C   UNL     1      -1.574 -13.252  14.049  0.00  0.00    +0.184 C 
ATOM      9  C   UNL     1      -3.148 -13.144  12.722  0.00  0.00    +0.184 C 
ENDROOT
BRANCH   7   5
ATOM      5  N   UNL     1      -3.587 -12.207  14.923  0.00  0.00    -0.302 NA
ATOM     23  H   UNL     1      -4.570 -12.246  14.661  0.00  0.00    +0.123 HD
BRANCH   5  11
ATOM     11  C   UNL     1      -3.338 -11.044  15.774  0.00  0.00    +0.120 C 
BRANCH  11  13
ATOM     13  C   UNL     1      -4.485 -10.749  16.683  0.00  0.00    +0.008 A 
ATOM     16  C   UNL     1      -5.575 -10.002  16.236  0.00  0.00    +0.121 A 
ATOM     17  C   UNL     1      -4.460 -11.231  17.991  0.00  0.00    +0.008 A 
ATOM     19  C   UNL     1      -6.639  -9.737  17.098  0.00  0.00    +0.046 A 
ATOM     20  C   UNL     1      -5.524 -10.965  18.854  0.00  0.00    +0.001 A 
ATOM     21  C   UNL     1      -6.613 -10.218  18.407  0.00  0.00    +0.004 A 
BRANCH  16   3
ATOM      3  O   UNL     1      -5.616  -9.524  14.961  0.00  0.00    -0.506 OA
ATOM     24  H   UNL     1      -6.543  -9.367  14.710  0.00  0.00    +0.292 HD
ENDBRANCH  16   3
ENDBRANCH  11  13
ENDBRANCH   5  11
ENDBRANCH   7   5
BRANCH   7  10
ATOM     10  C   UNL     1      -2.220 -10.811  13.412  0.00  0.00    +0.085 C 
BRANCH  10  12
ATOM      2  O   UNL     1      -4.861  -9.641  11.242  0.00  0.00    -0.357 OA
ATOM      6  N   UNL     1      -4.391 -10.131  12.454  0.00  0.00    -0.083 NA
ATOM     12  C   UNL     1      -3.076 -10.286  12.279  0.00  0.00    +0.086 A 
ATOM     14  C   UNL     1      -2.663  -9.913  10.988  0.00  0.00    +0.073 A 
ATOM     15  C   UNL     1      -3.823  -9.516  10.377  0.00  0.00    +0.163 A 
BRANCH  15  18
ATOM     18  C   UNL     1      -4.144  -9.007   9.038  0.00  0.00    +0.236 C 
BRANCH  18   4
ATOM      4  O   UNL     1      -4.774 -10.026   8.258  0.00  0.00    -0.375 OA
ATOM     22  C   UNL     1      -6.065  -9.622   7.833  0.00  0.00    +0.194 C 
ENDBRANCH  18   4
ENDBRANCH  15  18
ENDBRANCH  10  12
ENDBRANCH   7  10
TORSDOF 8
ENDMDL
MODEL 5
REMARK VINA RESULT:      -5.4     13.340     17.008
REMARK  Name = 56775555
REMARK  9 active torsions:
REMARK  status: ('A' for Active; 'I' for Inactive)
REMARK    1  A    between atoms: O_3  and  C_16
REMARK    2  A    between atoms: O_4  and  C_18
REMARK    3  A    between atoms: O_4  and  C_22
REMARK    4  A    between atoms: N_5  and  C_7
REMARK    5  A    between atoms: N_5  and  C_11
REMARK    6  A    between atoms: C_7  and  C_10
REMARK    7  A    between atoms: C_10  and  C_12
REMARK    8  A    between atoms: C_11  and  C_13
REMARK    9  A    between atoms: C_15  and  C_18
REMARK                            x       y       z     vdW  Elec       q    Type
REMARK                         _______ _______ _______ _____ _____    ______ ____
ROOT
ATOM      1  O   UNL     1      12.979   7.762   2.880  0.00  0.00    -0.376 OA
ATOM      7  C   UNL     1      11.509   6.244   3.188  0.00  0.00    +0.072 C 
ATOM      8  C   UNL     1      12.515   7.020   4.032  0.00  0.00    +0.184 C 
ATOM      9  C   UNL     1      11.983   7.132   2.042  0.00  0.00    +0.184 C 
ENDROOT
BRANCH   7   5
ATOM      5  N   UNL     1      12.018   4.887   2.976  0.00  0.00    -0.302 NA
ATOM     23  H   UNL     1      12.951   4.831   2.572  0.00  0.00    +0.123 HD
BRANCH   5  11
ATOM     11  C   UNL     1      11.067   4.142   2.151  0.00  0.00    +0.120 C 
BRANCH  11  13
ATOM     13  C   UNL     1      11.534   3.991   0.742  0.00  0.00    +0.008 A 
ATOM     16  C   UNL     1      12.761   3.391   0.457  0.00  0.00    +0.121 A 
ATOM     17  C   UNL     1      10.729   4.456  -0.298  0.00  0.00    +0.008 A 
ATOM     19  C   UNL     1      13.182   3.257  -0.866  0.00  0.00    +0.046 A 
ATOM     20  C   UNL     1      11.150   4.323  -1.621  0.00  0.00    +0.001 A 
ATOM     21  C   UNL     1      12.376   3.724  -1.905  0.00  0.00    +0.004 A 
BRANCH  16   3
ATOM      3  O   UNL     1      13.560   2.930   1.460  0.00  0.00    -0.506 OA
ATOM     24  H   UNL     1      14.481   2.905   1.146  0.00  0.00    +0.292 HD
ENDBRANCH  16   3
ENDBRANCH  11  13
ENDBRANCH   5  11
ENDBRANCH   7   5
BRANCH   7  10
ATOM     10  C   UNL     1      10.062   6.271   3.575  0.00  0.00    +0.085 C 
BRANCH  10  12
ATOM      2  O   UNL     1       9.787   4.639   6.786  0.00  0.00    -0.357 OA
ATOM      6  N   UNL     1       9.997   4.625   5.413  0.00  0.00    -0.083 NA
ATOM     12  C   UNL     1       9.887   5.901   5.033  0.00  0.00    +0.086 A 
ATOM     14  C   UNL     1       9.611   6.757   6.113  0.00  0.00    +0.073 A 
ATOM     15  C   UNL     1       9.558   5.914   7.191  0.00  0.00    +0.163 A 
BRANCH  15  18
ATOM     18  C   UNL     1       9.314   6.113   8.625  0.00  0.00    +0.236 C 
BRANCH  18   4
ATOM      4  O   UNL     1      10.035   5.143   9.390  0.00  0.00    -0.375 OA
ATOM     22  C   UNL     1       9.186   4.489  10.318  0.00  0.00    +0.194 C 
ENDBRANCH  18   4
ENDBRANCH  15  18
ENDBRANCH  10  12
ENDBRANCH   7  10
TORSDOF 8
ENDMDL
MODEL 6
REMARK VINA RESULT:      -5.4     25.651     28.516
REMARK  Name = 56775555
REMARK  9 active torsions:
REMARK  status: ('A' for Active; 'I' for Inactive)
REMARK    1  A    between atoms: O_3  and  C_16
REMARK    2  A    between atoms: O_4  and  C_18
REMARK    3  A    between atoms: O_4  and  C_22
REMARK    4  A    between atoms: N_5  and  C_7
REMARK    5  A    between atoms: N_5  and  C_11
REMARK    6  A    between atoms: C_7  and  C_10
REMARK    7  A    between atoms: C_10  and  C_12
REMARK    8  A    between atoms: C_11  and  C_13
REMARK    9  A    between atoms: C_15  and  C_18
REMARK                            x       y       z     vdW  Elec       q    Type
REMARK                         _______ _______ _______ _____ _____    ______ ____
ROOT
ATOM      1  O   UNL     1     -15.785   8.438  21.772  0.00  0.00    -0.376 OA
ATOM      7  C   UNL     1     -13.848   7.603  21.445  0.00  0.00    +0.072 C 
ATOM      8  C   UNL     1     -14.687   8.058  22.633  0.00  0.00    +0.184 C 
ATOM      9  C   UNL     1     -15.081   7.937  20.613  0.00  0.00    +0.184 C 
ENDROOT
BRANCH   7   5
ATOM      5  N   UNL     1     -12.815   8.608  21.184  0.00  0.00    -0.302 NA
ATOM     23  H   UNL     1     -13.097   9.374  20.576  0.00  0.00    +0.123 HD
BRANCH   5  11
ATOM     11  C   UNL     1     -11.627   7.947  20.643  0.00  0.00    +0.120 C 
BRANCH  11  13
ATOM     13  C   UNL     1     -11.076   8.656  19.451  0.00  0.00    +0.008 A 
ATOM     16  C   UNL     1     -10.852   7.974  18.255  0.00  0.00    +0.121 A 
ATOM     17  C   UNL     1     -10.786  10.018  19.541  0.00  0.00    +0.008 A 
ATOM     19  C   UNL     1     -10.337   8.653  17.150  0.00  0.00    +0.046 A 
ATOM     20  C   UNL     1     -10.271  10.696  18.436  0.00  0.00    +0.001 A 
ATOM     21  C   UNL     1     -10.046  10.014  17.242  0.00  0.00    +0.004 A 
BRANCH  16   3
ATOM      3  O   UNL     1     -11.130   6.644  18.149  0.00  0.00    -0.506 OA
ATOM     24  H   UNL     1     -11.664   6.369  18.914  0.00  0.00    +0.292 HD
ENDBRANCH  16   3
ENDBRANCH  11  13
ENDBRANCH   5  11
ENDBRANCH   7   5
BRANCH   7  10
ATOM     10  C   UNL     1     -13.317   6.202  21.424  0.00  0.00    +0.085 C 
BRANCH  10  12
ATOM      2  O   UNL     1     -15.819   3.889  22.627  0.00  0.00    -0.357 OA
ATOM      6  N   UNL     1     -15.219   4.641  21.624  0.00  0.00    -0.083 NA
ATOM     12  C   UNL     1     -14.209   5.276  22.224  0.00  0.00    +0.086 A 
ATOM     14  C   UNL     1     -14.123   4.967  23.593  0.00  0.00    +0.073 A 
ATOM     15  C   UNL     1     -15.157   4.091  23.794  0.00  0.00    +0.163 A 
BRANCH  15  18
ATOM     18  C   UNL     1     -15.662   3.368  24.968  0.00  0.00    +0.236 C 
BRANCH  18   4
ATOM      4  O   UNL     1     -16.141   2.076  24.585  0.00  0.00    -0.375 OA
ATOM     22  C   UNL     1     -16.861   1.463  25.642  0.00  0.00    +0.194 C 
ENDBRANCH  18   4
ENDBRANCH  15  18
ENDBRANCH  10  12
ENDBRANCH   7  10
TORSDOF 8
ENDMDL
MODEL 7
REMARK VINA RESULT:      -5.3      5.198      9.394
REMARK  Name = 56775555
REMARK  9 active torsions:
REMARK  status: ('A' for Active; 'I' for Inactive)
REMARK    1  A    between atoms: O_3  and  C_16
REMARK    2  A    between atoms: O_4  and  C_18
REMARK    3  A    between atoms: O_4  and  C_22
REMARK    4  A    between atoms: N_5  and  C_7
REMARK    5  A    between atoms: N_5  and  C_11
REMARK    6  A    between atoms: C_7  and  C_10
REMARK    7  A    between atoms: C_10  and  C_12
REMARK    8  A    between atoms: C_11  and  C_13
REMARK    9  A    between atoms: C_15  and  C_18
REMARK                            x       y       z     vdW  Elec       q    Type
REMARK                         _______ _______ _______ _____ _____    ______ ____
ROOT
ATOM      1  O   UNL     1      21.732   8.678  20.615  0.00  0.00    -0.376 OA
ATOM      7  C   UNL     1      20.654   6.917  21.158  0.00  0.00    +0.072 C 
ATOM      8  C   UNL     1      21.927   7.262  20.394  0.00  0.00    +0.184 C 
ATOM      9  C   UNL     1      20.568   8.415  21.432  0.00  0.00    +0.184 C 
ENDROOT
BRANCH   7   5
ATOM      5  N   UNL     1      19.610   6.552  20.197  0.00  0.00    -0.302 NA
ATOM     23  H   UNL     1      19.409   7.253  19.487  0.00  0.00    +0.123 HD
BRANCH   5  11
ATOM     11  C   UNL     1      18.388   6.207  20.925  0.00  0.00    +0.120 C 
BRANCH  11  13
ATOM     13  C   UNL     1      17.175   6.841  20.329  0.00  0.00    +0.008 A 
ATOM     16  C   UNL     1      16.567   6.295  19.199  0.00  0.00    +0.121 A 
ATOM     17  C   UNL     1      16.649   7.991  20.916  0.00  0.00    +0.008 A 
ATOM     19  C   UNL     1      15.433   6.900  18.656  0.00  0.00    +0.046 A 
ATOM     20  C   UNL     1      15.515   8.597  20.373  0.00  0.00    +0.001 A 
ATOM     21  C   UNL     1      14.908   8.051  19.243  0.00  0.00    +0.004 A 
BRANCH  16   3
ATOM      3  O   UNL     1      17.067   5.171  18.613  0.00  0.00    -0.506 OA
ATOM     24  H   UNL     1      17.757   5.426  17.975  0.00  0.00    +0.292 HD
ENDBRANCH  16   3
ENDBRANCH  11  13
ENDBRANCH   5  11
ENDBRANCH   7   5
BRANCH   7  10
ATOM     10  C   UNL     1      20.736   5.972  22.318  0.00  0.00    +0.085 C 
BRANCH  10  12
ATOM      2  O   UNL     1      21.994   2.907  20.879  0.00  0.00    -0.357 OA
ATOM      6  N   UNL     1      21.066   3.937  20.961  0.00  0.00    -0.083 NA
ATOM     12  C   UNL     1      21.510   4.726  21.943  0.00  0.00    +0.086 A 
ATOM     14  C   UNL     1      22.703   4.248  22.512  0.00  0.00    +0.073 A 
ATOM     15  C   UNL     1      22.964   3.103  21.807  0.00  0.00    +0.163 A 
BRANCH  15  18
ATOM     18  C   UNL     1      24.034   2.099  21.859  0.00  0.00    +0.236 C 
BRANCH  18   4
ATOM      4  O   UNL     1      24.509   1.811  20.542  0.00  0.00    -0.375 OA
ATOM     22  C   UNL     1      25.229   2.908  20.006  0.00  0.00    +0.194 C 
ENDBRANCH  18   4
ENDBRANCH  15  18
ENDBRANCH  10  12
ENDBRANCH   7  10
TORSDOF 8
ENDMDL
MODEL 8
REMARK VINA RESULT:      -5.3     13.519     16.631
REMARK  Name = 56775555
REMARK  9 active torsions:
REMARK  status: ('A' for Active; 'I' for Inactive)
REMARK    1  A    between atoms: O_3  and  C_16
REMARK    2  A    between atoms: O_4  and  C_18
REMARK    3  A    between atoms: O_4  and  C_22
REMARK    4  A    between atoms: N_5  and  C_7
REMARK    5  A    between atoms: N_5  and  C_11
REMARK    6  A    between atoms: C_7  and  C_10
REMARK    7  A    between atoms: C_10  and  C_12
REMARK    8  A    between atoms: C_11  and  C_13
REMARK    9  A    between atoms: C_15  and  C_18
REMARK                            x       y       z     vdW  Elec       q    Type
REMARK                         _______ _______ _______ _____ _____    ______ ____
ROOT
ATOM      1  O   UNL     1      13.172   7.411   3.575  0.00  0.00    -0.376 OA
ATOM      7  C   UNL     1      11.281   6.423   3.503  0.00  0.00    +0.072 C 
ATOM      8  C   UNL     1      11.885   7.639   4.194  0.00  0.00    +0.184 C 
ATOM      9  C   UNL     1      12.637   6.304   2.815  0.00  0.00    +0.184 C 
ENDROOT
BRANCH   7   5
ATOM      5  N   UNL     1      11.151   5.339   4.480  0.00  0.00    -0.302 NA
ATOM     23  H   UNL     1      11.516   4.437   4.180  0.00  0.00    +0.123 HD
BRANCH   5  11
ATOM     11  C   UNL     1       9.747   5.211   4.870  0.00  0.00    +0.120 C 
BRANCH  11  13
ATOM     13  C   UNL     1       9.525   5.548   6.307  0.00  0.00    +0.008 A 
ATOM     16  C   UNL     1       9.737   4.596   7.304  0.00  0.00    +0.121 A 
ATOM     17  C   UNL     1       9.101   6.833   6.649  0.00  0.00    +0.008 A 
ATOM     19  C   UNL     1       9.525   4.928   8.643  0.00  0.00    +0.046 A 
ATOM     20  C   UNL     1       8.888   7.165   7.987  0.00  0.00    +0.001 A 
ATOM     21  C   UNL     1       9.100   6.213   8.983  0.00  0.00    +0.004 A 
BRANCH  16   3
ATOM      3  O   UNL     1      10.150   3.337   6.989  0.00  0.00    -0.506 OA
ATOM     24  H   UNL     1      10.490   3.333   6.077  0.00  0.00    +0.292 HD
ENDBRANCH  16   3
ENDBRANCH  11  13
ENDBRANCH   5  11
ENDBRANCH   7   5
BRANCH   7  10
ATOM     10  C   UNL     1      10.055   6.600   2.660  0.00  0.00    +0.085 C 
BRANCH  10  12
ATOM      2  O   UNL     1      10.280   4.028   0.133  0.00  0.00    -0.357 OA
ATOM      6  N   UNL     1      10.194   4.451   1.453  0.00  0.00    -0.083 NA
ATOM     12  C   UNL     1      10.153   5.785   1.388  0.00  0.00    +0.086 A 
ATOM     14  C   UNL     1      10.210   6.255   0.065  0.00  0.00    +0.073 A 
ATOM     15  C   UNL     1      10.289   5.111  -0.685  0.00  0.00    +0.163 A 
BRANCH  15  18
ATOM     18  C   UNL     1      10.377   4.845  -2.126  0.00  0.00    +0.236 C 
BRANCH  18   4
ATOM      4  O   UNL     1       9.762   5.903  -2.864  0.00  0.00    -0.375 OA
ATOM     22  C   UNL     1       8.558   5.469  -3.475  0.00  0.00    +0.194 C 
ENDBRANCH  18   4
ENDBRANCH  15  18
ENDBRANCH  10  12
ENDBRANCH   7  10
TORSDOF 8
ENDMDL
MODEL 9
REMARK VINA RESULT:      -5.2     27.612     29.095
REMARK  Name = 56775555
REMARK  9 active torsions:
REMARK  status: ('A' for Active; 'I' for Inactive)
REMARK    1  A    between atoms: O_3  and  C_16
REMARK    2  A    between atoms: O_4  and  C_18
REMARK    3  A    between atoms: O_4  and  C_22
REMARK    4  A    between atoms: N_5  and  C_7
REMARK    5  A    between atoms: N_5  and  C_11
REMARK    6  A    between atoms: C_7  and  C_10
REMARK    7  A    between atoms: C_10  and  C_12
REMARK    8  A    between atoms: C_11  and  C_13
REMARK    9  A    between atoms: C_15  and  C_18
REMARK                            x       y       z     vdW  Elec       q    Type
REMARK                         _______ _______ _______ _____ _____    ______ ____
ROOT
ATOM      1  O   UNL     1      -8.495 -11.030  13.554  0.00  0.00    -0.376 OA
ATOM      7  C   UNL     1      -8.955  -9.824  15.254  0.00  0.00    +0.072 C 
ATOM      8  C   UNL     1      -8.857  -9.643  13.744  0.00  0.00    +0.184 C 
ATOM      9  C   UNL     1      -8.664 -11.292  14.966  0.00  0.00    +0.184 C 
ENDROOT
BRANCH   7   5
ATOM      5  N   UNL     1      -7.775  -9.222  15.880  0.00  0.00    -0.302 NA
ATOM     23  H   UNL     1      -6.880  -9.584  15.556  0.00  0.00    +0.123 HD
BRANCH   5  11
ATOM     11  C   UNL     1      -7.879  -9.361  17.333  0.00  0.00    +0.120 C 
BRANCH  11  13
ATOM     13  C   UNL     1      -6.743 -10.137  17.911  0.00  0.00    +0.008 A 
ATOM     16  C   UNL     1      -6.816 -10.651  19.206  0.00  0.00    +0.121 A 
ATOM     17  C   UNL     1      -5.599 -10.349  17.141  0.00  0.00    +0.008 A 
ATOM     19  C   UNL     1      -5.745 -11.376  19.731  0.00  0.00    +0.046 A 
ATOM     20  C   UNL     1      -4.528 -11.073  17.666  0.00  0.00    +0.001 A 
ATOM     21  C   UNL     1      -4.601 -11.585  18.961  0.00  0.00    +0.004 A 
BRANCH  16   3
ATOM      3  O   UNL     1      -7.925 -10.454  19.972  0.00  0.00    -0.506 OA
ATOM     24  H   UNL     1      -8.714 -10.484  19.403  0.00  0.00    +0.292 HD
ENDBRANCH  16   3
ENDBRANCH  11  13
ENDBRANCH   5  11
ENDBRANCH   7   5
BRANCH   7  10
ATOM     10  C   UNL     1     -10.233  -9.461  15.949  0.00  0.00    +0.085 C 
BRANCH  10  12
ATOM      2  O   UNL     1     -10.674  -5.899  15.541  0.00  0.00    -0.357 OA
ATOM      6  N   UNL     1     -10.031  -7.005  16.083  0.00  0.00    -0.083 NA
ATOM     12  C   UNL     1     -10.670  -8.061  15.574  0.00  0.00    +0.086 A 
ATOM     14  C   UNL     1     -11.716  -7.687  14.712  0.00  0.00    +0.073 A 
ATOM     15  C   UNL     1     -11.676  -6.318  14.727  0.00  0.00    +0.163 A 
BRANCH  15  18
ATOM     18  C   UNL     1     -12.465  -5.270  14.066  0.00  0.00    +0.236 C 
BRANCH  18   4
ATOM      4  O   UNL     1     -12.557  -5.530  12.663  0.00  0.00    -0.375 OA
ATOM     22  C   UNL     1     -12.288  -4.360  11.908  0.00  0.00    +0.194 C 
ENDBRANCH  18   4
ENDBRANCH  15  18
ENDBRANCH  10  12
ENDBRANCH   7  10
TORSDOF 8
ENDMDL
MODEL 10
REMARK VINA RESULT:      -5.2      5.142      9.393
REMARK  Name = 56775555
REMARK  9 active torsions:
REMARK  status: ('A' for Active; 'I' for Inactive)
REMARK    1  A    between atoms: O_3  and  C_16
REMARK    2  A    between atoms: O_4  and  C_18
REMARK    3  A    between atoms: O_4  and  C_22
REMARK    4  A    between atoms: N_5  and  C_7
REMARK    5  A    between atoms: N_5  and  C_11
REMARK    6  A    between atoms: C_7  and  C_10
REMARK    7  A    between atoms: C_10  and  C_12
REMARK    8  A    between atoms: C_11  and  C_13
REMARK    9  A    between atoms: C_15  and  C_18
REMARK                            x       y       z     vdW  Elec       q    Type
REMARK                         _______ _______ _______ _____ _____    ______ ____
ROOT
ATOM      1  O   UNL     1      20.450   8.193  25.291  0.00  0.00    -0.376 OA
ATOM      7  C   UNL     1      20.602   7.448  23.296  0.00  0.00    +0.072 C 
ATOM      8  C   UNL     1      20.496   8.805  23.981  0.00  0.00    +0.184 C 
ATOM      9  C   UNL     1      20.645   6.883  24.712  0.00  0.00    +0.184 C 
ENDROOT
BRANCH   7   5
ATOM      5  N   UNL     1      19.307   7.119  22.695  0.00  0.00    -0.302 NA
ATOM     23  H   UNL     1      19.158   6.132  22.497  0.00  0.00    +0.123 HD
BRANCH   5  11
ATOM     11  C   UNL     1      19.128   7.911  21.478  0.00  0.00    +0.120 C 
BRANCH  11  13
ATOM     13  C   UNL     1      17.945   7.469  20.683  0.00  0.00    +0.008 A 
ATOM     16  C   UNL     1      18.010   6.329  19.880  0.00  0.00    +0.121 A 
ATOM     17  C   UNL     1      16.764   8.207  20.749  0.00  0.00    +0.008 A 
ATOM     19  C   UNL     1      16.894   5.930  19.144  0.00  0.00    +0.046 A 
ATOM     20  C   UNL     1      15.648   7.809  20.012  0.00  0.00    +0.001 A 
ATOM     21  C   UNL     1      15.714   6.671  19.210  0.00  0.00    +0.004 A 
BRANCH  16   3
ATOM      3  O   UNL     1      19.155   5.596  19.803  0.00  0.00    -0.506 OA
ATOM     24  H   UNL     1      19.432   5.535  18.872  0.00  0.00    +0.292 HD
ENDBRANCH  16   3
ENDBRANCH  11  13
ENDBRANCH   5  11
ENDBRANCH   7   5
BRANCH   7  10
ATOM     10  C   UNL     1      21.756   7.185  22.376  0.00  0.00    +0.085 C 
BRANCH  10  12
ATOM      2  O   UNL     1      21.637   3.628  21.757  0.00  0.00    -0.357 OA
ATOM      6  N   UNL     1      21.082   4.902  21.726  0.00  0.00    -0.083 NA
ATOM     12  C   UNL     1      22.016   5.699  22.250  0.00  0.00    +0.086 A 
ATOM     14  C   UNL     1      23.171   4.992  22.626  0.00  0.00    +0.073 A 
ATOM     15  C   UNL     1      22.881   3.694  22.295  0.00  0.00    +0.163 A 
BRANCH  15  18
ATOM     18  C   UNL     1      23.617   2.429  22.403  0.00  0.00    +0.236 C 
BRANCH  18   4
ATOM      4  O   UNL     1      23.702   1.793  21.125  0.00  0.00    -0.375 OA
ATOM     22  C   UNL     1      24.629   2.458  20.284  0.00  0.00    +0.194 C 
ENDBRANCH  18   4
ENDBRANCH  15  18
ENDBRANCH  10  12
ENDBRANCH   7  10
TORSDOF 8
ENDMDL
