MODEL 1
REMARK VINA RESULT:      -7.2      0.000      0.000
REMARK  Name = 40779449
REMARK  8 active torsions:
REMARK  status: ('A' for Active; 'I' for Inactive)
REMARK    1  A    between atoms: O_2  and  C_21
REMARK    2  A    between atoms: O_2  and  C_29
REMARK    3  A    between atoms: N_4  and  C_18
REMARK    4  A    between atoms: N_5  and  C_15
REMARK    5  A    between atoms: C_8  and  C_14
REMARK    6  A    between atoms: C_9  and  C_15
REMARK    7  A    between atoms: C_17  and  C_20
REMARK    8  A    between atoms: C_19  and  C_21
REMARK                            x       y       z     vdW  Elec       q    Type
REMARK                         _______ _______ _______ _____ _____    ______ ____
ROOT
ATOM      3  N   UNL     1      -6.255 -10.334  17.847  0.00  0.00    -0.297 NA
ATOM      7  C   UNL     1      -4.520 -12.106  17.049  0.00  0.00    +0.002 C 
ATOM      8  C   UNL     1      -4.193 -10.712  16.443  0.00  0.00    +0.055 C 
ATOM      9  C   UNL     1      -6.957 -11.536  17.326  0.00  0.00    +0.074 C 
ATOM     10  C   UNL     1      -5.959 -12.506  16.660  0.00  0.00    +0.024 C 
ATOM     11  C   UNL     1      -4.493 -11.941  18.584  0.00  0.00    +0.019 C 
ATOM     12  C   UNL     1      -5.374  -9.764  16.797  0.00  0.00    +0.094 C 
ATOM     13  C   UNL     1      -5.401 -10.764  18.982  0.00  0.00    +0.085 C 
ENDROOT
BRANCH   8  14
ATOM      4  N   UNL     1      -2.525 -10.551  14.537  0.00  0.00    -0.270 N 
ATOM      6  N   UNL     1      -2.404 -10.496  13.199  0.00  0.00    -0.171 NA
ATOM     14  C   UNL     1      -3.815 -10.640  14.971  0.00  0.00    +0.044 A 
ATOM     16  C   UNL     1      -4.592 -10.644  13.838  0.00  0.00    +0.053 A 
ATOM     17  C   UNL     1      -3.671 -10.554  12.778  0.00  0.00    +0.093 A 
ATOM     18  C   UNL     1      -1.336 -10.507  15.356  0.00  0.00    +0.172 C 
BRANCH  17  20
ATOM     20  C   UNL     1      -3.976 -10.520  11.372  0.00  0.00    +0.003 A 
ATOM     22  C   UNL     1      -3.941 -11.697  10.622  0.00  0.00    +0.018 A 
ATOM     23  C   UNL     1      -4.306  -9.315  10.759  0.00  0.00    +0.011 A 
ATOM     24  C   UNL     1      -4.236 -11.682   9.250  0.00  0.00    -0.017 A 
ATOM     25  C   UNL     1      -4.602  -9.281   9.397  0.00  0.00    +0.009 A 
ATOM     26  C   UNL     1      -4.572 -10.456   8.627  0.00  0.00    -0.018 A 
ATOM     27  C   UNL     1      -4.206 -12.856   8.480  0.00  0.00    +0.008 A 
ATOM     28  C   UNL     1      -4.868 -10.441   7.255  0.00  0.00    +0.008 A 
ATOM     30  C   UNL     1      -4.503 -12.823   7.118  0.00  0.00    +0.001 A 
ATOM     31  C   UNL     1      -4.832 -11.617   6.506  0.00  0.00    +0.001 A 
ENDBRANCH  17  20
ENDBRANCH   8  14
BRANCH   9  15
ATOM     15  C   UNL     1      -8.112 -11.174  16.389  0.00  0.00    +0.123 C 
BRANCH  15   5
ATOM      1  O   UNL     1      -9.143  -9.052  14.716  0.00  0.00    -0.273 OA
ATOM      5  N   UNL     1      -8.762  -9.975  16.818  0.00  0.00    -0.312 N 
ATOM     19  C   UNL     1      -9.229  -8.999  15.940  0.00  0.00    +0.239 C 
ATOM     32  H   UNL     1      -8.882  -9.832  17.817  0.00  0.00    +0.149 HD
BRANCH  19  21
ATOM     21  C   UNL     1      -9.875  -7.838  16.665  0.00  0.00    +0.255 C 
BRANCH  21   2
ATOM      2  O   UNL     1     -10.032  -6.734  15.801  0.00  0.00    -0.374 OA
ATOM     29  C   UNL     1     -11.270  -6.064  16.014  0.00  0.00    +0.194 C 
ENDBRANCH  21   2
ENDBRANCH  19  21
ENDBRANCH  15   5
ENDBRANCH   9  15
TORSDOF 6
ENDMDL
MODEL 2
REMARK VINA RESULT:      -7.0     26.687     29.654
REMARK  Name = 40779449
REMARK  8 active torsions:
REMARK  status: ('A' for Active; 'I' for Inactive)
REMARK    1  A    between atoms: O_2  and  C_21
REMARK    2  A    between atoms: O_2  and  C_29
REMARK    3  A    between atoms: N_4  and  C_18
REMARK    4  A    between atoms: N_5  and  C_15
REMARK    5  A    between atoms: C_8  and  C_14
REMARK    6  A    between atoms: C_9  and  C_15
REMARK    7  A    between atoms: C_17  and  C_20
REMARK    8  A    between atoms: C_19  and  C_21
REMARK                            x       y       z     vdW  Elec       q    Type
REMARK                         _______ _______ _______ _____ _____    ______ ____
ROOT
ATOM      3  N   UNL     1      11.607   8.650  22.141  0.00  0.00    -0.297 NA
ATOM      7  C   UNL     1      12.461   8.690  19.681  0.00  0.00    +0.002 C 
ATOM      8  C   UNL     1      13.128   7.530  20.469  0.00  0.00    +0.055 C 
ATOM      9  C   UNL     1      12.045  10.023  21.777  0.00  0.00    +0.074 C 
ATOM     10  C   UNL     1      12.743  10.026  20.401  0.00  0.00    +0.024 C 
ATOM     11  C   UNL     1      10.936   8.453  19.746  0.00  0.00    +0.019 C 
ATOM     12  C   UNL     1      12.729   7.694  21.964  0.00  0.00    +0.094 C 
ATOM     13  C   UNL     1      10.517   8.260  21.214  0.00  0.00    +0.085 C 
ENDROOT
BRANCH   8  14
ATOM      4  N   UNL     1      15.210   7.127  19.074  0.00  0.00    -0.270 N 
ATOM      6  N   UNL     1      16.541   6.947  19.133  0.00  0.00    -0.171 NA
ATOM     14  C   UNL     1      14.624   7.308  20.292  0.00  0.00    +0.044 A 
ATOM     16  C   UNL     1      15.642   7.241  21.213  0.00  0.00    +0.053 A 
ATOM     17  C   UNL     1      16.798   7.017  20.442  0.00  0.00    +0.093 A 
ATOM     18  C   UNL     1      14.552   7.111  17.789  0.00  0.00    +0.172 C 
BRANCH  17  20
ATOM     20  C   UNL     1      18.143   6.868  20.932  0.00  0.00    +0.003 A 
ATOM     22  C   UNL     1      18.946   5.829  20.460  0.00  0.00    +0.018 A 
ATOM     23  C   UNL     1      18.644   7.761  21.875  0.00  0.00    +0.011 A 
ATOM     24  C   UNL     1      20.261   5.669  20.927  0.00  0.00    -0.017 A 
ATOM     25  C   UNL     1      19.948   7.618  22.350  0.00  0.00    +0.009 A 
ATOM     26  C   UNL     1      20.770   6.577  21.886  0.00  0.00    -0.018 A 
ATOM     27  C   UNL     1      21.083   4.629  20.464  0.00  0.00    +0.008 A 
ATOM     28  C   UNL     1      22.085   6.419  22.353  0.00  0.00    +0.008 A 
ATOM     30  C   UNL     1      22.387   4.486  20.938  0.00  0.00    +0.001 A 
ATOM     31  C   UNL     1      22.886   5.379  21.881  0.00  0.00    +0.001 A 
ENDBRANCH  17  20
ENDBRANCH   8  14
BRANCH   9  15
ATOM     15  C   UNL     1      12.917  10.662  22.861  0.00  0.00    +0.123 C 
BRANCH  15   5
ATOM      1  O   UNL     1      11.293  10.644  25.254  0.00  0.00    -0.273 OA
ATOM      5  N   UNL     1      12.250  11.777  23.460  0.00  0.00    -0.312 N 
ATOM     19  C   UNL     1      11.483  11.678  24.620  0.00  0.00    +0.239 C 
ATOM     32  H   UNL     1      12.343  12.684  23.010  0.00  0.00    +0.149 HD
BRANCH  19  21
ATOM     21  C   UNL     1      10.896  13.011  25.032  0.00  0.00    +0.255 C 
BRANCH  21   2
ATOM      2  O   UNL     1      11.035  13.959  23.996  0.00  0.00    -0.374 OA
ATOM     29  C   UNL     1       9.784  14.536  23.632  0.00  0.00    +0.194 C 
ENDBRANCH  21   2
ENDBRANCH  19  21
ENDBRANCH  15   5
ENDBRANCH   9  15
TORSDOF 6
ENDMDL
MODEL 3
REMARK VINA RESULT:      -6.8     27.698     30.591
REMARK  Name = 40779449
REMARK  8 active torsions:
REMARK  status: ('A' for Active; 'I' for Inactive)
REMARK    1  A    between atoms: O_2  and  C_21
REMARK    2  A    between atoms: O_2  and  C_29
REMARK    3  A    between atoms: N_4  and  C_18
REMARK    4  A    between atoms: N_5  and  C_15
REMARK    5  A    between atoms: C_8  and  C_14
REMARK    6  A    between atoms: C_9  and  C_15
REMARK    7  A    between atoms: C_17  and  C_20
REMARK    8  A    between atoms: C_19  and  C_21
REMARK                            x       y       z     vdW  Elec       q    Type
REMARK                         _______ _______ _______ _____ _____    ______ ____
ROOT
ATOM      3  N   UNL     1      12.397  12.506  23.587  0.00  0.00    -0.297 NA
ATOM      7  C   UNL     1      12.170  12.173  21.013  0.00  0.00    +0.002 C 
ATOM      8  C   UNL     1      12.175  10.800  21.741  0.00  0.00    +0.055 C 
ATOM      9  C   UNL     1      13.442  13.291  22.878  0.00  0.00    +0.074 C 
ATOM     10  C   UNL     1      13.457  12.946  21.374  0.00  0.00    +0.024 C 
ATOM     11  C   UNL     1      10.983  12.976  21.585  0.00  0.00    +0.019 C 
ATOM     12  C   UNL     1      12.514  11.069  23.236  0.00  0.00    +0.094 C 
ATOM     13  C   UNL     1      11.074  12.989  23.121  0.00  0.00    +0.085 C 
ENDROOT
BRANCH   8  14
ATOM      4  N   UNL     1      12.517   8.755  20.278  0.00  0.00    -0.270 N 
ATOM      6  N   UNL     1      13.420   7.845  19.875  0.00  0.00    -0.171 NA
ATOM     14  C   UNL     1      13.015   9.677  21.151  0.00  0.00    +0.044 A 
ATOM     16  C   UNL     1      14.336   9.347  21.332  0.00  0.00    +0.053 A 
ATOM     17  C   UNL     1      14.530   8.212  20.523  0.00  0.00    +0.093 A 
ATOM     18  C   UNL     1      11.164   8.676  19.778  0.00  0.00    +0.172 C 
BRANCH  17  20
ATOM     20  C   UNL     1      15.752   7.471  20.356  0.00  0.00    +0.003 A 
ATOM     22  C   UNL     1      16.830   7.701  21.212  0.00  0.00    +0.018 A 
ATOM     23  C   UNL     1      15.860   6.523  19.342  0.00  0.00    +0.011 A 
ATOM     24  C   UNL     1      18.030   6.987  21.064  0.00  0.00    -0.017 A 
ATOM     25  C   UNL     1      17.043   5.804  19.180  0.00  0.00    +0.009 A 
ATOM     26  C   UNL     1      18.139   6.024  20.032  0.00  0.00    -0.018 A 
ATOM     27  C   UNL     1      19.124   7.207  21.915  0.00  0.00    +0.008 A 
ATOM     28  C   UNL     1      19.338   5.309  19.884  0.00  0.00    +0.008 A 
ATOM     30  C   UNL     1      20.308   6.487  21.754  0.00  0.00    +0.001 A 
ATOM     31  C   UNL     1      20.415   5.541  20.740  0.00  0.00    +0.001 A 
ENDBRANCH  17  20
ENDBRANCH   8  14
BRANCH   9  15
ATOM     15  C   UNL     1      14.825  13.127  23.514  0.00  0.00    +0.123 C 
BRANCH  15   5
ATOM      1  O   UNL     1      15.107  11.486  25.879  0.00  0.00    -0.273 OA
ATOM      5  N   UNL     1      14.815  13.566  24.876  0.00  0.00    -0.312 N 
ATOM     19  C   UNL     1      14.958  12.702  25.961  0.00  0.00    +0.239 C 
ATOM     32  H   UNL     1      14.695  14.559  25.053  0.00  0.00    +0.149 HD
BRANCH  19  21
ATOM     21  C   UNL     1      14.912  13.435  27.284  0.00  0.00    +0.255 C 
BRANCH  21   2
ATOM      2  O   UNL     1      14.225  12.673  28.252  0.00  0.00    -0.374 OA
ATOM     29  C   UNL     1      15.068  12.313  29.343  0.00  0.00    +0.194 C 
ENDBRANCH  21   2
ENDBRANCH  19  21
ENDBRANCH  15   5
ENDBRANCH   9  15
TORSDOF 6
ENDMDL
MODEL 4
REMARK VINA RESULT:      -6.7      5.043     10.170
REMARK  Name = 40779449
REMARK  8 active torsions:
REMARK  status: ('A' for Active; 'I' for Inactive)
REMARK    1  A    between atoms: O_2  and  C_21
REMARK    2  A    between atoms: O_2  and  C_29
REMARK    3  A    between atoms: N_4  and  C_18
REMARK    4  A    between atoms: N_5  and  C_15
REMARK    5  A    between atoms: C_8  and  C_14
REMARK    6  A    between atoms: C_9  and  C_15
REMARK    7  A    between atoms: C_17  and  C_20
REMARK    8  A    between atoms: C_19  and  C_21
REMARK                            x       y       z     vdW  Elec       q    Type
REMARK                         _______ _______ _______ _____ _____    ______ ____
ROOT
ATOM      3  N   UNL     1      -6.156 -11.993  17.114  0.00  0.00    -0.297 NA
ATOM      7  C   UNL     1      -6.501 -11.131  19.548  0.00  0.00    +0.002 C 
ATOM      8  C   UNL     1      -7.441 -12.334  19.258  0.00  0.00    +0.055 C 
ATOM      9  C   UNL     1      -6.351 -10.519  17.109  0.00  0.00    +0.074 C 
ATOM     10  C   UNL     1      -6.761 -10.019  18.510  0.00  0.00    +0.024 C 
ATOM     11  C   UNL     1      -5.057 -11.631  19.325  0.00  0.00    +0.019 C 
ATOM     12  C   UNL     1      -7.325 -12.658  17.741  0.00  0.00    +0.094 C 
ATOM     13  C   UNL     1      -4.958 -12.289  17.938  0.00  0.00    +0.085 C 
ENDROOT
BRANCH   8  14
ATOM      4  N   UNL     1      -9.536 -13.267  20.344  0.00  0.00    -0.270 N 
ATOM      6  N   UNL     1     -10.809 -12.986  20.671  0.00  0.00    -0.171 NA
ATOM     14  C   UNL     1      -8.888 -12.242  19.721  0.00  0.00    +0.044 A 
ATOM     16  C   UNL     1      -9.801 -11.219  19.634  0.00  0.00    +0.053 A 
ATOM     17  C   UNL     1     -10.965 -11.733  20.234  0.00  0.00    +0.093 A 
ATOM     18  C   UNL     1      -8.997 -14.569  20.663  0.00  0.00    +0.172 C 
BRANCH  17  20
ATOM     20  C   UNL     1     -12.222 -11.052  20.398  0.00  0.00    +0.003 A 
ATOM     22  C   UNL     1     -13.187 -11.568  21.265  0.00  0.00    +0.018 A 
ATOM     23  C   UNL     1     -12.476  -9.879  19.693  0.00  0.00    +0.011 A 
ATOM     24  C   UNL     1     -14.418 -10.916  21.436  0.00  0.00    -0.017 A 
ATOM     25  C   UNL     1     -13.693  -9.218  19.851  0.00  0.00    +0.009 A 
ATOM     26  C   UNL     1     -14.676  -9.723  20.719  0.00  0.00    -0.018 A 
ATOM     27  C   UNL     1     -15.401 -11.421  22.303  0.00  0.00    +0.008 A 
ATOM     28  C   UNL     1     -15.907  -9.070  20.891  0.00  0.00    +0.008 A 
ATOM     30  C   UNL     1     -16.619 -10.760  22.463  0.00  0.00    +0.001 A 
ATOM     31  C   UNL     1     -16.871  -9.587  21.757  0.00  0.00    +0.001 A 
ENDBRANCH  17  20
ENDBRANCH   8  14
BRANCH   9  15
ATOM     15  C   UNL     1      -7.337 -10.066  16.030  0.00  0.00    +0.123 C 
BRANCH  15   5
ATOM      1  O   UNL     1     -10.220  -9.822  16.037  0.00  0.00    -0.273 OA
ATOM      5  N   UNL     1      -8.108  -8.948  16.481  0.00  0.00    -0.312 N 
ATOM     19  C   UNL     1      -9.501  -8.915  16.448  0.00  0.00    +0.239 C 
ATOM     32  H   UNL     1      -7.608  -8.140  16.839  0.00  0.00    +0.149 HD
BRANCH  19  21
ATOM     21  C   UNL     1     -10.054  -7.613  16.986  0.00  0.00    +0.255 C 
BRANCH  21   2
ATOM      2  O   UNL     1     -10.204  -6.668  15.949  0.00  0.00    -0.374 OA
ATOM     29  C   UNL     1     -11.543  -6.189  15.854  0.00  0.00    +0.194 C 
ENDBRANCH  21   2
ENDBRANCH  19  21
ENDBRANCH  15   5
ENDBRANCH   9  15
TORSDOF 6
ENDMDL
MODEL 5
REMARK VINA RESULT:      -6.7      2.960      8.492
REMARK  Name = 40779449
REMARK  8 active torsions:
REMARK  status: ('A' for Active; 'I' for Inactive)
REMARK    1  A    between atoms: O_2  and  C_21
REMARK    2  A    between atoms: O_2  and  C_29
REMARK    3  A    between atoms: N_4  and  C_18
REMARK    4  A    between atoms: N_5  and  C_15
REMARK    5  A    between atoms: C_8  and  C_14
REMARK    6  A    between atoms: C_9  and  C_15
REMARK    7  A    between atoms: C_17  and  C_20
REMARK    8  A    between atoms: C_19  and  C_21
REMARK                            x       y       z     vdW  Elec       q    Type
REMARK                         _______ _______ _______ _____ _____    ______ ____
ROOT
ATOM      3  N   UNL     1      -4.087  -8.929   9.537  0.00  0.00    -0.297 NA
ATOM      7  C   UNL     1      -5.840 -10.830   9.848  0.00  0.00    +0.002 C 
ATOM      8  C   UNL     1      -6.285  -9.551  10.609  0.00  0.00    +0.055 C 
ATOM      9  C   UNL     1      -3.408 -10.184   9.956  0.00  0.00    +0.074 C 
ATOM     10  C   UNL     1      -4.444 -11.260  10.344  0.00  0.00    +0.024 C 
ATOM     11  C   UNL     1      -5.692 -10.435   8.362  0.00  0.00    +0.019 C 
ATOM     12  C   UNL     1      -5.104  -8.540  10.546  0.00  0.00    +0.094 C 
ATOM     13  C   UNL     1      -4.785  -9.196   8.257  0.00  0.00    +0.085 C 
ENDROOT
BRANCH   8  14
ATOM      4  N   UNL     1      -8.169  -9.696  12.303  0.00  0.00    -0.270 N 
ATOM      6  N   UNL     1      -8.449  -9.850  13.608  0.00  0.00    -0.171 NA
ATOM     14  C   UNL     1      -6.836  -9.709  12.019  0.00  0.00    +0.044 A 
ATOM     16  C   UNL     1      -6.197  -9.882  13.224  0.00  0.00    +0.053 A 
ATOM     17  C   UNL     1      -7.240  -9.963  14.166  0.00  0.00    +0.093 A 
ATOM     18  C   UNL     1      -9.255  -9.536  11.363  0.00  0.00    +0.172 C 
BRANCH  17  20
ATOM     20  C   UNL     1      -7.104 -10.144  15.587  0.00  0.00    +0.003 A 
ATOM     22  C   UNL     1      -5.956 -10.743  16.107  0.00  0.00    +0.018 A 
ATOM     23  C   UNL     1      -8.116  -9.721  16.443  0.00  0.00    +0.011 A 
ATOM     24  C   UNL     1      -5.807 -10.928  17.491  0.00  0.00    -0.017 A 
ATOM     25  C   UNL     1      -7.986  -9.896  17.820  0.00  0.00    +0.009 A 
ATOM     26  C   UNL     1      -6.838 -10.498  18.361  0.00  0.00    -0.018 A 
ATOM     27  C   UNL     1      -4.659 -11.530  18.032  0.00  0.00    +0.008 A 
ATOM     28  C   UNL     1      -6.689 -10.681  19.745  0.00  0.00    +0.008 A 
ATOM     30  C   UNL     1      -4.528 -11.704  19.409  0.00  0.00    +0.001 A 
ATOM     31  C   UNL     1      -5.541 -11.281  20.264  0.00  0.00    +0.001 A 
ENDBRANCH  17  20
ENDBRANCH   8  14
BRANCH   9  15
ATOM     15  C   UNL     1      -2.386  -9.949  11.070  0.00  0.00    +0.123 C 
BRANCH  15   5
ATOM      1  O   UNL     1      -1.736  -9.993  13.889  0.00  0.00    -0.273 OA
ATOM      5  N   UNL     1      -2.275 -11.100  11.913  0.00  0.00    -0.312 N 
ATOM     19  C   UNL     1      -1.956 -11.030  13.268  0.00  0.00    +0.239 C 
ATOM     32  H   UNL     1      -2.437 -12.011  11.494  0.00  0.00    +0.149 HD
BRANCH  19  21
ATOM     21  C   UNL     1      -1.908 -12.397  13.915  0.00  0.00    +0.255 C 
BRANCH  21   2
ATOM      2  O   UNL     1      -3.009 -12.579  14.778  0.00  0.00    -0.374 OA
ATOM     29  C   UNL     1      -4.038 -13.356  14.172  0.00  0.00    +0.194 C 
ENDBRANCH  21   2
ENDBRANCH  19  21
ENDBRANCH  15   5
ENDBRANCH   9  15
TORSDOF 6
ENDMDL
MODEL 6
REMARK VINA RESULT:      -6.7     24.111     26.290
REMARK  Name = 40779449
REMARK  8 active torsions:
REMARK  status: ('A' for Active; 'I' for Inactive)
REMARK    1  A    between atoms: O_2  and  C_21
REMARK    2  A    between atoms: O_2  and  C_29
REMARK    3  A    between atoms: N_4  and  C_18
REMARK    4  A    between atoms: N_5  and  C_15
REMARK    5  A    between atoms: C_8  and  C_14
REMARK    6  A    between atoms: C_9  and  C_15
REMARK    7  A    between atoms: C_17  and  C_20
REMARK    8  A    between atoms: C_19  and  C_21
REMARK                            x       y       z     vdW  Elec       q    Type
REMARK                         _______ _______ _______ _____ _____    ______ ____
ROOT
ATOM      3  N   UNL     1      10.444   5.989   7.646  0.00  0.00    -0.297 NA
ATOM      7  C   UNL     1       9.481   7.783   6.022  0.00  0.00    +0.002 C 
ATOM      8  C   UNL     1       9.322   6.361   5.417  0.00  0.00    +0.055 C 
ATOM      9  C   UNL     1      11.435   7.079   7.447  0.00  0.00    +0.074 C 
ATOM     10  C   UNL     1      10.970   8.042   6.334  0.00  0.00    +0.024 C 
ATOM     11  C   UNL     1       8.729   7.780   7.371  0.00  0.00    +0.019 C 
ATOM     12  C   UNL     1      10.094   5.375   6.341  0.00  0.00    +0.094 C 
ATOM     13  C   UNL     1       9.215   6.591   8.218  0.00  0.00    +0.085 C 
ENDROOT
BRANCH   8  14
ATOM      4  N   UNL     1       9.264   7.024   2.968  0.00  0.00    -0.270 N 
ATOM      6  N   UNL     1       9.667   6.670   1.736  0.00  0.00    -0.171 NA
ATOM     14  C   UNL     1       9.664   6.163   3.947  0.00  0.00    +0.044 A 
ATOM     16  C   UNL     1      10.378   5.177   3.311  0.00  0.00    +0.053 A 
ATOM     17  C   UNL     1      10.347   5.541   1.952  0.00  0.00    +0.093 A 
ATOM     18  C   UNL     1       8.478   8.224   3.136  0.00  0.00    +0.172 C 
BRANCH  17  20
ATOM     20  C   UNL     1      10.954   4.831   0.857  0.00  0.00    +0.003 A 
ATOM     22  C   UNL     1      10.355   4.851  -0.404  0.00  0.00    +0.018 A 
ATOM     23  C   UNL     1      12.138   4.127   1.053  0.00  0.00    +0.011 A 
ATOM     24  C   UNL     1      10.934   4.164  -1.483  0.00  0.00    -0.017 A 
ATOM     25  C   UNL     1      12.727   3.440  -0.007  0.00  0.00    +0.009 A 
ATOM     26  C   UNL     1      12.137   3.447  -1.283  0.00  0.00    -0.018 A 
ATOM     27  C   UNL     1      10.344   4.172  -2.758  0.00  0.00    +0.008 A 
ATOM     28  C   UNL     1      12.717   2.762  -2.362  0.00  0.00    +0.008 A 
ATOM     30  C   UNL     1      10.933   3.485  -3.819  0.00  0.00    +0.001 A 
ATOM     31  C   UNL     1      12.117   2.781  -3.621  0.00  0.00    +0.001 A 
ENDBRANCH  17  20
ENDBRANCH   8  14
BRANCH   9  15
ATOM     15  C   UNL     1      12.845   6.544   7.187  0.00  0.00    +0.123 C 
BRANCH  15   5
ATOM      1  O   UNL     1      15.437   7.652   6.540  0.00  0.00    -0.273 OA
ATOM      5  N   UNL     1      13.314   6.948   5.897  0.00  0.00    -0.312 N 
ATOM     19  C   UNL     1      14.585   7.476   5.674  0.00  0.00    +0.239 C 
ATOM     32  H   UNL     1      12.681   6.845   5.108  0.00  0.00    +0.149 HD
BRANCH  19  21
ATOM     21  C   UNL     1      14.815   7.816   4.217  0.00  0.00    +0.255 C 
BRANCH  21   2
ATOM      2  O   UNL     1      15.334   6.703   3.522  0.00  0.00    -0.374 OA
ATOM     29  C   UNL     1      14.598   6.429   2.333  0.00  0.00    +0.194 C 
ENDBRANCH  21   2
ENDBRANCH  19  21
ENDBRANCH  15   5
ENDBRANCH   9  15
TORSDOF 6
ENDMDL
MODEL 7
REMARK VINA RESULT:      -6.6     27.358     30.359
REMARK  Name = 40779449
REMARK  8 active torsions:
REMARK  status: ('A' for Active; 'I' for Inactive)
REMARK    1  A    between atoms: O_2  and  C_21
REMARK    2  A    between atoms: O_2  and  C_29
REMARK    3  A    between atoms: N_4  and  C_18
REMARK    4  A    between atoms: N_5  and  C_15
REMARK    5  A    between atoms: C_8  and  C_14
REMARK    6  A    between atoms: C_9  and  C_15
REMARK    7  A    between atoms: C_17  and  C_20
REMARK    8  A    between atoms: C_19  and  C_21
REMARK                            x       y       z     vdW  Elec       q    Type
REMARK                         _______ _______ _______ _____ _____    ______ ____
ROOT
ATOM      3  N   UNL     1      12.801  12.722  21.135  0.00  0.00    -0.297 NA
ATOM      7  C   UNL     1      13.612  11.463  23.267  0.00  0.00    +0.002 C 
ATOM      8  C   UNL     1      14.824  12.009  22.463  0.00  0.00    +0.055 C 
ATOM      9  C   UNL     1      12.147  11.389  21.220  0.00  0.00    +0.074 C 
ATOM     10  C   UNL     1      12.766  10.548  22.356  0.00  0.00    +0.024 C 
ATOM     11  C   UNL     1      12.734  12.680  23.629  0.00  0.00    +0.019 C 
ATOM     12  C   UNL     1      14.277  12.563  21.117  0.00  0.00    +0.094 C 
ATOM     13  C   UNL     1      12.433  13.485  22.353  0.00  0.00    +0.085 C 
ENDROOT
BRANCH   8  14
ATOM      4  N   UNL     1      17.296  11.453  22.609  0.00  0.00    -0.270 N 
ATOM      6  N   UNL     1      18.215  10.505  22.353  0.00  0.00    -0.171 NA
ATOM     14  C   UNL     1      16.026  11.095  22.266  0.00  0.00    +0.044 A 
ATOM     16  C   UNL     1      16.119   9.825  21.750  0.00  0.00    +0.053 A 
ATOM     17  C   UNL     1      17.489   9.513  21.828  0.00  0.00    +0.093 A 
ATOM     18  C   UNL     1      17.718  12.705  23.191  0.00  0.00    +0.172 C 
BRANCH  17  20
ATOM     20  C   UNL     1      18.118   8.288  21.411  0.00  0.00    +0.003 A 
ATOM     22  C   UNL     1      19.354   7.921  21.947  0.00  0.00    +0.018 A 
ATOM     23  C   UNL     1      17.495   7.468  20.475  0.00  0.00    +0.011 A 
ATOM     24  C   UNL     1      19.981   6.729  21.552  0.00  0.00    -0.017 A 
ATOM     25  C   UNL     1      18.103   6.281  20.070  0.00  0.00    +0.009 A 
ATOM     26  C   UNL     1      19.347   5.896  20.599  0.00  0.00    -0.018 A 
ATOM     27  C   UNL     1      21.224   6.344  22.080  0.00  0.00    +0.008 A 
ATOM     28  C   UNL     1      19.974   4.703  20.204  0.00  0.00    +0.008 A 
ATOM     30  C   UNL     1      21.833   5.156  21.676  0.00  0.00    +0.001 A 
ATOM     31  C   UNL     1      21.209   4.337  20.739  0.00  0.00    +0.001 A 
ENDBRANCH  17  20
ENDBRANCH   8  14
BRANCH   9  15
ATOM     15  C   UNL     1      12.169  10.644  19.882  0.00  0.00    +0.123 C 
BRANCH  15   5
ATOM      1  O   UNL     1      11.021   8.300  18.637  0.00  0.00    -0.273 OA
ATOM      5  N   UNL     1      12.575   9.285  20.062  0.00  0.00    -0.312 N 
ATOM     19  C   UNL     1      11.963   8.210  19.420  0.00  0.00    +0.239 C 
ATOM     32  H   UNL     1      13.349   9.100  20.695  0.00  0.00    +0.149 HD
BRANCH  19  21
ATOM     21  C   UNL     1      12.595   6.886  19.792  0.00  0.00    +0.255 C 
BRANCH  21   2
ATOM      2  O   UNL     1      11.611   5.961  20.201  0.00  0.00    -0.374 OA
ATOM     29  C   UNL     1      11.197   6.185  21.545  0.00  0.00    +0.194 C 
ENDBRANCH  21   2
ENDBRANCH  19  21
ENDBRANCH  15   5
ENDBRANCH   9  15
TORSDOF 6
ENDMDL
MODEL 8
REMARK VINA RESULT:      -6.6      3.136      8.440
REMARK  Name = 40779449
REMARK  8 active torsions:
REMARK  status: ('A' for Active; 'I' for Inactive)
REMARK    1  A    between atoms: O_2  and  C_21
REMARK    2  A    between atoms: O_2  and  C_29
REMARK    3  A    between atoms: N_4  and  C_18
REMARK    4  A    between atoms: N_5  and  C_15
REMARK    5  A    between atoms: C_8  and  C_14
REMARK    6  A    between atoms: C_9  and  C_15
REMARK    7  A    between atoms: C_17  and  C_20
REMARK    8  A    between atoms: C_19  and  C_21
REMARK                            x       y       z     vdW  Elec       q    Type
REMARK                         _______ _______ _______ _____ _____    ______ ____
ROOT
ATOM      3  N   UNL     1      -5.488 -12.426  17.230  0.00  0.00    -0.297 NA
ATOM      7  C   UNL     1      -5.996 -10.452  18.852  0.00  0.00    +0.002 C 
ATOM      8  C   UNL     1      -7.298 -11.234  18.521  0.00  0.00    +0.055 C 
ATOM      9  C   UNL     1      -4.888 -11.171  16.706  0.00  0.00    +0.074 C 
ATOM     10  C   UNL     1      -5.351  -9.957  17.540  0.00  0.00    +0.024 C 
ATOM     11  C   UNL     1      -5.017 -11.466  19.484  0.00  0.00    +0.019 C 
ATOM     12  C   UNL     1      -6.952 -12.258  17.402  0.00  0.00    +0.094 C 
ATOM     13  C   UNL     1      -4.893 -12.692  18.562  0.00  0.00    +0.085 C 
ENDROOT
BRANCH   8  14
ATOM      4  N   UNL     1      -9.695 -10.519  18.948  0.00  0.00    -0.270 N 
ATOM      6  N   UNL     1     -10.692  -9.734  18.503  0.00  0.00    -0.171 NA
ATOM     14  C   UNL     1      -8.554 -10.435  18.205  0.00  0.00    +0.044 A 
ATOM     16  C   UNL     1      -8.823  -9.533  17.205  0.00  0.00    +0.053 A 
ATOM     17  C   UNL     1     -10.153  -9.134  17.438  0.00  0.00    +0.093 A 
ATOM     18  C   UNL     1      -9.913 -11.343  20.114  0.00  0.00    +0.172 C 
BRANCH  17  20
ATOM     20  C   UNL     1     -10.918  -8.194  16.663  0.00  0.00    +0.003 A 
ATOM     22  C   UNL     1     -12.274  -8.425  16.425  0.00  0.00    +0.018 A 
ATOM     23  C   UNL     1     -10.307  -7.052  16.152  0.00  0.00    +0.011 A 
ATOM     24  C   UNL     1     -13.035  -7.517  15.672  0.00  0.00    -0.017 A 
ATOM     25  C   UNL     1     -11.048  -6.139  15.402  0.00  0.00    +0.009 A 
ATOM     26  C   UNL     1     -12.413  -6.357  15.152  0.00  0.00    -0.018 A 
ATOM     27  C   UNL     1     -14.400  -7.735  15.422  0.00  0.00    +0.008 A 
ATOM     28  C   UNL     1     -13.175  -5.449  14.399  0.00  0.00    +0.008 A 
ATOM     30  C   UNL     1     -15.141  -6.822  14.672  0.00  0.00    +0.001 A 
ATOM     31  C   UNL     1     -14.529  -5.681  14.161  0.00  0.00    +0.001 A 
ENDBRANCH  17  20
ENDBRANCH   8  14
BRANCH   9  15
ATOM     15  C   UNL     1      -5.161 -10.974  15.213  0.00  0.00    +0.123 C 
BRANCH  15   5
ATOM      1  O   UNL     1      -2.911 -12.440  14.138  0.00  0.00    -0.273 OA
ATOM      5  N   UNL     1      -4.014 -10.432  14.552  0.00  0.00    -0.312 N 
ATOM     19  C   UNL     1      -2.970 -11.215  14.063  0.00  0.00    +0.239 C 
ATOM     32  H   UNL     1      -3.963  -9.423  14.440  0.00  0.00    +0.149 HD
BRANCH  19  21
ATOM     21  C   UNL     1      -1.888 -10.382  13.410  0.00  0.00    +0.255 C 
BRANCH  21   2
ATOM      2  O   UNL     1      -1.677 -10.794  12.077  0.00  0.00    -0.374 OA
ATOM     29  C   UNL     1      -2.692 -10.307  11.203  0.00  0.00    +0.194 C 
ENDBRANCH  21   2
ENDBRANCH  19  21
ENDBRANCH  15   5
ENDBRANCH   9  15
TORSDOF 6
ENDMDL
MODEL 9
REMARK VINA RESULT:      -6.6     27.548     29.669
REMARK  Name = 40779449
REMARK  8 active torsions:
REMARK  status: ('A' for Active; 'I' for Inactive)
REMARK    1  A    between atoms: O_2  and  C_21
REMARK    2  A    between atoms: O_2  and  C_29
REMARK    3  A    between atoms: N_4  and  C_18
REMARK    4  A    between atoms: N_5  and  C_15
REMARK    5  A    between atoms: C_8  and  C_14
REMARK    6  A    between atoms: C_9  and  C_15
REMARK    7  A    between atoms: C_17  and  C_20
REMARK    8  A    between atoms: C_19  and  C_21
REMARK                            x       y       z     vdW  Elec       q    Type
REMARK                         _______ _______ _______ _____ _____    ______ ____
ROOT
ATOM      3  N   UNL     1      15.356  -6.702  -6.040  0.00  0.00    -0.297 NA
ATOM      7  C   UNL     1      14.515  -5.809  -3.741  0.00  0.00    +0.002 C 
ATOM      8  C   UNL     1      15.868  -5.147  -4.120  0.00  0.00    +0.055 C 
ATOM      9  C   UNL     1      14.986  -7.839  -5.156  0.00  0.00    +0.074 C 
ATOM     10  C   UNL     1      14.684  -7.343  -3.726  0.00  0.00    +0.024 C 
ATOM     11  C   UNL     1      13.522  -5.474  -4.875  0.00  0.00    +0.019 C 
ATOM     12  C   UNL     1      16.400  -5.871  -5.390  0.00  0.00    +0.094 C 
ATOM     13  C   UNL     1      14.148  -5.862  -6.227  0.00  0.00    +0.085 C 
ENDROOT
BRANCH   8  14
ATOM      4  N   UNL     1      17.296  -3.823  -2.492  0.00  0.00    -0.270 N 
ATOM      6  N   UNL     1      18.254  -3.925  -1.555  0.00  0.00    -0.171 NA
ATOM     14  C   UNL     1      16.933  -5.018  -3.040  0.00  0.00    +0.044 A 
ATOM     16  C   UNL     1      17.707  -5.968  -2.417  0.00  0.00    +0.053 A 
ATOM     17  C   UNL     1      18.501  -5.237  -1.514  0.00  0.00    +0.093 A 
ATOM     18  C   UNL     1      16.767  -2.521  -2.822  0.00  0.00    +0.172 C 
BRANCH  17  20
ATOM     20  C   UNL     1      19.490  -5.767  -0.614  0.00  0.00    +0.003 A 
ATOM     22  C   UNL     1      20.000  -4.969   0.412  0.00  0.00    +0.018 A 
ATOM     23  C   UNL     1      19.938  -7.077  -0.764  0.00  0.00    +0.011 A 
ATOM     24  C   UNL     1      20.966  -5.471   1.299  0.00  0.00    -0.017 A 
ATOM     25  C   UNL     1      20.897  -7.592   0.108  0.00  0.00    +0.009 A 
ATOM     26  C   UNL     1      21.422  -6.802   1.145  0.00  0.00    -0.018 A 
ATOM     27  C   UNL     1      21.490  -4.682   2.335  0.00  0.00    +0.008 A 
ATOM     28  C   UNL     1      22.386  -7.305   2.033  0.00  0.00    +0.008 A 
ATOM     30  C   UNL     1      22.448  -5.197   3.208  0.00  0.00    +0.001 A 
ATOM     31  C   UNL     1      22.896  -6.506   3.056  0.00  0.00    +0.001 A 
ENDBRANCH  17  20
ENDBRANCH   8  14
BRANCH   9  15
ATOM     15  C   UNL     1      16.041  -8.949  -5.165  0.00  0.00    +0.123 C 
BRANCH  15   5
ATOM      1  O   UNL     1      18.715  -9.680  -4.341  0.00  0.00    -0.273 OA
ATOM      5  N   UNL     1      16.486  -9.239  -3.836  0.00  0.00    -0.312 N 
ATOM     19  C   UNL     1      17.800  -9.585  -3.527  0.00  0.00    +0.239 C 
ATOM     32  H   UNL     1      15.803  -9.191  -3.086  0.00  0.00    +0.149 HD
BRANCH  19  21
ATOM     21  C   UNL     1      17.992  -9.837  -2.047  0.00  0.00    +0.255 C 
BRANCH  21   2
ATOM      2  O   UNL     1      18.275 -11.198  -1.805  0.00  0.00    -0.374 OA
ATOM     29  C   UNL     1      17.502 -11.719  -0.727  0.00  0.00    +0.194 C 
ENDBRANCH  21   2
ENDBRANCH  19  21
ENDBRANCH  15   5
ENDBRANCH   9  15
TORSDOF 6
ENDMDL
MODEL 10
REMARK VINA RESULT:      -6.6      1.925      2.574
REMARK  Name = 40779449
REMARK  8 active torsions:
REMARK  status: ('A' for Active; 'I' for Inactive)
REMARK    1  A    between atoms: O_2  and  C_21
REMARK    2  A    between atoms: O_2  and  C_29
REMARK    3  A    between atoms: N_4  and  C_18
REMARK    4  A    between atoms: N_5  and  C_15
REMARK    5  A    between atoms: C_8  and  C_14
REMARK    6  A    between atoms: C_9  and  C_15
REMARK    7  A    between atoms: C_17  and  C_20
REMARK    8  A    between atoms: C_19  and  C_21
REMARK                            x       y       z     vdW  Elec       q    Type
REMARK                         _______ _______ _______ _____ _____    ______ ____
ROOT
ATOM      3  N   UNL     1      -6.512 -10.676  18.044  0.00  0.00    -0.297 NA
ATOM      7  C   UNL     1      -4.398 -12.065  17.421  0.00  0.00    +0.002 C 
ATOM      8  C   UNL     1      -4.366 -10.680  16.717  0.00  0.00    +0.055 C 
ATOM      9  C   UNL     1      -6.910 -12.038  17.602  0.00  0.00    +0.074 C 
ATOM     10  C   UNL     1      -5.697 -12.804  17.035  0.00  0.00    +0.024 C 
ATOM     11  C   UNL     1      -4.467 -11.790  18.939  0.00  0.00    +0.019 C 
ATOM     12  C   UNL     1      -5.741  -9.998  16.971  0.00  0.00    +0.094 C 
ATOM     13  C   UNL     1      -5.628 -10.822  19.226  0.00  0.00    +0.085 C 
ENDROOT
BRANCH   8  14
ATOM      4  N   UNL     1      -2.658 -10.614  14.841  0.00  0.00    -0.270 N 
ATOM      6  N   UNL     1      -2.510 -10.566  13.506  0.00  0.00    -0.171 NA
ATOM     14  C   UNL     1      -3.958 -10.629  15.251  0.00  0.00    +0.044 A 
ATOM     16  C   UNL     1      -4.714 -10.588  14.104  0.00  0.00    +0.053 A 
ATOM     17  C   UNL     1      -3.770 -10.550  13.061  0.00  0.00    +0.093 A 
ATOM     18  C   UNL     1      -1.483 -10.640  15.680  0.00  0.00    +0.172 C 
BRANCH  17  20
ATOM     20  C   UNL     1      -4.048 -10.498  11.650  0.00  0.00    +0.003 A 
ATOM     22  C   UNL     1      -3.946 -11.655  10.876  0.00  0.00    +0.018 A 
ATOM     23  C   UNL     1      -4.419  -9.295  11.057  0.00  0.00    +0.011 A 
ATOM     24  C   UNL     1      -4.213 -11.622   9.498  0.00  0.00    -0.017 A 
ATOM     25  C   UNL     1      -4.689  -9.243   9.690  0.00  0.00    +0.009 A 
ATOM     26  C   UNL     1      -4.590 -10.398   8.896  0.00  0.00    -0.018 A 
ATOM     27  C   UNL     1      -4.115 -12.776   8.704  0.00  0.00    +0.008 A 
ATOM     28  C   UNL     1      -4.858 -10.365   7.518  0.00  0.00    +0.008 A 
ATOM     30  C   UNL     1      -4.385 -12.725   7.337  0.00  0.00    +0.001 A 
ATOM     31  C   UNL     1      -4.755 -11.521   6.745  0.00  0.00    +0.001 A 
ENDBRANCH  17  20
ENDBRANCH   8  14
BRANCH   9  15
ATOM     15  C   UNL     1      -8.080 -12.011  16.616  0.00  0.00    +0.123 C 
BRANCH  15   5
ATOM      1  O   UNL     1      -8.496 -10.843  14.002  0.00  0.00    -0.273 OA
ATOM      5  N   UNL     1      -7.695 -12.562  15.353  0.00  0.00    -0.312 N 
ATOM     19  C   UNL     1      -7.936 -11.928  14.135  0.00  0.00    +0.239 C 
ATOM     32  H   UNL     1      -7.224 -13.462  15.351  0.00  0.00    +0.149 HD
BRANCH  19  21
ATOM     21  C   UNL     1      -7.422 -12.733  12.960  0.00  0.00    +0.255 C 
BRANCH  21   2
ATOM      2  O   UNL     1      -8.306 -12.638  11.865  0.00  0.00    -0.374 OA
ATOM     29  C   UNL     1      -7.677 -12.065  10.722  0.00  0.00    +0.194 C 
ENDBRANCH  21   2
ENDBRANCH  19  21
ENDBRANCH  15   5
ENDBRANCH   9  15
TORSDOF 6
ENDMDL
