REMARK  Name = 75536711
REMARK  10 active torsions:
REMARK  status: ('A' for Active; 'I' for Inactive)
REMARK    1  A    between atoms: S_1  and  N_8
REMARK    2  A    between atoms: S_1  and  C_16
REMARK    3  A    between atoms: O_3  and  C_10
REMARK    4  A    between atoms: O_6  and  C_17
REMARK    5  A    between atoms: N_7  and  C_9
REMARK    6  A    between atoms: N_7  and  C_14
REMARK    7  A    between atoms: N_8  and  C_13
REMARK    8  A    between atoms: C_11  and  C_13
REMARK    9  A    between atoms: C_14  and  C_15
REMARK   10  A    between atoms: C_25  and  C_27
REMARK                            x       y       z     vdW  Elec       q    Type
REMARK                         _______ _______ _______ _____ _____    ______ ____
ROOT
ATOM      2  O   UNL     1      -1.159   2.561   1.335  0.00  0.00    -0.371 OA
ATOM      9  C   UNL     1       0.756   3.190   0.094  0.00  0.00    +0.111 C 
ATOM     10  C   UNL     1      -0.464   3.433  -0.776  0.00  0.00    +0.164 C 
ATOM     11  C   UNL     1      -1.625   2.806  -0.006  0.00  0.00    +0.164 C 
ATOM     12  C   UNL     1       0.143   3.139   1.484  0.00  0.00    +0.181 C 
ENDROOT
BRANCH  10   3
ATOM      3  O   UNL     1      -0.666   4.846  -0.857  0.00  0.00    -0.388 OA
ATOM     29  H   UNL     1      -1.466   4.994  -1.390  0.00  0.00    +0.210 HD
ENDBRANCH  10   3
BRANCH   9   7
ATOM      7  N   UNL     1       1.407   1.922  -0.231  0.00  0.00    -0.305 NA
ATOM     28  H   UNL     1       1.521   1.855  -1.243  0.00  0.00    +0.123 HD
BRANCH   7  14
ATOM     14  C   UNL     1       2.720   1.830   0.395  0.00  0.00    +0.120 C 
BRANCH  14  15
ATOM     15  C   UNL     1       3.399   0.522   0.084  0.00  0.00    +0.008 A 
ATOM     17  C   UNL     1       3.012  -0.653   0.729  0.00  0.00    +0.121 A 
ATOM     18  C   UNL     1       4.425   0.494  -0.861  0.00  0.00    +0.008 A 
ATOM     21  C   UNL     1       3.651  -1.856   0.429  0.00  0.00    +0.046 A 
ATOM     22  C   UNL     1       5.064  -0.709  -1.161  0.00  0.00    +0.001 A 
ATOM     26  C   UNL     1       4.677  -1.884  -0.516  0.00  0.00    +0.004 A 
BRANCH  17   6
ATOM      6  O   UNL     1       2.011  -0.643   1.653  0.00  0.00    -0.506 OA
ATOM     31  H   UNL     1       1.872  -1.548   1.980  0.00  0.00    +0.292 HD
ENDBRANCH  17   6
ENDBRANCH  14  15
ENDBRANCH   7  14
ENDBRANCH   9   7
BRANCH  11  13
ATOM     13  C   UNL     1      -2.103   1.487  -0.594  0.00  0.00    +0.140 C 
BRANCH  13   8
ATOM      8  N   UNL     1      -3.220   0.960   0.214  0.00  0.00    -0.187 NA
ATOM     30  H   UNL     1      -3.165   1.168   1.219  0.00  0.00    +0.148 HD
BRANCH   8   1
ATOM      1  S   UNL     1      -3.974  -0.501  -0.224  0.00  0.00    +0.058 S 
ATOM      4  O   UNL     1      -4.409  -0.421  -1.606  0.00  0.00    -0.153 OA
ATOM      5  O   UNL     1      -4.912  -0.878   0.815  0.00  0.00    -0.153 OA
BRANCH   1  16
ATOM     16  C   UNL     1      -2.627  -1.642  -0.142  0.00  0.00    +0.105 A 
ATOM     19  C   UNL     1      -2.350  -2.309   1.051  0.00  0.00    +0.029 A 
ATOM     20  C   UNL     1      -1.839  -1.873  -1.270  0.00  0.00    +0.029 A 
ATOM     23  C   UNL     1      -1.285  -3.208   1.117  0.00  0.00    +0.005 A 
ATOM     24  C   UNL     1      -0.774  -2.772  -1.204  0.00  0.00    +0.005 A 
ATOM     25  C   UNL     1      -0.497  -3.439  -0.010  0.00  0.00    -0.050 A 
ATOM     27  C   UNL     1       0.641  -4.400   0.060  0.00  0.00    +0.044 C 
ENDBRANCH   1  16
ENDBRANCH   8   1
ENDBRANCH  13   8
ENDBRANCH  11  13
TORSDOF 9
