REMARK  Name = 11882862
REMARK  10 active torsions:
REMARK  status: ('A' for Active; 'I' for Inactive)
REMARK    1  A    between atoms: O_3  and  C_15
REMARK    2  A    between atoms: O_4  and  C_20
REMARK    3  A    between atoms: N_8  and  C_26
REMARK    4  A    between atoms: C_10  and  C_18
REMARK    5  A    between atoms: C_12  and  C_20
REMARK    6  A    between atoms: C_12  and  C_21
REMARK    7  A    between atoms: C_13  and  C_23
REMARK    8  A    between atoms: C_23  and  C_24
REMARK    9  A    between atoms: C_26  and  C_28
REMARK   10  A    between atoms: C_27  and  C_29
REMARK                            x       y       z     vdW  Elec       q    Type
REMARK                         _______ _______ _______ _____ _____    ______ ____
ROOT
ATOM      1  S   UNL     1      -0.684   3.027   0.419  0.00  0.00    -0.057 S 
ATOM      6  O   UNL     1       2.970   0.272  -0.433  0.00  0.00    -0.270 OA
ATOM      7  N   UNL     1       0.045   0.613  -0.161  0.00  0.00    -0.229 NA
ATOM      9  N   UNL     1       1.797   2.250   0.084  0.00  0.00    -0.261 N 
ATOM     10  C   UNL     1      -3.634  -0.461   0.261  0.00  0.00    -0.019 C 
ATOM     11  C   UNL     1      -4.185   0.954  -0.220  0.00  0.00    +0.011 C 
ATOM     12  C   UNL     1      -5.744   1.178  -0.145  0.00  0.00    +0.021 C 
ATOM     13  C   UNL     1      -2.147  -0.628  -0.300  0.00  0.00    +0.054 C 
ATOM     14  C   UNL     1      -4.513  -1.588  -0.343  0.00  0.00    +0.010 C 
ATOM     15  C   UNL     1      -6.469  -0.059  -0.747  0.00  0.00    +0.123 C 
ATOM     16  C   UNL     1      -3.353   2.123   0.385  0.00  0.00    +0.049 C 
ATOM     17  C   UNL     1      -6.007  -1.379  -0.141  0.00  0.00    +0.032 C 
ATOM     18  C   UNL     1      -3.624  -0.611   1.802  0.00  0.00    +0.012 C 
ATOM     19  C   UNL     1      -1.334   0.618  -0.057  0.00  0.00    +0.058 A 
ATOM     21  C   UNL     1      -6.122   2.407  -1.020  0.00  0.00    +0.016 C 
ATOM     22  C   UNL     1      -1.896   1.845   0.231  0.00  0.00    +0.015 A 
ATOM     25  C   UNL     1       0.495   1.826   0.077  0.00  0.00    +0.165 A 
ATOM     27  C   UNL     1       2.937   1.468  -0.166  0.00  0.00    +0.250 C 
ATOM     43  H   UNL     1       1.899   3.246   0.253  0.00  0.00    +0.157 HD
ENDROOT
BRANCH  27  29
ATOM      2  F   UNL     1       7.826   4.227  -0.009  0.00  0.00    -0.205 F 
ATOM     29  C   UNL     1       4.231   2.198  -0.124  0.00  0.00    +0.037 A 
ATOM     32  C   UNL     1       5.318   1.736  -0.867  0.00  0.00    +0.016 A 
ATOM     33  C   UNL     1       4.360   3.346   0.658  0.00  0.00    +0.016 A 
ATOM     37  C   UNL     1       6.532   2.421  -0.828  0.00  0.00    +0.039 A 
ATOM     38  C   UNL     1       5.574   4.032   0.697  0.00  0.00    +0.039 A 
ATOM     39  C   UNL     1       6.660   3.569  -0.046  0.00  0.00    +0.123 A 
ENDBRANCH  27  29
BRANCH  15   3
ATOM      3  O   UNL     1      -7.882   0.055  -0.578  0.00  0.00    -0.391 OA
ATOM     40  H   UNL     1      -8.293  -0.714  -1.008  0.00  0.00    +0.210 HD
ENDBRANCH  15   3
BRANCH  12  20
ATOM     20  C   UNL     1      -6.279   1.496   1.269  0.00  0.00    +0.165 C 
BRANCH  20   4
ATOM      4  O   UNL     1      -7.673   1.680   1.172  0.00  0.00    -0.394 OA
ATOM     41  H   UNL     1      -8.001   1.889   2.063  0.00  0.00    +0.209 HD
ENDBRANCH  20   4
ENDBRANCH  12  20
BRANCH  13  23
ATOM     23  C   UNL     1      -1.415  -1.882   0.197  0.00  0.00    +0.106 C 
BRANCH  23  24
ATOM      5  O   UNL     1      -0.118  -1.780  -1.843  0.00  0.00    -0.276 OA
ATOM      8  N   UNL     1       0.301  -3.468  -0.301  0.00  0.00    -0.311 N 
ATOM     24  C   UNL     1      -0.354  -2.341  -0.776  0.00  0.00    +0.214 C 
ATOM     42  H   UNL     1       0.016  -3.868   0.588  0.00  0.00    +0.149 HD
BRANCH   8  26
ATOM     26  C   UNL     1       1.363  -4.128  -1.025  0.00  0.00    +0.139 C 
BRANCH  26  28
ATOM     28  C   UNL     1       2.646  -4.149  -0.245  0.00  0.00    -0.030 A 
ATOM     30  C   UNL     1       3.560  -3.104  -0.378  0.00  0.00    +0.005 A 
ATOM     31  C   UNL     1       2.923  -5.214   0.612  0.00  0.00    +0.005 A 
ATOM     34  C   UNL     1       4.752  -3.124   0.347  0.00  0.00    +0.000 A 
ATOM     35  C   UNL     1       4.115  -5.234   1.337  0.00  0.00    +0.000 A 
ATOM     36  C   UNL     1       5.029  -4.189   1.204  0.00  0.00    +0.000 A 
ENDBRANCH  26  28
ENDBRANCH   8  26
ENDBRANCH  23  24
ENDBRANCH  13  23
TORSDOF 8
