REMARK  Name = 51136915
REMARK  4 active torsions:
REMARK  status: ('A' for Active; 'I' for Inactive)
REMARK    1  A    between atoms: N_3  and  C_9
REMARK    2  A    between atoms: C_10  and  C_18
REMARK    3  A    between atoms: C_19  and  C_20
REMARK    4  A    between atoms: C_24  and  C_25
REMARK                            x       y       z     vdW  Elec       q    Type
REMARK                         _______ _______ _______ _____ _____    ______ ____
ROOT
ATOM      2  O   UNL     1      -1.934  -2.099   1.567  0.00  0.00    -0.336 OA
ATOM      4  N   UNL     1      -1.238  -0.886  -0.182  0.00  0.00    -0.190 NA
ATOM      5  N   UNL     1      -0.550  -1.948   1.724  0.00  0.00    -0.056 NA
ATOM     18  C   UNL     1      -2.257  -1.445   0.421  0.00  0.00    +0.245 A 
ATOM     19  C   UNL     1      -0.213  -1.221   0.654  0.00  0.00    +0.204 A 
ENDROOT
BRANCH  19  20
ATOM      6  N   UNL     1       3.461  -0.813   1.059  0.00  0.00    -0.254 NA
ATOM     20  C   UNL     1       1.137  -0.815   0.391  0.00  0.00    +0.041 A 
ATOM     21  C   UNL     1       1.452  -0.061  -0.734  0.00  0.00    +0.015 A 
ATOM     22  C   UNL     1       2.168  -1.163   1.248  0.00  0.00    +0.123 A 
ATOM     23  C   UNL     1       2.770   0.318  -0.963  0.00  0.00    +0.029 A 
ATOM     24  C   UNL     1       3.728  -0.079  -0.045  0.00  0.00    +0.074 A 
BRANCH  24  25
ATOM      7  N   UNL     1       6.788   1.800  -1.041  0.00  0.00    -0.243 NA
ATOM      8  N   UNL     1       7.451  -0.221   0.092  0.00  0.00    -0.243 NA
ATOM     25  C   UNL     1       5.116   0.277  -0.219  0.00  0.00    +0.037 A 
ATOM     26  C   UNL     1       5.502   1.437  -0.858  0.00  0.00    +0.124 A 
ATOM     27  C   UNL     1       6.144  -0.522   0.240  0.00  0.00    +0.124 A 
ATOM     28  C   UNL     1       7.698   0.938  -0.548  0.00  0.00    +0.221 A 
ENDBRANCH  24  25
ENDBRANCH  19  20
BRANCH  18  10
ATOM      3  N   UNL     1      -4.100  -0.282  -0.780  0.00  0.00    -0.288 NA
ATOM     10  C   UNL     1      -3.718  -1.460   0.025  0.00  0.00    +0.146 C 
ATOM     11  C   UNL     1      -5.196  -0.713  -1.649  0.00  0.00    +0.085 C 
ATOM     12  C   UNL     1      -4.083  -2.670  -0.855  0.00  0.00    +0.030 C 
ATOM     13  C   UNL     1      -4.717  -2.077  -2.105  0.00  0.00    +0.017 C 
BRANCH   3   9
ATOM      1  O   UNL     1      -3.985   3.617   0.772  0.00  0.00    -0.380 OA
ATOM      9  C   UNL     1      -4.465   0.876   0.031  0.00  0.00    +0.062 C 
ATOM     14  C   UNL     1      -4.896   2.053  -0.850  0.00  0.00    +0.047 C 
ATOM     15  C   UNL     1      -3.291   1.292   0.923  0.00  0.00    +0.047 C 
ATOM     16  C   UNL     1      -5.144   3.292   0.004  0.00  0.00    +0.161 C 
ATOM     17  C   UNL     1      -3.627   2.573   1.678  0.00  0.00    +0.161 C 
ENDBRANCH   3   9
ENDBRANCH  18  10
TORSDOF 4
