REMARK  Name = 71693411
REMARK  8 active torsions:
REMARK  status: ('A' for Active; 'I' for Inactive)
REMARK    1  A    between atoms: O_2  and  C_12
REMARK    2  A    between atoms: N_6  and  C_14
REMARK    3  A    between atoms: N_7  and  C_22
REMARK    4  A    between atoms: C_10  and  C_12
REMARK    5  A    between atoms: C_11  and  C_13
REMARK    6  A    between atoms: C_14  and  C_17
REMARK    7  A    between atoms: C_27  and  C_28
REMARK    8  A    between atoms: C_30  and  C_31
REMARK                            x       y       z     vdW  Elec       q    Type
REMARK                         _______ _______ _______ _____ _____    ______ ____
ROOT
ATOM      1  O   UNL     1       2.881  -1.827  -1.707  0.00  0.00    -0.361 OA
ATOM      3  O   UNL     1       5.260   0.632  -1.780  0.00  0.00    -0.273 OA
ATOM      6  N   UNL     1       4.022  -0.114   0.053  0.00  0.00    -0.287 N 
ATOM     10  C   UNL     1       3.363  -1.264   0.681  0.00  0.00    +0.135 C 
ATOM     11  C   UNL     1       2.533  -2.084  -0.342  0.00  0.00    +0.171 C 
ATOM     15  C   UNL     1       4.570  -0.220  -1.223  0.00  0.00    +0.242 C 
ATOM     16  C   UNL     1       4.250  -1.532  -1.899  0.00  0.00    +0.256 C 
ENDROOT
BRANCH  11  13
ATOM     13  C   UNL     1       1.050  -1.799  -0.200  0.00  0.00    -0.017 A 
ATOM     18  C   UNL     1       0.461  -0.775  -0.942  0.00  0.00    +0.008 A 
ATOM     19  C   UNL     1       0.274  -2.561   0.674  0.00  0.00    +0.008 A 
ATOM     20  C   UNL     1      -0.903  -0.514  -0.811  0.00  0.00    +0.023 A 
ATOM     21  C   UNL     1      -1.090  -2.301   0.805  0.00  0.00    +0.023 A 
ATOM     22  C   UNL     1      -1.679  -1.277   0.062  0.00  0.00    +0.034 A 
BRANCH  22   7
ATOM      4  O   UNL     1      -3.395   0.777  -1.287  0.00  0.00    -0.268 OA
ATOM      7  N   UNL     1      -3.043  -1.016   0.193  0.00  0.00    -0.280 N 
ATOM     27  C   UNL     1      -3.801  -0.038  -0.465  0.00  0.00    +0.270 C 
ATOM     33  H   UNL     1      -3.541  -1.617   0.846  0.00  0.00    +0.155 HD
BRANCH  27  28
ATOM      5  O   UNL     1      -7.100  -0.622   0.813  0.00  0.00    -0.359 OA
ATOM      9  N   UNL     1      -5.742  -0.909   0.738  0.00  0.00    -0.073 NA
ATOM     28  C   UNL     1      -5.250  -0.025  -0.134  0.00  0.00    +0.168 A 
ATOM     29  C   UNL     1      -6.240   0.836  -0.638  0.00  0.00    +0.080 A 
ATOM     30  C   UNL     1      -7.384   0.419  -0.011  0.00  0.00    +0.135 A 
ATOM     31  C   UNL     1      -8.784   0.858  -0.056  0.00  0.00    +0.089 C 
ENDBRANCH  27  28
ENDBRANCH  22   7
ENDBRANCH  11  13
BRANCH  10  12
ATOM     12  C   UNL     1       4.389  -2.151   1.399  0.00  0.00    +0.181 C 
BRANCH  12   2
ATOM      2  O   UNL     1       4.779  -1.498   2.590  0.00  0.00    -0.393 OA
ATOM     32  H   UNL     1       5.423  -2.074   3.036  0.00  0.00    +0.209 HD
ENDBRANCH  12   2
ENDBRANCH  10  12
BRANCH   6  14
ATOM     14  C   UNL     1       4.205   1.089   0.849  0.00  0.00    +0.145 C 
BRANCH  14  17
ATOM      8  N   UNL     1       2.024   3.737  -0.744  0.00  0.00    -0.263 NA
ATOM     17  C   UNL     1       3.086   2.071   0.650  0.00  0.00    -0.012 A 
ATOM     23  C   UNL     1       2.101   2.240   1.616  0.00  0.00    +0.008 A 
ATOM     24  C   UNL     1       3.003   2.836  -0.503  0.00  0.00    +0.115 A 
ATOM     25  C   UNL     1       1.077   3.158   1.403  0.00  0.00    +0.020 A 
ATOM     26  C   UNL     1       1.084   3.874   0.218  0.00  0.00    +0.111 A 
ENDBRANCH  14  17
ENDBRANCH   6  14
TORSDOF 7
