MODEL 1
REMARK VINA RESULT:      -8.5      0.000      0.000
REMARK  Name = 11887495
REMARK  5 active torsions:
REMARK  status: ('A' for Active; 'I' for Inactive)
REMARK    1  A    between atoms: O_4  and  C_28
REMARK    2  A    between atoms: O_4  and  C_32
REMARK    3  A    between atoms: N_7  and  C_18
REMARK    4  A    between atoms: C_17  and  C_20
REMARK    5  A    between atoms: C_24  and  C_28
REMARK                            x       y       z     vdW  Elec       q    Type
REMARK                         _______ _______ _______ _____ _____    ______ ____
ROOT
ATOM      1  O   UNL     1      13.265   8.695  16.502  0.00  0.00    -0.266 OA
ATOM      2  O   UNL     1      11.088   7.893  21.127  0.00  0.00    -0.270 OA
ATOM      5  N   UNL     1      13.393   8.125  21.458  0.00  0.00    -0.297 N 
ATOM      6  N   UNL     1      14.425   8.774  18.529  0.00  0.00    -0.310 N 
ATOM      8  C   UNL     1      14.809   6.702  19.986  0.00  0.00    +0.027 C 
ATOM      9  C   UNL     1      15.640   8.895  20.733  0.00  0.00    +0.054 C 
ATOM     10  C   UNL     1      16.048   7.446  20.471  0.00  0.00    +0.018 C 
ATOM     11  C   UNL     1      13.700   6.754  21.053  0.00  0.00    +0.113 C 
ATOM     12  C   UNL     1      14.357   7.311  18.653  0.00  0.00    +0.130 C 
ATOM     13  C   UNL     1      14.562   8.937  21.835  0.00  0.00    +0.117 C 
ATOM     14  C   UNL     1      15.108   9.549  19.472  0.00  0.00    +0.027 A 
ATOM     15  C   UNL     1      15.259  10.870  19.280  0.00  0.00    +0.024 A 
ATOM     16  C   UNL     1      13.860   9.339  17.368  0.00  0.00    +0.273 A 
ATOM     17  C   UNL     1      12.069   8.567  21.441  0.00  0.00    +0.247 C 
ATOM     18  C   UNL     1      14.027  10.818  17.205  0.00  0.00    +0.099 A 
ATOM     19  C   UNL     1      14.706  11.515  18.123  0.00  0.00    +0.030 A 
ENDROOT
BRANCH  17  20
ATOM     20  C   UNL     1      11.805   9.962  21.809  0.00  0.00    +0.037 A 
ATOM     21  C   UNL     1      11.423  10.275  23.111  0.00  0.00    +0.021 A 
ATOM     22  C   UNL     1      11.938  10.965  20.856  0.00  0.00    +0.013 A 
ATOM     23  C   UNL     1      11.167  11.606  23.480  0.00  0.00    -0.017 A 
ATOM     25  C   UNL     1      11.688  12.292  21.204  0.00  0.00    +0.009 A 
ATOM     26  C   UNL     1      11.301  12.630  22.512  0.00  0.00    -0.018 A 
ATOM     27  C   UNL     1      10.782  11.943  24.787  0.00  0.00    +0.008 A 
ATOM     29  C   UNL     1      11.046  13.960  22.880  0.00  0.00    +0.008 A 
ATOM     30  C   UNL     1      10.531  13.271  25.135  0.00  0.00    +0.001 A 
ATOM     31  C   UNL     1      10.663  14.277  24.184  0.00  0.00    +0.001 A 
ENDBRANCH  17  20
BRANCH  18   7
ATOM      3  O   UNL     1      15.332  11.282  14.694  0.00  0.00    -0.272 OA
ATOM      7  N   UNL     1      13.479  11.406  16.103  0.00  0.00    -0.278 N 
ATOM     24  C   UNL     1      14.167  11.602  14.913  0.00  0.00    +0.255 C 
ATOM     38  H   UNL     1      12.608  11.913  16.240  0.00  0.00    +0.155 HD
BRANCH  24  28
ATOM     28  C   UNL     1      13.297  12.277  13.873  0.00  0.00    +0.324 C 
BRANCH  28   4
ATOM      4  O   UNL     1      12.199  11.458  13.533  0.00  0.00    -0.483 OA
BRANCH   4  32
ATOM     32  C   UNL     1      11.291  11.966  12.634  0.00  0.00    +0.121 A 
ATOM     33  C   UNL     1      11.698  12.252  11.338  0.00  0.00    +0.045 A 
ATOM     34  C   UNL     1       9.981  12.184  13.036  0.00  0.00    +0.045 A 
ATOM     35  C   UNL     1      10.777  12.768  10.427  0.00  0.00    +0.004 A 
ATOM     36  C   UNL     1       9.059  12.698  12.125  0.00  0.00    +0.004 A 
ATOM     37  C   UNL     1       9.457  12.991  10.820  0.00  0.00    +0.000 A 
ENDBRANCH   4  32
ENDBRANCH  28   4
ENDBRANCH  24  28
ENDBRANCH  18   7
TORSDOF 5
ENDMDL
MODEL 2
REMARK VINA RESULT:      -8.2      9.696     13.386
REMARK  Name = 11887495
REMARK  5 active torsions:
REMARK  status: ('A' for Active; 'I' for Inactive)
REMARK    1  A    between atoms: O_4  and  C_28
REMARK    2  A    between atoms: O_4  and  C_32
REMARK    3  A    between atoms: N_7  and  C_18
REMARK    4  A    between atoms: C_17  and  C_20
REMARK    5  A    between atoms: C_24  and  C_28
REMARK                            x       y       z     vdW  Elec       q    Type
REMARK                         _______ _______ _______ _____ _____    ______ ____
ROOT
ATOM      1  O   UNL     1      12.883   7.335   3.525  0.00  0.00    -0.266 OA
ATOM      2  O   UNL     1       8.956  10.070   5.492  0.00  0.00    -0.270 OA
ATOM      5  N   UNL     1       9.019   8.014   6.608  0.00  0.00    -0.297 N 
ATOM      6  N   UNL     1      11.587   6.647   5.344  0.00  0.00    -0.310 N 
ATOM      8  C   UNL     1       9.113   6.020   5.123  0.00  0.00    +0.027 C 
ATOM      9  C   UNL     1      10.201   5.953   7.330  0.00  0.00    +0.054 C 
ATOM     10  C   UNL     1       9.374   5.137   6.338  0.00  0.00    +0.018 C 
ATOM     11  C   UNL     1       8.342   7.286   5.536  0.00  0.00    +0.113 C 
ATOM     12  C   UNL     1      10.453   6.352   4.456  0.00  0.00    +0.130 C 
ATOM     13  C   UNL     1       9.400   7.195   7.770  0.00  0.00    +0.117 C 
ATOM     14  C   UNL     1      11.519   6.385   6.716  0.00  0.00    +0.027 A 
ATOM     15  C   UNL     1      12.604   6.553   7.491  0.00  0.00    +0.024 A 
ATOM     16  C   UNL     1      12.770   7.107   4.730  0.00  0.00    +0.273 A 
ATOM     17  C   UNL     1       9.272   9.380   6.460  0.00  0.00    +0.247 C 
ATOM     18  C   UNL     1      13.948   7.307   5.633  0.00  0.00    +0.099 A 
ATOM     19  C   UNL     1      13.841   7.024   6.936  0.00  0.00    +0.030 A 
ENDROOT
BRANCH  17  20
ATOM     20  C   UNL     1       9.994  10.066   7.536  0.00  0.00    +0.037 A 
ATOM     21  C   UNL     1       9.304  10.507   8.662  0.00  0.00    +0.021 A 
ATOM     22  C   UNL     1      11.364  10.271   7.427  0.00  0.00    +0.013 A 
ATOM     23  C   UNL     1       9.981  11.166   9.702  0.00  0.00    -0.017 A 
ATOM     25  C   UNL     1      12.053  10.924   8.450  0.00  0.00    +0.009 A 
ATOM     26  C   UNL     1      11.376  11.377   9.594  0.00  0.00    -0.018 A 
ATOM     27  C   UNL     1       9.305  11.618  10.846  0.00  0.00    +0.008 A 
ATOM     29  C   UNL     1      12.054  12.035  10.633  0.00  0.00    +0.008 A 
ATOM     30  C   UNL     1       9.994  12.271  11.869  0.00  0.00    +0.001 A 
ATOM     31  C   UNL     1      11.365  12.479  11.763  0.00  0.00    +0.001 A 
ENDBRANCH  17  20
BRANCH  18   7
ATOM      3  O   UNL     1      14.856  10.026   5.604  0.00  0.00    -0.272 OA
ATOM      7  N   UNL     1      15.106   7.768   5.080  0.00  0.00    -0.278 N 
ATOM     24  C   UNL     1      15.489   9.103   5.099  0.00  0.00    +0.255 C 
ATOM     38  H   UNL     1      15.591   7.142   4.442  0.00  0.00    +0.155 HD
BRANCH  24  28
ATOM     28  C   UNL     1      16.821   9.308   4.408  0.00  0.00    +0.324 C 
BRANCH  28   4
ATOM      4  O   UNL     1      17.822   9.649   5.345  0.00  0.00    -0.483 OA
BRANCH   4  32
ATOM     32  C   UNL     1      18.917   8.822   5.421  0.00  0.00    +0.121 A 
ATOM     33  C   UNL     1      19.676   8.797   6.583  0.00  0.00    +0.045 A 
ATOM     34  C   UNL     1      19.247   8.023   4.335  0.00  0.00    +0.045 A 
ATOM     35  C   UNL     1      20.787   7.957   6.661  0.00  0.00    +0.004 A 
ATOM     36  C   UNL     1      20.357   7.183   4.413  0.00  0.00    +0.004 A 
ATOM     37  C   UNL     1      21.127   7.150   5.575  0.00  0.00    +0.000 A 
ENDBRANCH   4  32
ENDBRANCH  28   4
ENDBRANCH  24  28
ENDBRANCH  18   7
TORSDOF 5
ENDMDL
MODEL 3
REMARK VINA RESULT:      -7.9     27.573     29.565
REMARK  Name = 11887495
REMARK  5 active torsions:
REMARK  status: ('A' for Active; 'I' for Inactive)
REMARK    1  A    between atoms: O_4  and  C_28
REMARK    2  A    between atoms: O_4  and  C_32
REMARK    3  A    between atoms: N_7  and  C_18
REMARK    4  A    between atoms: C_17  and  C_20
REMARK    5  A    between atoms: C_24  and  C_28
REMARK                            x       y       z     vdW  Elec       q    Type
REMARK                         _______ _______ _______ _____ _____    ______ ____
ROOT
ATOM      1  O   UNL     1      -8.438  -8.763  17.595  0.00  0.00    -0.266 OA
ATOM      2  O   UNL     1      -3.576 -10.297  16.712  0.00  0.00    -0.270 OA
ATOM      5  N   UNL     1      -4.981 -12.124  16.311  0.00  0.00    -0.297 N 
ATOM      6  N   UNL     1      -7.858 -10.862  16.748  0.00  0.00    -0.310 N 
ATOM      8  C   UNL     1      -6.604 -12.616  18.132  0.00  0.00    +0.027 C 
ATOM      9  C   UNL     1      -7.205 -13.101  15.795  0.00  0.00    +0.054 C 
ATOM     10  C   UNL     1      -7.303 -13.624  17.227  0.00  0.00    +0.018 C 
ATOM     11  C   UNL     1      -5.127 -12.463  17.725  0.00  0.00    +0.113 C 
ATOM     12  C   UNL     1      -7.362 -11.284  18.066  0.00  0.00    +0.130 C 
ATOM     13  C   UNL     1      -5.722 -12.995  15.384  0.00  0.00    +0.117 C 
ATOM     14  C   UNL     1      -7.871 -11.745  15.662  0.00  0.00    +0.027 A 
ATOM     15  C   UNL     1      -8.434 -11.378  14.499  0.00  0.00    +0.024 A 
ATOM     16  C   UNL     1      -8.410  -9.568  16.663  0.00  0.00    +0.273 A 
ATOM     17  C   UNL     1      -4.198 -11.028  15.943  0.00  0.00    +0.247 C 
ATOM     18  C   UNL     1      -9.004  -9.189  15.342  0.00  0.00    +0.099 A 
ATOM     19  C   UNL     1      -9.011 -10.074  14.338  0.00  0.00    +0.030 A 
ENDROOT
BRANCH  17  20
ATOM     20  C   UNL     1      -4.113 -10.691  14.518  0.00  0.00    +0.037 A 
ATOM     21  C   UNL     1      -5.188 -10.071  13.887  0.00  0.00    +0.021 A 
ATOM     22  C   UNL     1      -2.958 -10.991  13.806  0.00  0.00    +0.013 A 
ATOM     23  C   UNL     1      -5.122  -9.742  12.523  0.00  0.00    -0.017 A 
ATOM     25  C   UNL     1      -2.875 -10.672  12.450  0.00  0.00    +0.009 A 
ATOM     26  C   UNL     1      -3.948 -10.047  11.794  0.00  0.00    -0.018 A 
ATOM     27  C   UNL     1      -6.194  -9.117  11.867  0.00  0.00    +0.008 A 
ATOM     29  C   UNL     1      -3.881  -9.718  10.430  0.00  0.00    +0.008 A 
ATOM     30  C   UNL     1      -6.111  -8.797  10.512  0.00  0.00    +0.001 A 
ATOM     31  C   UNL     1      -4.957  -9.097   9.795  0.00  0.00    +0.001 A 
ENDBRANCH  17  20
BRANCH  18   7
ATOM      3  O   UNL     1     -11.741  -8.444  15.765  0.00  0.00    -0.272 OA
ATOM      7  N   UNL     1      -9.532  -7.939  15.214  0.00  0.00    -0.278 N 
ATOM     24  C   UNL     1     -10.872  -7.642  15.433  0.00  0.00    +0.255 C 
ATOM     38  H   UNL     1      -8.965  -7.249  14.726  0.00  0.00    +0.155 HD
BRANCH  24  28
ATOM     28  C   UNL     1     -11.159  -6.172  15.214  0.00  0.00    +0.324 C 
BRANCH  28   4
ATOM      4  O   UNL     1     -12.399  -5.997  14.562  0.00  0.00    -0.483 OA
BRANCH   4  32
ATOM     32  C   UNL     1     -12.373  -5.465  13.295  0.00  0.00    +0.121 A 
ATOM     33  C   UNL     1     -12.358  -4.086  13.132  0.00  0.00    +0.045 A 
ATOM     34  C   UNL     1     -12.360  -6.314  12.198  0.00  0.00    +0.045 A 
ATOM     35  C   UNL     1     -12.332  -3.547  11.846  0.00  0.00    +0.004 A 
ATOM     36  C   UNL     1     -12.332  -5.775  10.912  0.00  0.00    +0.004 A 
ATOM     37  C   UNL     1     -12.318  -4.391  10.736  0.00  0.00    +0.000 A 
ENDBRANCH   4  32
ENDBRANCH  28   4
ENDBRANCH  24  28
ENDBRANCH  18   7
TORSDOF 5
ENDMDL
MODEL 4
REMARK VINA RESULT:      -7.7      3.680      9.045
REMARK  Name = 11887495
REMARK  5 active torsions:
REMARK  status: ('A' for Active; 'I' for Inactive)
REMARK    1  A    between atoms: O_4  and  C_28
REMARK    2  A    between atoms: O_4  and  C_32
REMARK    3  A    between atoms: N_7  and  C_18
REMARK    4  A    between atoms: C_17  and  C_20
REMARK    5  A    between atoms: C_24  and  C_28
REMARK                            x       y       z     vdW  Elec       q    Type
REMARK                         _______ _______ _______ _____ _____    ______ ____
ROOT
ATOM      1  O   UNL     1      15.798   6.664  21.502  0.00  0.00    -0.266 OA
ATOM      2  O   UNL     1      12.136   7.204  17.888  0.00  0.00    -0.270 OA
ATOM      5  N   UNL     1      11.770   8.841  19.519  0.00  0.00    -0.297 N 
ATOM      6  N   UNL     1      14.226   8.392  21.476  0.00  0.00    -0.310 N 
ATOM      8  C   UNL     1      11.724   7.994  21.859  0.00  0.00    +0.027 C 
ATOM      9  C   UNL     1      12.546  10.268  21.397  0.00  0.00    +0.054 C 
ATOM     10  C   UNL     1      11.718   9.431  22.370  0.00  0.00    +0.018 C 
ATOM     11  C   UNL     1      11.111   7.925  20.448  0.00  0.00    +0.113 C 
ATOM     12  C   UNL     1      13.163   7.465  21.890  0.00  0.00    +0.130 C 
ATOM     13  C   UNL     1      11.897  10.227  19.999  0.00  0.00    +0.117 C 
ATOM     14  C   UNL     1      13.972   9.759  21.314  0.00  0.00    +0.027 A 
ATOM     15  C   UNL     1      14.980  10.607  21.050  0.00  0.00    +0.024 A 
ATOM     16  C   UNL     1      15.523   7.856  21.352  0.00  0.00    +0.273 A 
ATOM     17  C   UNL     1      12.239   8.360  18.295  0.00  0.00    +0.247 C 
ATOM     18  C   UNL     1      16.613   8.830  21.030  0.00  0.00    +0.099 A 
ATOM     19  C   UNL     1      16.326  10.130  20.905  0.00  0.00    +0.030 A 
ENDROOT
BRANCH  17  20
ATOM     20  C   UNL     1      12.936   9.298  17.409  0.00  0.00    +0.037 A 
ATOM     21  C   UNL     1      14.007  10.045  17.894  0.00  0.00    +0.021 A 
ATOM     22  C   UNL     1      12.524   9.437  16.089  0.00  0.00    +0.013 A 
ATOM     23  C   UNL     1      14.685  10.948  17.058  0.00  0.00    -0.017 A 
ATOM     25  C   UNL     1      13.185  10.330  15.244  0.00  0.00    +0.009 A 
ATOM     26  C   UNL     1      14.268  11.092  15.714  0.00  0.00    -0.018 A 
ATOM     27  C   UNL     1      15.767  11.709  17.527  0.00  0.00    +0.008 A 
ATOM     29  C   UNL     1      14.945  11.994  14.878  0.00  0.00    +0.008 A 
ATOM     30  C   UNL     1      16.429  12.602  16.683  0.00  0.00    +0.001 A 
ATOM     31  C   UNL     1      16.018  12.743  15.361  0.00  0.00    +0.001 A 
ENDBRANCH  17  20
BRANCH  18   7
ATOM      3  O   UNL     1      18.928   9.642  22.516  0.00  0.00    -0.272 OA
ATOM      7  N   UNL     1      17.880   8.347  20.884  0.00  0.00    -0.278 N 
ATOM     24  C   UNL     1      18.962   8.784  21.638  0.00  0.00    +0.255 C 
ATOM     38  H   UNL     1      18.072   7.809  20.043  0.00  0.00    +0.155 HD
BRANCH  24  28
ATOM     28  C   UNL     1      20.237   8.064  21.250  0.00  0.00    +0.324 C 
BRANCH  28   4
ATOM      4  O   UNL     1      19.949   6.781  20.735  0.00  0.00    -0.483 OA
BRANCH   4  32
ATOM     32  C   UNL     1      20.685   5.729  21.224  0.00  0.00    +0.121 A 
ATOM     33  C   UNL     1      21.376   5.875  22.419  0.00  0.00    +0.045 A 
ATOM     34  C   UNL     1      20.724   4.535  20.517  0.00  0.00    +0.045 A 
ATOM     35  C   UNL     1      22.123   4.806  22.915  0.00  0.00    +0.004 A 
ATOM     36  C   UNL     1      21.469   3.466  21.014  0.00  0.00    +0.004 A 
ATOM     37  C   UNL     1      22.169   3.602  22.213  0.00  0.00    +0.000 A 
ENDBRANCH   4  32
ENDBRANCH  28   4
ENDBRANCH  24  28
ENDBRANCH  18   7
TORSDOF 5
ENDMDL
MODEL 5
REMARK VINA RESULT:      -7.7      1.968      2.439
REMARK  Name = 11887495
REMARK  5 active torsions:
REMARK  status: ('A' for Active; 'I' for Inactive)
REMARK    1  A    between atoms: O_4  and  C_28
REMARK    2  A    between atoms: O_4  and  C_32
REMARK    3  A    between atoms: N_7  and  C_18
REMARK    4  A    between atoms: C_17  and  C_20
REMARK    5  A    between atoms: C_24  and  C_28
REMARK                            x       y       z     vdW  Elec       q    Type
REMARK                         _______ _______ _______ _____ _____    ______ ____
ROOT
ATOM      1  O   UNL     1      13.452   9.411  16.406  0.00  0.00    -0.266 OA
ATOM      2  O   UNL     1      10.906   8.165  20.734  0.00  0.00    -0.270 OA
ATOM      5  N   UNL     1      13.192   8.187  21.236  0.00  0.00    -0.297 N 
ATOM      6  N   UNL     1      14.467   9.141  18.493  0.00  0.00    -0.310 N 
ATOM      8  C   UNL     1      14.618   6.874  19.676  0.00  0.00    +0.027 C 
ATOM      9  C   UNL     1      15.528   8.885  20.764  0.00  0.00    +0.054 C 
ATOM     10  C   UNL     1      15.863   7.458  20.333  0.00  0.00    +0.018 C 
ATOM     11  C   UNL     1      13.441   6.863  20.668  0.00  0.00    +0.113 C 
ATOM     12  C   UNL     1      14.300   7.682  18.413  0.00  0.00    +0.130 C 
ATOM     13  C   UNL     1      14.378   8.858  21.792  0.00  0.00    +0.117 C 
ATOM     14  C   UNL     1      15.128   9.735  19.573  0.00  0.00    +0.027 A 
ATOM     15  C   UNL     1      15.374  11.056  19.572  0.00  0.00    +0.024 A 
ATOM     16  C   UNL     1      14.022   9.892  17.386  0.00  0.00    +0.273 A 
ATOM     17  C   UNL     1      11.902   8.720  21.197  0.00  0.00    +0.247 C 
ATOM     18  C   UNL     1      14.291  11.364  17.436  0.00  0.00    +0.099 A 
ATOM     19  C   UNL     1      14.945  11.885  18.481  0.00  0.00    +0.030 A 
ENDROOT
BRANCH  17  20
ATOM     20  C   UNL     1      11.699  10.070  21.734  0.00  0.00    +0.037 A 
ATOM     21  C   UNL     1      11.376  10.240  23.078  0.00  0.00    +0.021 A 
ATOM     22  C   UNL     1      11.832  11.172  20.899  0.00  0.00    +0.013 A 
ATOM     23  C   UNL     1      11.179  11.526  23.608  0.00  0.00    -0.017 A 
ATOM     25  C   UNL     1      11.639  12.457  21.408  0.00  0.00    +0.009 A 
ATOM     26  C   UNL     1      11.312  12.651  22.760  0.00  0.00    -0.018 A 
ATOM     27  C   UNL     1      10.853  11.719  24.959  0.00  0.00    +0.008 A 
ATOM     29  C   UNL     1      11.116  13.936  23.289  0.00  0.00    +0.008 A 
ATOM     30  C   UNL     1      10.661  13.004  25.469  0.00  0.00    +0.001 A 
ATOM     31  C   UNL     1      10.792  14.110  24.635  0.00  0.00    +0.001 A 
ENDBRANCH  17  20
BRANCH  18   7
ATOM      3  O   UNL     1      15.937  12.853  15.621  0.00  0.00    -0.272 OA
ATOM      7  N   UNL     1      13.860  12.128  16.393  0.00  0.00    -0.278 N 
ATOM     24  C   UNL     1      14.712  12.828  15.548  0.00  0.00    +0.255 C 
ATOM     38  H   UNL     1      12.871  12.366  16.376  0.00  0.00    +0.155 HD
BRANCH  24  28
ATOM     28  C   UNL     1      13.942  13.584  14.485  0.00  0.00    +0.324 C 
BRANCH  28   4
ATOM      4  O   UNL     1      13.848  12.823  13.299  0.00  0.00    -0.483 OA
BRANCH   4  32
ATOM     32  C   UNL     1      14.823  13.017  12.350  0.00  0.00    +0.121 A 
ATOM     33  C   UNL     1      15.772  12.028  12.132  0.00  0.00    +0.045 A 
ATOM     34  C   UNL     1      14.843  14.198  11.623  0.00  0.00    +0.045 A 
ATOM     35  C   UNL     1      16.762  12.225  11.169  0.00  0.00    +0.004 A 
ATOM     36  C   UNL     1      15.831  14.396  10.659  0.00  0.00    +0.004 A 
ATOM     37  C   UNL     1      16.791  13.409  10.432  0.00  0.00    +0.000 A 
ENDBRANCH   4  32
ENDBRANCH  28   4
ENDBRANCH  24  28
ENDBRANCH  18   7
TORSDOF 5
ENDMDL
MODEL 6
REMARK VINA RESULT:      -7.6      4.124      8.900
REMARK  Name = 11887495
REMARK  5 active torsions:
REMARK  status: ('A' for Active; 'I' for Inactive)
REMARK    1  A    between atoms: O_4  and  C_28
REMARK    2  A    between atoms: O_4  and  C_32
REMARK    3  A    between atoms: N_7  and  C_18
REMARK    4  A    between atoms: C_17  and  C_20
REMARK    5  A    between atoms: C_24  and  C_28
REMARK                            x       y       z     vdW  Elec       q    Type
REMARK                         _______ _______ _______ _____ _____    ______ ____
ROOT
ATOM      1  O   UNL     1      15.761   6.182  19.108  0.00  0.00    -0.266 OA
ATOM      2  O   UNL     1      15.086  10.801  16.876  0.00  0.00    -0.270 OA
ATOM      5  N   UNL     1      13.263  10.423  18.293  0.00  0.00    -0.297 N 
ATOM      6  N   UNL     1      14.024   7.653  19.637  0.00  0.00    -0.310 N 
ATOM      8  C   UNL     1      12.143   8.221  17.993  0.00  0.00    +0.027 C 
ATOM      9  C   UNL     1      12.187   9.278  20.215  0.00  0.00    +0.054 C 
ATOM     10  C   UNL     1      11.316   8.479  19.247  0.00  0.00    +0.018 C 
ATOM     11  C   UNL     1      12.567   9.552  17.346  0.00  0.00    +0.113 C 
ATOM     12  C   UNL     1      13.349   7.351  18.366  0.00  0.00    +0.130 C 
ATOM     13  C   UNL     1      12.568  10.627  19.574  0.00  0.00    +0.117 C 
ATOM     14  C   UNL     1      13.445   8.511  20.578  0.00  0.00    +0.027 A 
ATOM     15  C   UNL     1      14.020   8.683  21.780  0.00  0.00    +0.024 A 
ATOM     16  C   UNL     1      15.223   6.960  19.898  0.00  0.00    +0.273 A 
ATOM     17  C   UNL     1      14.501  10.967  17.945  0.00  0.00    +0.247 C 
ATOM     18  C   UNL     1      15.846   7.200  21.238  0.00  0.00    +0.099 A 
ATOM     19  C   UNL     1      15.245   8.014  22.114  0.00  0.00    +0.030 A 
ENDROOT
BRANCH  17  20
ATOM     20  C   UNL     1      15.190  11.798  18.938  0.00  0.00    +0.037 A 
ATOM     21  C   UNL     1      15.957  11.197  19.933  0.00  0.00    +0.021 A 
ATOM     22  C   UNL     1      15.075  13.181  18.880  0.00  0.00    +0.013 A 
ATOM     23  C   UNL     1      16.623  11.979  20.891  0.00  0.00    -0.017 A 
ATOM     25  C   UNL     1      15.729  13.974  19.824  0.00  0.00    +0.009 A 
ATOM     26  C   UNL     1      16.508  13.388  20.836  0.00  0.00    -0.018 A 
ATOM     27  C   UNL     1      17.402  11.393  21.901  0.00  0.00    +0.008 A 
ATOM     29  C   UNL     1      17.174  14.170  21.793  0.00  0.00    +0.008 A 
ATOM     30  C   UNL     1      18.057  12.185  22.845  0.00  0.00    +0.001 A 
ATOM     31  C   UNL     1      17.943  13.571  22.791  0.00  0.00    +0.001 A 
ENDBRANCH  17  20
BRANCH  18   7
ATOM      3  O   UNL     1      18.489   8.265  20.914  0.00  0.00    -0.272 OA
ATOM      7  N   UNL     1      17.017   6.562  21.523  0.00  0.00    -0.278 N 
ATOM     24  C   UNL     1      18.269   7.135  21.342  0.00  0.00    +0.255 C 
ATOM     38  H   UNL     1      16.968   5.556  21.662  0.00  0.00    +0.155 HD
BRANCH  24  28
ATOM     28  C   UNL     1      19.378   6.185  21.745  0.00  0.00    +0.324 C 
BRANCH  28   4
ATOM      4  O   UNL     1      19.901   5.520  20.614  0.00  0.00    -0.483 OA
BRANCH   4  32
ATOM     32  C   UNL     1      21.163   4.988  20.727  0.00  0.00    +0.121 A 
ATOM     33  C   UNL     1      21.314   3.656  21.087  0.00  0.00    +0.045 A 
ATOM     34  C   UNL     1      22.268   5.790  20.479  0.00  0.00    +0.045 A 
ATOM     35  C   UNL     1      22.595   3.116  21.202  0.00  0.00    +0.004 A 
ATOM     36  C   UNL     1      23.549   5.250  20.593  0.00  0.00    +0.004 A 
ATOM     37  C   UNL     1      23.712   3.913  20.954  0.00  0.00    +0.000 A 
ENDBRANCH   4  32
ENDBRANCH  28   4
ENDBRANCH  24  28
ENDBRANCH  18   7
TORSDOF 5
ENDMDL
MODEL 7
REMARK VINA RESULT:      -7.5     13.374     16.779
REMARK  Name = 11887495
REMARK  5 active torsions:
REMARK  status: ('A' for Active; 'I' for Inactive)
REMARK    1  A    between atoms: O_4  and  C_28
REMARK    2  A    between atoms: O_4  and  C_32
REMARK    3  A    between atoms: N_7  and  C_18
REMARK    4  A    between atoms: C_17  and  C_20
REMARK    5  A    between atoms: C_24  and  C_28
REMARK                            x       y       z     vdW  Elec       q    Type
REMARK                         _______ _______ _______ _____ _____    ______ ____
ROOT
ATOM      1  O   UNL     1      12.247   9.322   7.117  0.00  0.00    -0.266 OA
ATOM      2  O   UNL     1      10.173   4.789   5.730  0.00  0.00    -0.270 OA
ATOM      5  N   UNL     1       9.163   6.458   4.437  0.00  0.00    -0.297 N 
ATOM      6  N   UNL     1      10.731   9.056   5.359  0.00  0.00    -0.310 N 
ATOM      8  C   UNL     1       8.284   8.394   5.729  0.00  0.00    +0.027 C 
ATOM      9  C   UNL     1       9.129   8.733   3.441  0.00  0.00    +0.054 C 
ATOM     10  C   UNL     1       8.032   9.141   4.424  0.00  0.00    +0.018 C 
ATOM     11  C   UNL     1       8.243   6.873   5.493  0.00  0.00    +0.113 C 
ATOM     12  C   UNL     1       9.628   8.852   6.309  0.00  0.00    +0.130 C 
ATOM     13  C   UNL     1       9.048   7.215   3.180  0.00  0.00    +0.117 C 
ATOM     14  C   UNL     1      10.502   9.087   3.979  0.00  0.00    +0.027 A 
ATOM     15  C   UNL     1      11.502   9.390   3.134  0.00  0.00    +0.024 A 
ATOM     16  C   UNL     1      12.001   9.320   5.909  0.00  0.00    +0.273 A 
ATOM     17  C   UNL     1      10.072   5.426   4.682  0.00  0.00    +0.247 C 
ATOM     18  C   UNL     1      13.094   9.627   4.933  0.00  0.00    +0.099 A 
ATOM     19  C   UNL     1      12.823   9.664   3.624  0.00  0.00    +0.030 A 
ENDROOT
BRANCH  17  20
ATOM     20  C   UNL     1      11.011   5.068   3.614  0.00  0.00    +0.037 A 
ATOM     21  C   UNL     1      12.123   5.870   3.371  0.00  0.00    +0.021 A 
ATOM     22  C   UNL     1      10.786   3.930   2.850  0.00  0.00    +0.013 A 
ATOM     23  C   UNL     1      13.032   5.541   2.352  0.00  0.00    -0.017 A 
ATOM     25  C   UNL     1      11.678   3.587   1.833  0.00  0.00    +0.009 A 
ATOM     26  C   UNL     1      12.806   4.383   1.571  0.00  0.00    -0.018 A 
ATOM     27  C   UNL     1      14.159   6.335   2.091  0.00  0.00    +0.008 A 
ATOM     29  C   UNL     1      13.714   4.053   0.553  0.00  0.00    +0.008 A 
ATOM     30  C   UNL     1      15.052   5.994   1.074  0.00  0.00    +0.001 A 
ATOM     31  C   UNL     1      14.829   4.854   0.307  0.00  0.00    +0.001 A 
ENDBRANCH  17  20
BRANCH  18   7
ATOM      3  O   UNL     1      15.163   7.689   5.361  0.00  0.00    -0.272 OA
ATOM      7  N   UNL     1      14.342   9.870   5.426  0.00  0.00    -0.278 N 
ATOM     24  C   UNL     1      15.302   8.883   5.610  0.00  0.00    +0.255 C 
ATOM     38  H   UNL     1      14.490  10.769   5.877  0.00  0.00    +0.155 HD
BRANCH  24  28
ATOM     28  C   UNL     1      16.587   9.456   6.171  0.00  0.00    +0.324 C 
BRANCH  28   4
ATOM      4  O   UNL     1      17.574   9.547   5.165  0.00  0.00    -0.483 OA
BRANCH   4  32
ATOM     32  C   UNL     1      18.723   8.814   5.345  0.00  0.00    +0.121 A 
ATOM     33  C   UNL     1      19.354   8.824   6.581  0.00  0.00    +0.045 A 
ATOM     34  C   UNL     1      19.233   8.074   4.288  0.00  0.00    +0.045 A 
ATOM     35  C   UNL     1      20.520   8.080   6.763  0.00  0.00    +0.004 A 
ATOM     36  C   UNL     1      20.398   7.329   4.469  0.00  0.00    +0.004 A 
ATOM     37  C   UNL     1      21.041   7.332   5.707  0.00  0.00    +0.000 A 
ENDBRANCH   4  32
ENDBRANCH  28   4
ENDBRANCH  24  28
ENDBRANCH  18   7
TORSDOF 5
ENDMDL
MODEL 8
REMARK VINA RESULT:      -7.5     29.246     31.177
REMARK  Name = 11887495
REMARK  5 active torsions:
REMARK  status: ('A' for Active; 'I' for Inactive)
REMARK    1  A    between atoms: O_4  and  C_28
REMARK    2  A    between atoms: O_4  and  C_32
REMARK    3  A    between atoms: N_7  and  C_18
REMARK    4  A    between atoms: C_17  and  C_20
REMARK    5  A    between atoms: C_24  and  C_28
REMARK                            x       y       z     vdW  Elec       q    Type
REMARK                         _______ _______ _______ _____ _____    ______ ____
ROOT
ATOM      1  O   UNL     1     -13.413  -8.527  17.124  0.00  0.00    -0.266 OA
ATOM      2  O   UNL     1     -10.102 -10.385  20.639  0.00  0.00    -0.270 OA
ATOM      5  N   UNL     1     -10.710 -12.153  19.232  0.00  0.00    -0.297 N 
ATOM      6  N   UNL     1     -12.569 -10.706  17.108  0.00  0.00    -0.310 N 
ATOM      8  C   UNL     1     -13.161 -12.433  18.904  0.00  0.00    +0.027 C 
ATOM      9  C   UNL     1     -11.609 -13.035  17.091  0.00  0.00    +0.054 C 
ATOM     10  C   UNL     1     -12.890 -13.458  17.808  0.00  0.00    +0.018 C 
ATOM     11  C   UNL     1     -11.989 -12.390  19.900  0.00  0.00    +0.113 C 
ATOM     12  C   UNL     1     -13.416 -11.068  18.253  0.00  0.00    +0.130 C 
ATOM     13  C   UNL     1     -10.434 -13.039  18.090  0.00  0.00    +0.117 C 
ATOM     14  C   UNL     1     -11.755 -11.654  16.480  0.00  0.00    +0.027 A 
ATOM     15  C   UNL     1     -11.078 -11.333  15.364  0.00  0.00    +0.024 A 
ATOM     16  C   UNL     1     -12.696  -9.391  16.616  0.00  0.00    +0.273 A 
ATOM     17  C   UNL     1      -9.877 -11.129  19.685  0.00  0.00    +0.247 C 
ATOM     18  C   UNL     1     -11.905  -9.065  15.387  0.00  0.00    +0.099 A 
ATOM     19  C   UNL     1     -11.156 -10.011  14.810  0.00  0.00    +0.030 A 
ENDROOT
BRANCH  17  20
ATOM     20  C   UNL     1      -8.624 -10.891  18.961  0.00  0.00    +0.037 A 
ATOM     21  C   UNL     1      -7.455 -11.526  19.371  0.00  0.00    +0.021 A 
ATOM     22  C   UNL     1      -8.610 -10.033  17.868  0.00  0.00    +0.013 A 
ATOM     23  C   UNL     1      -6.246 -11.309  18.687  0.00  0.00    -0.017 A 
ATOM     25  C   UNL     1      -7.420  -9.804  17.177  0.00  0.00    +0.009 A 
ATOM     26  C   UNL     1      -6.229 -10.435  17.574  0.00  0.00    -0.018 A 
ATOM     27  C   UNL     1      -5.057 -11.940  19.084  0.00  0.00    +0.008 A 
ATOM     29  C   UNL     1      -5.022 -10.218  16.891  0.00  0.00    +0.008 A 
ATOM     30  C   UNL     1      -3.866 -11.712  18.394  0.00  0.00    +0.001 A 
ATOM     31  C   UNL     1      -3.849 -10.853  17.299  0.00  0.00    +0.001 A 
ENDBRANCH  17  20
BRANCH  18   7
ATOM      3  O   UNL     1     -10.215  -6.853  16.076  0.00  0.00    -0.272 OA
ATOM      7  N   UNL     1     -11.987  -7.798  14.891  0.00  0.00    -0.278 N 
ATOM     24  C   UNL     1     -11.135  -6.767  15.267  0.00  0.00    +0.255 C 
ATOM     38  H   UNL     1     -12.842  -7.554  14.397  0.00  0.00    +0.155 HD
BRANCH  24  28
ATOM     28  C   UNL     1     -11.472  -5.478  14.548  0.00  0.00    +0.324 C 
BRANCH  28   4
ATOM      4  O   UNL     1     -12.869  -5.340  14.397  0.00  0.00    -0.483 OA
BRANCH   4  32
ATOM     32  C   UNL     1     -13.316  -4.623  13.313  0.00  0.00    +0.121 A 
ATOM     33  C   UNL     1     -14.680  -4.463  13.113  0.00  0.00    +0.045 A 
ATOM     34  C   UNL     1     -12.395  -4.070  12.434  0.00  0.00    +0.045 A 
ATOM     35  C   UNL     1     -15.133  -3.736  12.012  0.00  0.00    +0.004 A 
ATOM     36  C   UNL     1     -12.847  -3.342  11.334  0.00  0.00    +0.004 A 
ATOM     37  C   UNL     1     -14.216  -3.175  11.123  0.00  0.00    +0.000 A 
ENDBRANCH   4  32
ENDBRANCH  28   4
ENDBRANCH  24  28
ENDBRANCH  18   7
TORSDOF 5
ENDMDL
MODEL 9
REMARK VINA RESULT:      -7.5      2.314      3.140
REMARK  Name = 11887495
REMARK  5 active torsions:
REMARK  status: ('A' for Active; 'I' for Inactive)
REMARK    1  A    between atoms: O_4  and  C_28
REMARK    2  A    between atoms: O_4  and  C_32
REMARK    3  A    between atoms: N_7  and  C_18
REMARK    4  A    between atoms: C_17  and  C_20
REMARK    5  A    between atoms: C_24  and  C_28
REMARK                            x       y       z     vdW  Elec       q    Type
REMARK                         _______ _______ _______ _____ _____    ______ ____
ROOT
ATOM      1  O   UNL     1      14.293  10.136  16.590  0.00  0.00    -0.266 OA
ATOM      2  O   UNL     1      10.550   8.566  19.797  0.00  0.00    -0.270 OA
ATOM      5  N   UNL     1      12.594   7.868  20.696  0.00  0.00    -0.297 N 
ATOM      6  N   UNL     1      14.679   9.104  18.650  0.00  0.00    -0.310 N 
ATOM      8  C   UNL     1      14.076   6.656  19.106  0.00  0.00    +0.027 C 
ATOM      9  C   UNL     1      15.064   8.028  20.896  0.00  0.00    +0.054 C 
ATOM     10  C   UNL     1      15.207   6.715  20.127  0.00  0.00    +0.018 C 
ATOM     11  C   UNL     1      12.711   6.707  19.815  0.00  0.00    +0.113 C 
ATOM     12  C   UNL     1      14.252   7.806  18.107  0.00  0.00    +0.130 C 
ATOM     13  C   UNL     1      13.712   8.047  21.637  0.00  0.00    +0.117 C 
ATOM     14  C   UNL     1      15.153   9.220  19.961  0.00  0.00    +0.027 A 
ATOM     15  C   UNL     1      15.647  10.389  20.401  0.00  0.00    +0.024 A 
ATOM     16  C   UNL     1      14.684  10.194  17.757  0.00  0.00    +0.273 A 
ATOM     17  C   UNL     1      11.487   8.711  20.581  0.00  0.00    +0.247 C 
ATOM     18  C   UNL     1      15.217  11.486  18.294  0.00  0.00    +0.099 A 
ATOM     19  C   UNL     1      15.678  11.543  19.549  0.00  0.00    +0.030 A 
ENDROOT
BRANCH  17  20
ATOM     20  C   UNL     1      11.428   9.891  21.450  0.00  0.00    +0.037 A 
ATOM     21  C   UNL     1      11.981  11.095  21.022  0.00  0.00    +0.021 A 
ATOM     22  C   UNL     1      10.820   9.801  22.696  0.00  0.00    +0.013 A 
ATOM     23  C   UNL     1      11.932  12.235  21.843  0.00  0.00    -0.017 A 
ATOM     25  C   UNL     1      10.763  10.922  23.525  0.00  0.00    +0.009 A 
ATOM     26  C   UNL     1      11.314  12.147  23.112  0.00  0.00    -0.018 A 
ATOM     27  C   UNL     1      12.482  13.458  21.430  0.00  0.00    +0.008 A 
ATOM     29  C   UNL     1      11.265  13.285  23.933  0.00  0.00    +0.008 A 
ATOM     30  C   UNL     1      12.425  14.580  22.259  0.00  0.00    +0.001 A 
ATOM     31  C   UNL     1      11.817  14.493  23.507  0.00  0.00    +0.001 A 
ENDBRANCH  17  20
BRANCH  18   7
ATOM      3  O   UNL     1      13.208  13.526  18.148  0.00  0.00    -0.272 OA
ATOM      7  N   UNL     1      15.222  12.569  17.467  0.00  0.00    -0.278 N 
ATOM     24  C   UNL     1      14.214  13.525  17.444  0.00  0.00    +0.255 C 
ATOM     38  H   UNL     1      15.878  12.550  16.689  0.00  0.00    +0.155 HD
BRANCH  24  28
ATOM     28  C   UNL     1      14.496  14.607  16.423  0.00  0.00    +0.324 C 
BRANCH  28   4
ATOM      4  O   UNL     1      14.014  14.230  15.150  0.00  0.00    -0.483 OA
BRANCH   4  32
ATOM     32  C   UNL     1      14.901  13.613  14.301  0.00  0.00    +0.121 A 
ATOM     33  C   UNL     1      16.132  14.203  14.050  0.00  0.00    +0.045 A 
ATOM     34  C   UNL     1      14.553  12.407  13.708  0.00  0.00    +0.045 A 
ATOM     35  C   UNL     1      17.032  13.576  13.188  0.00  0.00    +0.004 A 
ATOM     36  C   UNL     1      15.452  11.779  12.847  0.00  0.00    +0.004 A 
ATOM     37  C   UNL     1      16.692  12.364  12.587  0.00  0.00    +0.000 A 
ENDBRANCH   4  32
ENDBRANCH  28   4
ENDBRANCH  24  28
ENDBRANCH  18   7
TORSDOF 5
ENDMDL
MODEL 10
REMARK VINA RESULT:      -7.3     28.109     29.855
REMARK  Name = 11887495
REMARK  5 active torsions:
REMARK  status: ('A' for Active; 'I' for Inactive)
REMARK    1  A    between atoms: O_4  and  C_28
REMARK    2  A    between atoms: O_4  and  C_32
REMARK    3  A    between atoms: N_7  and  C_18
REMARK    4  A    between atoms: C_17  and  C_20
REMARK    5  A    between atoms: C_24  and  C_28
REMARK                            x       y       z     vdW  Elec       q    Type
REMARK                         _______ _______ _______ _____ _____    ______ ____
ROOT
ATOM      1  O   UNL     1      -5.646 -13.195  15.879  0.00  0.00    -0.266 OA
ATOM      2  O   UNL     1     -10.789 -12.748  15.540  0.00  0.00    -0.270 OA
ATOM      5  N   UNL     1     -10.190 -12.383  17.773  0.00  0.00    -0.297 N 
ATOM      6  N   UNL     1      -7.024 -12.538  17.648  0.00  0.00    -0.310 N 
ATOM      8  C   UNL     1      -8.706 -14.122  18.755  0.00  0.00    +0.027 C 
ATOM      9  C   UNL     1      -8.532 -11.790  19.523  0.00  0.00    +0.054 C 
ATOM     10  C   UNL     1      -8.506 -13.245  19.987  0.00  0.00    +0.018 C 
ATOM     11  C   UNL     1     -10.054 -13.805  18.084  0.00  0.00    +0.113 C 
ATOM     12  C   UNL     1      -7.523 -13.912  17.802  0.00  0.00    +0.130 C 
ATOM     13  C   UNL     1      -9.903 -11.473  18.893  0.00  0.00    +0.117 C 
ATOM     14  C   UNL     1      -7.431 -11.518  18.515  0.00  0.00    +0.027 A 
ATOM     15  C   UNL     1      -6.876 -10.298  18.431  0.00  0.00    +0.024 A 
ATOM     16  C   UNL     1      -6.047 -12.325  16.654  0.00  0.00    +0.273 A 
ATOM     17  C   UNL     1     -10.547 -11.992  16.480  0.00  0.00    +0.247 C 
ATOM     18  C   UNL     1      -5.474 -10.945  16.575  0.00  0.00    +0.099 A 
ATOM     19  C   UNL     1      -5.879 -10.008  17.440  0.00  0.00    +0.030 A 
ENDROOT
BRANCH  17  20
ATOM     20  C   UNL     1     -10.629 -10.557  16.194  0.00  0.00    +0.037 A 
ATOM     21  C   UNL     1     -11.859  -9.907  16.253  0.00  0.00    +0.021 A 
ATOM     22  C   UNL     1      -9.477  -9.851  15.866  0.00  0.00    +0.013 A 
ATOM     23  C   UNL     1     -11.954  -8.532  15.982  0.00  0.00    -0.017 A 
ATOM     25  C   UNL     1      -9.553  -8.485  15.593  0.00  0.00    +0.009 A 
ATOM     26  C   UNL     1     -10.784  -7.810  15.647  0.00  0.00    -0.018 A 
ATOM     27  C   UNL     1     -13.184  -7.857  16.036  0.00  0.00    +0.008 A 
ATOM     29  C   UNL     1     -10.878  -6.436  15.376  0.00  0.00    +0.008 A 
ATOM     30  C   UNL     1     -13.260  -6.491  15.763  0.00  0.00    +0.001 A 
ATOM     31  C   UNL     1     -12.109  -5.782  15.434  0.00  0.00    +0.001 A 
ENDBRANCH  17  20
BRANCH  18   7
ATOM      3  O   UNL     1      -2.631 -11.172  16.867  0.00  0.00    -0.272 OA
ATOM      7  N   UNL     1      -4.539 -10.694  15.615  0.00  0.00    -0.278 N 
ATOM     24  C   UNL     1      -3.172 -10.823  15.821  0.00  0.00    +0.255 C 
ATOM     38  H   UNL     1      -4.852 -10.184  14.793  0.00  0.00    +0.155 HD
BRANCH  24  28
ATOM     28  C   UNL     1      -2.387 -10.477  14.572  0.00  0.00    +0.324 C 
BRANCH  28   4
ATOM      4  O   UNL     1      -2.880 -11.191  13.459  0.00  0.00    -0.483 OA
BRANCH   4  32
ATOM     32  C   UNL     1      -3.177 -10.467  12.329  0.00  0.00    +0.121 A 
ATOM     33  C   UNL     1      -4.504 -10.242  11.990  0.00  0.00    +0.045 A 
ATOM     34  C   UNL     1      -2.145  -9.969  11.546  0.00  0.00    +0.045 A 
ATOM     35  C   UNL     1      -4.805  -9.506  10.844  0.00  0.00    +0.004 A 
ATOM     36  C   UNL     1      -2.446  -9.232  10.400  0.00  0.00    +0.004 A 
ATOM     37  C   UNL     1      -3.776  -9.001  10.049  0.00  0.00    +0.000 A 
ENDBRANCH   4  32
ENDBRANCH  28   4
ENDBRANCH  24  28
ENDBRANCH  18   7
TORSDOF 5
ENDMDL
