MODEL 1
REMARK VINA RESULT:      -7.2      0.000      0.000
REMARK  Name = 75536891
REMARK  7 active torsions:
REMARK  status: ('A' for Active; 'I' for Inactive)
REMARK    1  A    between atoms: S_1  and  C_22
REMARK    2  A    between atoms: S_1  and  C_27
REMARK    3  A    between atoms: O_3  and  C_10
REMARK    4  A    between atoms: O_3  and  C_17
REMARK    5  A    between atoms: N_8  and  C_25
REMARK    6  A    between atoms: C_15  and  C_16
REMARK    7  A    between atoms: C_21  and  C_26
REMARK                            x       y       z     vdW  Elec       q    Type
REMARK                         _______ _______ _______ _____ _____    ______ ____
ROOT
ATOM      2  O   UNL     1      13.203   7.320  21.920  0.00  0.00    -0.375 OA
ATOM      4  O   UNL     1      11.724   7.954  17.370  0.00  0.00    -0.268 OA
ATOM      7  N   UNL     1      13.538   7.665  18.824  0.00  0.00    -0.291 N 
ATOM     10  C   UNL     1      15.263   7.794  20.702  0.00  0.00    +0.216 C 
ATOM     11  C   UNL     1      14.884   8.073  19.245  0.00  0.00    +0.155 C 
ATOM     12  C   UNL     1      12.852   6.629  19.598  0.00  0.00    +0.136 C 
ATOM     13  C   UNL     1      14.220   8.292  21.700  0.00  0.00    +0.206 C 
ATOM     14  C   UNL     1      12.248   7.208  20.872  0.00  0.00    +0.179 C 
ATOM     15  C   UNL     1      12.862   8.243  17.737  0.00  0.00    +0.265 C 
ENDROOT
BRANCH  15  16
ATOM      8  N   UNL     1      13.694  10.587  17.330  0.00  0.00    -0.262 N 
ATOM      9  N   UNL     1      14.367  11.336  16.442  0.00  0.00    -0.176 NA
ATOM     16  C   UNL     1      13.553   9.283  16.958  0.00  0.00    +0.123 A 
ATOM     18  C   UNL     1      14.177   9.171  15.740  0.00  0.00    +0.057 A 
ATOM     21  C   UNL     1      14.661  10.465  15.472  0.00  0.00    +0.061 A 
ATOM     25  C   UNL     1      13.203  11.202  18.543  0.00  0.00    +0.173 C 
ATOM     26  C   UNL     1      15.414  10.914  14.289  0.00  0.00    +0.067 C 
ENDBRANCH  15  16
BRANCH  10   3
ATOM      3  O   UNL     1      16.498   8.470  20.943  0.00  0.00    -0.485 OA
BRANCH   3  17
ATOM     17  C   UNL     1      17.625   7.696  20.963  0.00  0.00    +0.121 A 
ATOM     19  C   UNL     1      18.712   8.067  21.754  0.00  0.00    +0.047 A 
ATOM     20  C   UNL     1      17.687   6.536  20.191  0.00  0.00    +0.047 A 
ATOM     22  C   UNL     1      19.923   6.116  21.001  0.00  0.00    +0.088 A 
ATOM     23  C   UNL     1      19.861   7.276  21.773  0.00  0.00    +0.030 A 
ATOM     24  C   UNL     1      18.836   5.746  20.210  0.00  0.00    +0.030 A 
BRANCH  22   1
ATOM      1  S   UNL     1      21.364   5.130  21.022  0.00  0.00    -0.006 S 
ATOM      5  O   UNL     1      21.001   3.757  20.696  0.00  0.00    -0.170 OA
ATOM      6  O   UNL     1      22.387   5.812  20.243  0.00  0.00    -0.170 OA
ATOM     27  C   UNL     1      21.879   5.137  22.725  0.00  0.00    +0.200 C 
ENDBRANCH  22   1
ENDBRANCH   3  17
ENDBRANCH  10   3
TORSDOF 4
ENDMDL
MODEL 2
REMARK VINA RESULT:      -6.7      4.318      9.143
REMARK  Name = 75536891
REMARK  7 active torsions:
REMARK  status: ('A' for Active; 'I' for Inactive)
REMARK    1  A    between atoms: S_1  and  C_22
REMARK    2  A    between atoms: S_1  and  C_27
REMARK    3  A    between atoms: O_3  and  C_10
REMARK    4  A    between atoms: O_3  and  C_17
REMARK    5  A    between atoms: N_8  and  C_25
REMARK    6  A    between atoms: C_15  and  C_16
REMARK    7  A    between atoms: C_21  and  C_26
REMARK                            x       y       z     vdW  Elec       q    Type
REMARK                         _______ _______ _______ _____ _____    ______ ____
ROOT
ATOM      2  O   UNL     1      19.856   9.426  22.071  0.00  0.00    -0.375 OA
ATOM      4  O   UNL     1      24.169   7.428  21.229  0.00  0.00    -0.268 OA
ATOM      7  N   UNL     1      21.852   7.313  20.899  0.00  0.00    -0.291 N 
ATOM     10  C   UNL     1      19.309   7.244  21.128  0.00  0.00    +0.216 C 
ATOM     11  C   UNL     1      20.627   6.503  20.882  0.00  0.00    +0.155 C 
ATOM     12  C   UNL     1      21.737   8.752  20.656  0.00  0.00    +0.136 C 
ATOM     13  C   UNL     1      19.341   8.133  22.369  0.00  0.00    +0.206 C 
ATOM     14  C   UNL     1      21.269   9.483  21.908  0.00  0.00    +0.179 C 
ATOM     15  C   UNL     1      23.123   6.782  21.172  0.00  0.00    +0.265 C 
ENDROOT
BRANCH  15  16
ATOM      8  N   UNL     1      23.002   4.712  22.606  0.00  0.00    -0.262 N 
ATOM      9  N   UNL     1      23.177   3.381  22.565  0.00  0.00    -0.176 NA
ATOM     16  C   UNL     1      23.237   5.335  21.416  0.00  0.00    +0.123 A 
ATOM     18  C   UNL     1      23.593   4.343  20.536  0.00  0.00    +0.057 A 
ATOM     21  C   UNL     1      23.538   3.161  21.297  0.00  0.00    +0.061 A 
ATOM     25  C   UNL     1      22.599   5.334  23.846  0.00  0.00    +0.173 C 
ATOM     26  C   UNL     1      23.825   1.789  20.847  0.00  0.00    +0.067 C 
ENDBRANCH  15  16
BRANCH  10   3
ATOM      3  O   UNL     1      18.301   6.247  21.295  0.00  0.00    -0.485 OA
BRANCH   3  17
ATOM     17  C   UNL     1      17.088   6.501  20.718  0.00  0.00    +0.121 A 
ATOM     19  C   UNL     1      16.924   6.349  19.341  0.00  0.00    +0.047 A 
ATOM     20  C   UNL     1      16.014   6.912  21.507  0.00  0.00    +0.047 A 
ATOM     22  C   UNL     1      14.612   7.019  19.543  0.00  0.00    +0.088 A 
ATOM     23  C   UNL     1      15.686   6.609  18.754  0.00  0.00    +0.030 A 
ATOM     24  C   UNL     1      14.775   7.171  20.921  0.00  0.00    +0.030 A 
BRANCH  22   1
ATOM      1  S   UNL     1      13.063   7.348  18.807  0.00  0.00    -0.006 S 
ATOM      5  O   UNL     1      13.220   7.349  17.358  0.00  0.00    -0.170 OA
ATOM      6  O   UNL     1      12.076   6.474  19.426  0.00  0.00    -0.170 OA
ATOM     27  C   UNL     1      12.691   9.020  19.288  0.00  0.00    +0.200 C 
ENDBRANCH  22   1
ENDBRANCH   3  17
ENDBRANCH  10   3
TORSDOF 4
ENDMDL
MODEL 3
REMARK VINA RESULT:      -6.7     13.638     16.996
REMARK  Name = 75536891
REMARK  7 active torsions:
REMARK  status: ('A' for Active; 'I' for Inactive)
REMARK    1  A    between atoms: S_1  and  C_22
REMARK    2  A    between atoms: S_1  and  C_27
REMARK    3  A    between atoms: O_3  and  C_10
REMARK    4  A    between atoms: O_3  and  C_17
REMARK    5  A    between atoms: N_8  and  C_25
REMARK    6  A    between atoms: C_15  and  C_16
REMARK    7  A    between atoms: C_21  and  C_26
REMARK                            x       y       z     vdW  Elec       q    Type
REMARK                         _______ _______ _______ _____ _____    ______ ____
ROOT
ATOM      2  O   UNL     1       8.234  10.079   3.571  0.00  0.00    -0.375 OA
ATOM      4  O   UNL     1      10.302   9.640   7.910  0.00  0.00    -0.268 OA
ATOM      7  N   UNL     1      10.156   8.840   5.713  0.00  0.00    -0.291 N 
ATOM     10  C   UNL     1       9.419   7.952   3.435  0.00  0.00    +0.216 C 
ATOM     11  C   UNL     1      10.063   7.693   4.800  0.00  0.00    +0.155 C 
ATOM     12  C   UNL     1      10.107  10.187   5.143  0.00  0.00    +0.136 C 
ATOM     13  C   UNL     1       8.072   8.665   3.531  0.00  0.00    +0.206 C 
ATOM     14  C   UNL     1       8.674  10.595   4.822  0.00  0.00    +0.179 C 
ATOM     15  C   UNL     1      10.254   8.709   7.107  0.00  0.00    +0.265 C 
ENDROOT
BRANCH  15  16
ATOM      8  N   UNL     1      11.401   6.543   7.700  0.00  0.00    -0.262 N 
ATOM      9  N   UNL     1      11.185   5.352   8.281  0.00  0.00    -0.176 NA
ATOM     16  C   UNL     1      10.304   7.354   7.679  0.00  0.00    +0.123 A 
ATOM     18  C   UNL     1       9.300   6.643   8.289  0.00  0.00    +0.057 A 
ATOM     21  C   UNL     1       9.899   5.418   8.640  0.00  0.00    +0.061 A 
ATOM     25  C   UNL     1      12.712   6.844   7.173  0.00  0.00    +0.173 C 
ATOM     26  C   UNL     1       9.271   4.276   9.325  0.00  0.00    +0.067 C 
ENDBRANCH  15  16
BRANCH  10   3
ATOM      3  O   UNL     1       9.227   6.676   2.822  0.00  0.00    -0.485 OA
BRANCH   3  17
ATOM     17  C   UNL     1      10.348   6.047   2.356  0.00  0.00    +0.121 A 
ATOM     19  C   UNL     1      10.633   4.741   2.757  0.00  0.00    +0.047 A 
ATOM     20  C   UNL     1      11.205   6.710   1.479  0.00  0.00    +0.047 A 
ATOM     22  C   UNL     1      12.634   4.764   1.403  0.00  0.00    +0.088 A 
ATOM     23  C   UNL     1      11.776   4.100   2.281  0.00  0.00    +0.030 A 
ATOM     24  C   UNL     1      12.349   6.069   1.002  0.00  0.00    +0.030 A 
BRANCH  22   1
ATOM      1  S   UNL     1      14.068   3.962   0.811  0.00  0.00    -0.006 S 
ATOM      5  O   UNL     1      14.585   3.088   1.856  0.00  0.00    -0.170 OA
ATOM      6  O   UNL     1      13.766   3.416  -0.505  0.00  0.00    -0.170 OA
ATOM     27  C   UNL     1      15.252   5.273   0.601  0.00  0.00    +0.200 C 
ENDBRANCH  22   1
ENDBRANCH   3  17
ENDBRANCH  10   3
TORSDOF 4
ENDMDL
MODEL 4
REMARK VINA RESULT:      -6.7     31.697     33.758
REMARK  Name = 75536891
REMARK  7 active torsions:
REMARK  status: ('A' for Active; 'I' for Inactive)
REMARK    1  A    between atoms: S_1  and  C_22
REMARK    2  A    between atoms: S_1  and  C_27
REMARK    3  A    between atoms: O_3  and  C_10
REMARK    4  A    between atoms: O_3  and  C_17
REMARK    5  A    between atoms: N_8  and  C_25
REMARK    6  A    between atoms: C_15  and  C_16
REMARK    7  A    between atoms: C_21  and  C_26
REMARK                            x       y       z     vdW  Elec       q    Type
REMARK                         _______ _______ _______ _____ _____    ______ ____
ROOT
ATOM      2  O   UNL     1     -16.850   6.422  33.350  0.00  0.00    -0.375 OA
ATOM      4  O   UNL     1     -14.182  10.229  34.650  0.00  0.00    -0.268 OA
ATOM      7  N   UNL     1     -14.212   8.064  33.754  0.00  0.00    -0.291 N 
ATOM     10  C   UNL     1     -14.561   5.583  33.260  0.00  0.00    +0.216 C 
ATOM     11  C   UNL     1     -13.636   6.713  33.720  0.00  0.00    +0.155 C 
ATOM     12  C   UNL     1     -15.388   8.339  32.927  0.00  0.00    +0.136 C 
ATOM     13  C   UNL     1     -15.904   5.570  33.988  0.00  0.00    +0.206 C 
ATOM     14  C   UNL     1     -16.657   7.811  33.586  0.00  0.00    +0.179 C 
ATOM     15  C   UNL     1     -13.712   9.094  34.566  0.00  0.00    +0.265 C 
ENDROOT
BRANCH  15  16
ATOM      8  N   UNL     1     -11.255   9.213  35.116  0.00  0.00    -0.262 N 
ATOM      9  N   UNL     1     -10.353   8.833  36.036  0.00  0.00    -0.176 NA
ATOM     16  C   UNL     1     -12.530   8.818  35.396  0.00  0.00    +0.123 A 
ATOM     18  C   UNL     1     -12.456   8.129  36.583  0.00  0.00    +0.057 A 
ATOM     21  C   UNL     1     -11.093   8.171  36.930  0.00  0.00    +0.061 A 
ATOM     25  C   UNL     1     -10.815   9.971  33.967  0.00  0.00    +0.173 C 
ATOM     26  C   UNL     1     -10.452   7.585  38.119  0.00  0.00    +0.067 C 
ENDBRANCH  15  16
BRANCH  10   3
ATOM      3  O   UNL     1     -13.877   4.358  33.524  0.00  0.00    -0.485 OA
BRANCH   3  17
ATOM     17  C   UNL     1     -14.152   3.311  32.689  0.00  0.00    +0.121 A 
ATOM     19  C   UNL     1     -14.597   2.097  33.213  0.00  0.00    +0.047 A 
ATOM     20  C   UNL     1     -13.987   3.457  31.311  0.00  0.00    +0.047 A 
ATOM     22  C   UNL     1     -14.712   1.177  30.983  0.00  0.00    +0.088 A 
ATOM     23  C   UNL     1     -14.877   1.030  32.360  0.00  0.00    +0.030 A 
ATOM     24  C   UNL     1     -14.267   2.390  30.458  0.00  0.00    +0.030 A 
BRANCH  22   1
ATOM      1  S   UNL     1     -15.059  -0.161  29.915  0.00  0.00    -0.006 S 
ATOM      5  O   UNL     1     -15.730  -1.209  30.675  0.00  0.00    -0.170 OA
ATOM      6  O   UNL     1     -15.684   0.373  28.714  0.00  0.00    -0.170 OA
ATOM     27  C   UNL     1     -13.458  -0.793  29.465  0.00  0.00    +0.200 C 
ENDBRANCH  22   1
ENDBRANCH   3  17
ENDBRANCH  10   3
TORSDOF 4
ENDMDL
MODEL 5
REMARK VINA RESULT:      -6.5     16.279     19.912
REMARK  Name = 75536891
REMARK  7 active torsions:
REMARK  status: ('A' for Active; 'I' for Inactive)
REMARK    1  A    between atoms: S_1  and  C_22
REMARK    2  A    between atoms: S_1  and  C_27
REMARK    3  A    between atoms: O_3  and  C_10
REMARK    4  A    between atoms: O_3  and  C_17
REMARK    5  A    between atoms: N_8  and  C_25
REMARK    6  A    between atoms: C_15  and  C_16
REMARK    7  A    between atoms: C_21  and  C_26
REMARK                            x       y       z     vdW  Elec       q    Type
REMARK                         _______ _______ _______ _____ _____    ______ ____
ROOT
ATOM      2  O   UNL     1      14.161   3.599   1.685  0.00  0.00    -0.375 OA
ATOM      4  O   UNL     1      13.479   4.949  -2.899  0.00  0.00    -0.268 OA
ATOM      7  N   UNL     1      12.675   4.988  -0.698  0.00  0.00    -0.291 N 
ATOM     10  C   UNL     1      11.874   4.447   1.665  0.00  0.00    +0.216 C 
ATOM     11  C   UNL     1      11.542   4.847   0.225  0.00  0.00    +0.155 C 
ATOM     12  C   UNL     1      14.005   5.228  -0.135  0.00  0.00    +0.136 C 
ATOM     13  C   UNL     1      12.789   3.227   1.755  0.00  0.00    +0.206 C 
ATOM     14  C   UNL     1      14.623   3.935   0.381  0.00  0.00    +0.179 C 
ATOM     15  C   UNL     1      12.553   4.870  -2.093  0.00  0.00    +0.265 C 
ENDROOT
BRANCH  15  16
ATOM      8  N   UNL     1      10.643   3.405  -2.842  0.00  0.00    -0.262 N 
ATOM      9  N   UNL     1       9.412   3.456  -3.378  0.00  0.00    -0.176 NA
ATOM     16  C   UNL     1      11.216   4.629  -2.658  0.00  0.00    +0.123 A 
ATOM     18  C   UNL     1      10.296   5.545  -3.105  0.00  0.00    +0.057 A 
ATOM     21  C   UNL     1       9.205   4.767  -3.536  0.00  0.00    +0.061 A 
ATOM     25  C   UNL     1      11.222   2.119  -2.525  0.00  0.00    +0.173 C 
ATOM     26  C   UNL     1       7.935   5.242  -4.110  0.00  0.00    +0.067 C 
ENDBRANCH  15  16
BRANCH  10   3
ATOM      3  O   UNL     1      10.634   4.147   2.306  0.00  0.00    -0.485 OA
BRANCH   3  17
ATOM     17  C   UNL     1      10.332   4.874   3.424  0.00  0.00    +0.121 A 
ATOM     19  C   UNL     1      10.271   4.247   4.669  0.00  0.00    +0.047 A 
ATOM     20  C   UNL     1      10.084   6.243   3.319  0.00  0.00    +0.047 A 
ATOM     22  C   UNL     1       9.714   6.358   5.703  0.00  0.00    +0.088 A 
ATOM     23  C   UNL     1       9.962   4.990   5.808  0.00  0.00    +0.030 A 
ATOM     24  C   UNL     1       9.775   6.985   4.458  0.00  0.00    +0.030 A 
BRANCH  22   1
ATOM      1  S   UNL     1       9.324   7.286   7.130  0.00  0.00    -0.006 S 
ATOM      5  O   UNL     1      10.373   8.273   7.353  0.00  0.00    -0.170 OA
ATOM      6  O   UNL     1       7.938   7.718   7.019  0.00  0.00    -0.170 OA
ATOM     27  C   UNL     1       9.426   6.112   8.462  0.00  0.00    +0.200 C 
ENDBRANCH  22   1
ENDBRANCH   3  17
ENDBRANCH  10   3
TORSDOF 4
ENDMDL
MODEL 6
REMARK VINA RESULT:      -6.2     27.485     31.057
REMARK  Name = 75536891
REMARK  7 active torsions:
REMARK  status: ('A' for Active; 'I' for Inactive)
REMARK    1  A    between atoms: S_1  and  C_22
REMARK    2  A    between atoms: S_1  and  C_27
REMARK    3  A    between atoms: O_3  and  C_10
REMARK    4  A    between atoms: O_3  and  C_17
REMARK    5  A    between atoms: N_8  and  C_25
REMARK    6  A    between atoms: C_15  and  C_16
REMARK    7  A    between atoms: C_21  and  C_26
REMARK                            x       y       z     vdW  Elec       q    Type
REMARK                         _______ _______ _______ _____ _____    ______ ____
ROOT
ATOM      2  O   UNL     1      -9.015 -11.084  18.754  0.00  0.00    -0.375 OA
ATOM      4  O   UNL     1      -4.271 -11.877  19.168  0.00  0.00    -0.268 OA
ATOM      7  N   UNL     1      -5.971 -10.590  18.196  0.00  0.00    -0.291 N 
ATOM     10  C   UNL     1      -8.042  -9.714  16.986  0.00  0.00    +0.216 C 
ATOM     11  C   UNL     1      -6.529  -9.949  16.998  0.00  0.00    +0.155 C 
ATOM     12  C   UNL     1      -6.735 -10.517  19.443  0.00  0.00    +0.136 C 
ATOM     13  C   UNL     1      -8.848 -10.960  17.346  0.00  0.00    +0.206 C 
ATOM     14  C   UNL     1      -7.863 -11.541  19.454  0.00  0.00    +0.179 C 
ATOM     15  C   UNL     1      -4.759 -11.299  18.197  0.00  0.00    +0.265 C 
ENDROOT
BRANCH  15  16
ATOM      8  N   UNL     1      -4.084 -12.365  16.015  0.00  0.00    -0.262 N 
ATOM      9  N   UNL     1      -3.274 -12.196  14.956  0.00  0.00    -0.176 NA
ATOM     16  C   UNL     1      -3.991 -11.371  16.944  0.00  0.00    +0.123 A 
ATOM     18  C   UNL     1      -3.054 -10.491  16.460  0.00  0.00    +0.057 A 
ATOM     21  C   UNL     1      -2.647 -11.049  15.234  0.00  0.00    +0.061 A 
ATOM     25  C   UNL     1      -4.940 -13.528  16.071  0.00  0.00    +0.173 C 
ATOM     26  C   UNL     1      -1.653 -10.513  14.290  0.00  0.00    +0.067 C 
ENDBRANCH  15  16
BRANCH  10   3
ATOM      3  O   UNL     1      -8.384  -9.305  15.661  0.00  0.00    -0.485 OA
BRANCH   3  17
ATOM     17  C   UNL     1      -9.589  -8.677  15.507  0.00  0.00    +0.121 A 
ATOM     19  C   UNL     1      -9.954  -7.643  16.370  0.00  0.00    +0.047 A 
ATOM     20  C   UNL     1     -10.454  -9.071  14.486  0.00  0.00    +0.047 A 
ATOM     22  C   UNL     1     -12.048  -7.398  15.190  0.00  0.00    +0.088 A 
ATOM     23  C   UNL     1     -11.183  -7.004  16.211  0.00  0.00    +0.030 A 
ATOM     24  C   UNL     1     -11.683  -8.432  14.327  0.00  0.00    +0.030 A 
BRANCH  22   1
ATOM      1  S   UNL     1     -13.588  -6.600  14.995  0.00  0.00    -0.006 S 
ATOM      5  O   UNL     1     -14.294  -6.618  16.271  0.00  0.00    -0.170 OA
ATOM      6  O   UNL     1     -13.355  -5.333  14.317  0.00  0.00    -0.170 OA
ATOM     27  C   UNL     1     -14.495  -7.655  13.887  0.00  0.00    +0.200 C 
ENDBRANCH  22   1
ENDBRANCH   3  17
ENDBRANCH  10   3
TORSDOF 4
ENDMDL
MODEL 7
REMARK VINA RESULT:      -5.9     28.601     31.996
REMARK  Name = 75536891
REMARK  7 active torsions:
REMARK  status: ('A' for Active; 'I' for Inactive)
REMARK    1  A    between atoms: S_1  and  C_22
REMARK    2  A    between atoms: S_1  and  C_27
REMARK    3  A    between atoms: O_3  and  C_10
REMARK    4  A    between atoms: O_3  and  C_17
REMARK    5  A    between atoms: N_8  and  C_25
REMARK    6  A    between atoms: C_15  and  C_16
REMARK    7  A    between atoms: C_21  and  C_26
REMARK                            x       y       z     vdW  Elec       q    Type
REMARK                         _______ _______ _______ _____ _____    ______ ____
ROOT
ATOM      2  O   UNL     1     -11.494 -10.746  18.108  0.00  0.00    -0.375 OA
ATOM      4  O   UNL     1      -7.357 -12.114  20.186  0.00  0.00    -0.268 OA
ATOM      7  N   UNL     1      -8.430 -10.602  18.752  0.00  0.00    -0.291 N 
ATOM     10  C   UNL     1      -9.797  -9.447  16.931  0.00  0.00    +0.216 C 
ATOM     11  C   UNL     1      -8.431  -9.862  17.484  0.00  0.00    +0.155 C 
ATOM     12  C   UNL     1      -9.595 -10.478  19.630  0.00  0.00    +0.136 C 
ATOM     13  C   UNL     1     -10.798 -10.599  16.874  0.00  0.00    +0.206 C 
ATOM     14  C   UNL     1     -10.741 -11.359  19.148  0.00  0.00    +0.179 C 
ATOM     15  C   UNL     1      -7.384 -11.451  19.149  0.00  0.00    +0.265 C 
ENDROOT
BRANCH  15  16
ATOM      8  N   UNL     1      -6.008 -12.573  17.360  0.00  0.00    -0.262 N 
ATOM      9  N   UNL     1      -4.857 -12.457  16.676  0.00  0.00    -0.176 NA
ATOM     16  C   UNL     1      -6.213 -11.575  18.267  0.00  0.00    +0.123 A 
ATOM     18  C   UNL     1      -5.120 -10.750  18.171  0.00  0.00    +0.057 A 
ATOM     21  C   UNL     1      -4.319 -11.341  17.176  0.00  0.00    +0.061 A 
ATOM     25  C   UNL     1      -6.882 -13.690  17.086  0.00  0.00    +0.173 C 
ATOM     26  C   UNL     1      -3.020 -10.866  16.670  0.00  0.00    +0.067 C 
ENDBRANCH  15  16
BRANCH  10   3
ATOM      3  O   UNL     1      -9.574  -8.959  15.607  0.00  0.00    -0.485 OA
BRANCH   3  17
ATOM     17  C   UNL     1     -10.507  -8.092  15.110  0.00  0.00    +0.121 A 
ATOM     19  C   UNL     1     -10.696  -6.848  15.714  0.00  0.00    +0.047 A 
ATOM     20  C   UNL     1     -11.269  -8.451  13.999  0.00  0.00    +0.047 A 
ATOM     22  C   UNL     1     -12.410  -6.324  14.094  0.00  0.00    +0.088 A 
ATOM     23  C   UNL     1     -11.648  -5.965  15.205  0.00  0.00    +0.030 A 
ATOM     24  C   UNL     1     -12.221  -7.567  13.490  0.00  0.00    +0.030 A 
BRANCH  22   1
ATOM      1  S   UNL     1     -13.605  -5.219  13.461  0.00  0.00    -0.006 S 
ATOM      5  O   UNL     1     -14.871  -5.451  14.144  0.00  0.00    -0.170 OA
ATOM      6  O   UNL     1     -13.022  -3.884  13.453  0.00  0.00    -0.170 OA
ATOM     27  C   UNL     1     -13.827  -5.729  11.771  0.00  0.00    +0.200 C 
ENDBRANCH  22   1
ENDBRANCH   3  17
ENDBRANCH  10   3
TORSDOF 4
ENDMDL
MODEL 8
REMARK VINA RESULT:      -5.8     27.472     30.743
REMARK  Name = 75536891
REMARK  7 active torsions:
REMARK  status: ('A' for Active; 'I' for Inactive)
REMARK    1  A    between atoms: S_1  and  C_22
REMARK    2  A    between atoms: S_1  and  C_27
REMARK    3  A    between atoms: O_3  and  C_10
REMARK    4  A    between atoms: O_3  and  C_17
REMARK    5  A    between atoms: N_8  and  C_25
REMARK    6  A    between atoms: C_15  and  C_16
REMARK    7  A    between atoms: C_21  and  C_26
REMARK                            x       y       z     vdW  Elec       q    Type
REMARK                         _______ _______ _______ _____ _____    ______ ____
ROOT
ATOM      2  O   UNL     1     -12.409  10.986  14.833  0.00  0.00    -0.375 OA
ATOM      4  O   UNL     1      -9.776   9.649  18.651  0.00  0.00    -0.268 OA
ATOM      7  N   UNL     1     -11.390   9.038  17.065  0.00  0.00    -0.291 N 
ATOM     10  C   UNL     1     -13.411   8.869  15.515  0.00  0.00    +0.216 C 
ATOM     11  C   UNL     1     -12.675   8.392  16.770  0.00  0.00    +0.155 C 
ATOM     12  C   UNL     1     -10.671   9.690  15.969  0.00  0.00    +0.136 C 
ATOM     13  C   UNL     1     -13.550  10.388  15.439  0.00  0.00    +0.206 C 
ATOM     14  C   UNL     1     -11.260  11.062  15.668  0.00  0.00    +0.179 C 
ATOM     15  C   UNL     1     -10.833   9.091  18.353  0.00  0.00    +0.265 C 
ENDROOT
BRANCH  15  16
ATOM      8  N   UNL     1     -12.363   9.063  20.356  0.00  0.00    -0.262 N 
ATOM      9  N   UNL     1     -12.906   8.237  21.266  0.00  0.00    -0.176 NA
ATOM     16  C   UNL     1     -11.555   8.435  19.454  0.00  0.00    +0.123 A 
ATOM     18  C   UNL     1     -11.570   7.106  19.799  0.00  0.00    +0.057 A 
ATOM     21  C   UNL     1     -12.418   7.042  20.920  0.00  0.00    +0.061 A 
ATOM     25  C   UNL     1     -12.669  10.475  20.412  0.00  0.00    +0.173 C 
ATOM     26  C   UNL     1     -12.791   5.848  21.696  0.00  0.00    +0.067 C 
ENDBRANCH  15  16
BRANCH  10   3
ATOM      3  O   UNL     1     -14.713   8.284  15.554  0.00  0.00    -0.485 OA
BRANCH   3  17
ATOM     17  C   UNL     1     -14.996   7.354  14.592  0.00  0.00    +0.121 A 
ATOM     19  C   UNL     1     -14.178   7.243  13.467  0.00  0.00    +0.047 A 
ATOM     20  C   UNL     1     -16.102   6.517  14.736  0.00  0.00    +0.047 A 
ATOM     22  C   UNL     1     -15.574   5.458  12.630  0.00  0.00    +0.088 A 
ATOM     23  C   UNL     1     -14.468   6.295  12.486  0.00  0.00    +0.030 A 
ATOM     24  C   UNL     1     -16.392   5.569  13.755  0.00  0.00    +0.030 A 
BRANCH  22   1
ATOM      1  S   UNL     1     -15.938   4.274  11.399  0.00  0.00    -0.006 S 
ATOM      5  O   UNL     1     -16.359   4.967  10.188  0.00  0.00    -0.170 OA
ATOM      6  O   UNL     1     -14.833   3.328  11.345  0.00  0.00    -0.170 OA
ATOM     27  C   UNL     1     -17.364   3.412  12.023  0.00  0.00    +0.200 C 
ENDBRANCH  22   1
ENDBRANCH   3  17
ENDBRANCH  10   3
TORSDOF 4
ENDMDL
MODEL 9
REMARK VINA RESULT:      -5.7     27.259     30.289
REMARK  Name = 75536891
REMARK  7 active torsions:
REMARK  status: ('A' for Active; 'I' for Inactive)
REMARK    1  A    between atoms: S_1  and  C_22
REMARK    2  A    between atoms: S_1  and  C_27
REMARK    3  A    between atoms: O_3  and  C_10
REMARK    4  A    between atoms: O_3  and  C_17
REMARK    5  A    between atoms: N_8  and  C_25
REMARK    6  A    between atoms: C_15  and  C_16
REMARK    7  A    between atoms: C_21  and  C_26
REMARK                            x       y       z     vdW  Elec       q    Type
REMARK                         _______ _______ _______ _____ _____    ______ ____
ROOT
ATOM      2  O   UNL     1      -2.643  -9.660  10.816  0.00  0.00    -0.375 OA
ATOM      4  O   UNL     1      -1.547 -11.655  15.072  0.00  0.00    -0.268 OA
ATOM      7  N   UNL     1      -3.080 -11.511  13.306  0.00  0.00    -0.291 N 
ATOM     10  C   UNL     1      -4.707 -10.775  11.482  0.00  0.00    +0.216 C 
ATOM     11  C   UNL     1      -4.475 -11.392  12.864  0.00  0.00    +0.155 C 
ATOM     12  C   UNL     1      -2.026 -11.515  12.289  0.00  0.00    +0.136 C 
ATOM     13  C   UNL     1      -3.972  -9.452  11.282  0.00  0.00    +0.206 C 
ATOM     14  C   UNL     1      -1.724 -10.101  11.809  0.00  0.00    +0.179 C 
ATOM     15  C   UNL     1      -2.703 -11.587  14.657  0.00  0.00    +0.265 C 
ENDROOT
BRANCH  15  16
ATOM      8  N   UNL     1      -4.493 -12.669  16.064  0.00  0.00    -0.262 N 
ATOM      9  N   UNL     1      -5.401 -12.402  17.017  0.00  0.00    -0.176 NA
ATOM     16  C   UNL     1      -3.762 -11.584  15.678  0.00  0.00    +0.123 A 
ATOM     18  C   UNL     1      -4.226 -10.533  16.430  0.00  0.00    +0.057 A 
ATOM     21  C   UNL     1      -5.233 -11.094  17.237  0.00  0.00    +0.061 A 
ATOM     25  C   UNL     1      -4.377 -14.018  15.558  0.00  0.00    +0.173 C 
ATOM     26  C   UNL     1      -6.065 -10.409  18.240  0.00  0.00    +0.067 C 
ENDBRANCH  15  16
BRANCH  10   3
ATOM      3  O   UNL     1      -6.113 -10.549  11.363  0.00  0.00    -0.485 OA
BRANCH   3  17
ATOM     17  C   UNL     1      -6.546  -9.995  10.191  0.00  0.00    +0.121 A 
ATOM     19  C   UNL     1      -7.444  -8.927  10.213  0.00  0.00    +0.047 A 
ATOM     20  C   UNL     1      -6.091 -10.499   8.972  0.00  0.00    +0.047 A 
ATOM     22  C   UNL     1      -7.430  -8.868   7.797  0.00  0.00    +0.088 A 
ATOM     23  C   UNL     1      -7.885  -8.364   9.016  0.00  0.00    +0.030 A 
ATOM     24  C   UNL     1      -6.533  -9.936   7.776  0.00  0.00    +0.030 A 
BRANCH  22   1
ATOM      1  S   UNL     1      -7.987  -8.165   6.299  0.00  0.00    -0.006 S 
ATOM      5  O   UNL     1      -8.457  -6.810   6.560  0.00  0.00    -0.170 OA
ATOM      6  O   UNL     1      -6.965  -8.393   5.288  0.00  0.00    -0.170 OA
ATOM     27  C   UNL     1      -9.415  -9.132   5.862  0.00  0.00    +0.200 C 
ENDBRANCH  22   1
ENDBRANCH   3  17
ENDBRANCH  10   3
TORSDOF 4
ENDMDL
MODEL 10
REMARK VINA RESULT:      -5.7     13.956     18.485
REMARK  Name = 75536891
REMARK  7 active torsions:
REMARK  status: ('A' for Active; 'I' for Inactive)
REMARK    1  A    between atoms: S_1  and  C_22
REMARK    2  A    between atoms: S_1  and  C_27
REMARK    3  A    between atoms: O_3  and  C_10
REMARK    4  A    between atoms: O_3  and  C_17
REMARK    5  A    between atoms: N_8  and  C_25
REMARK    6  A    between atoms: C_15  and  C_16
REMARK    7  A    between atoms: C_21  and  C_26
REMARK                            x       y       z     vdW  Elec       q    Type
REMARK                         _______ _______ _______ _____ _____    ______ ____
ROOT
ATOM      2  O   UNL     1      11.134  11.014   5.403  0.00  0.00    -0.375 OA
ATOM      4  O   UNL     1      12.937   6.699   6.596  0.00  0.00    -0.268 OA
ATOM      7  N   UNL     1      11.147   7.892   5.667  0.00  0.00    -0.291 N 
ATOM     10  C   UNL     1       9.234   9.504   5.155  0.00  0.00    +0.216 C 
ATOM     11  C   UNL     1       9.697   8.106   5.575  0.00  0.00    +0.155 C 
ATOM     12  C   UNL     1      12.031   8.788   4.921  0.00  0.00    +0.136 C 
ATOM     13  C   UNL     1       9.886  10.622   5.965  0.00  0.00    +0.206 C 
ATOM     14  C   UNL     1      12.208  10.115   5.649  0.00  0.00    +0.179 C 
ATOM     15  C   UNL     1      11.729   6.892   6.464  0.00  0.00    +0.265 C 
ENDROOT
BRANCH  15  16
ATOM      8  N   UNL     1      10.157   4.934   6.687  0.00  0.00    -0.262 N 
ATOM      9  N   UNL     1       9.412   4.268   7.584  0.00  0.00    -0.176 NA
ATOM     16  C   UNL     1      10.840   5.991   7.214  0.00  0.00    +0.123 A 
ATOM     18  C   UNL     1      10.518   6.019   8.548  0.00  0.00    +0.057 A 
ATOM     21  C   UNL     1       9.636   4.935   8.720  0.00  0.00    +0.061 A 
ATOM     25  C   UNL     1      10.168   4.493   5.311  0.00  0.00    +0.173 C 
ATOM     26  C   UNL     1       8.981   4.500   9.965  0.00  0.00    +0.067 C 
ENDBRANCH  15  16
BRANCH  10   3
ATOM      3  O   UNL     1       7.821   9.547   5.354  0.00  0.00    -0.485 OA
BRANCH   3  17
ATOM     17  C   UNL     1       7.052   9.764   4.245  0.00  0.00    +0.121 A 
ATOM     19  C   UNL     1       5.857  10.474   4.351  0.00  0.00    +0.047 A 
ATOM     20  C   UNL     1       7.465   9.273   3.006  0.00  0.00    +0.047 A 
ATOM     22  C   UNL     1       5.486  10.204   1.979  0.00  0.00    +0.088 A 
ATOM     23  C   UNL     1       5.074  10.695   3.218  0.00  0.00    +0.030 A 
ATOM     24  C   UNL     1       6.682   9.493   1.873  0.00  0.00    +0.030 A 
BRANCH  22   1
ATOM      1  S   UNL     1       4.503  10.477   0.562  0.00  0.00    -0.006 S 
ATOM      5  O   UNL     1       5.275  11.243  -0.408  0.00  0.00    -0.170 OA
ATOM      6  O   UNL     1       3.913   9.204   0.173  0.00  0.00    -0.170 OA
ATOM     27  C   UNL     1       3.192  11.537   1.132  0.00  0.00    +0.200 C 
ENDBRANCH  22   1
ENDBRANCH   3  17
ENDBRANCH  10   3
TORSDOF 4
ENDMDL
