REMARK  Name = 26743352
REMARK  8 active torsions:
REMARK  status: ('A' for Active; 'I' for Inactive)
REMARK    1  A    between atoms: N_7  and  C_26
REMARK    2  A    between atoms: C_8  and  C_11
REMARK    3  A    between atoms: C_9  and  C_14
REMARK    4  A    between atoms: C_11  and  C_20
REMARK    5  A    between atoms: C_14  and  C_22
REMARK    6  A    between atoms: C_15  and  C_21
REMARK    7  A    between atoms: C_21  and  C_23
REMARK    8  A    between atoms: C_25  and  C_26
REMARK                            x       y       z     vdW  Elec       q    Type
REMARK                         _______ _______ _______ _____ _____    ______ ____
ROOT
ATOM      5  N   UNL     1       5.344   3.633   0.626  0.00  0.00    -0.316 NA
ATOM      8  C   UNL     1       3.376   1.434   0.650  0.00  0.00    +0.004 C 
ATOM      9  C   UNL     1       4.510   1.530  -0.398  0.00  0.00    +0.012 C 
ATOM     10  C   UNL     1       3.795   2.203   1.914  0.00  0.00    +0.019 C 
ATOM     12  C   UNL     1       4.952   2.986  -0.626  0.00  0.00    +0.085 C 
ATOM     13  C   UNL     1       4.259   3.626   1.605  0.00  0.00    +0.081 C 
ATOM     36  H   UNL     1       5.622   4.595   0.436  0.00  0.00    +0.122 HD
ENDROOT
BRANCH   8  11
ATOM     11  C   UNL     1       2.014   1.921   0.141  0.00  0.00    +0.100 C 
BRANCH  11  20
ATOM      1  O   UNL     1       1.198   0.571   1.909  0.00  0.00    -0.276 OA
ATOM      4  N   UNL     1      -0.392   1.721   0.666  0.00  0.00    -0.301 N 
ATOM     15  C   UNL     1      -3.013   1.478  -0.554  0.00  0.00    -0.004 C 
ATOM     16  C   UNL     1      -1.796   1.984  -1.343  0.00  0.00    +0.023 C 
ATOM     17  C   UNL     1      -2.559   0.551   0.584  0.00  0.00    +0.023 C 
ATOM     18  C   UNL     1      -0.766   2.633  -0.421  0.00  0.00    +0.108 C 
ATOM     19  C   UNL     1      -1.515   1.231   1.467  0.00  0.00    +0.108 C 
ATOM     20  C   UNL     1       0.910   1.341   0.989  0.00  0.00    +0.216 C 
BRANCH  15  21
ATOM     21  C   UNL     1      -4.000   0.764  -1.474  0.00  0.00    +0.038 C 
BRANCH  21  23
ATOM     23  C   UNL     1      -5.380   0.719  -0.879  0.00  0.00    -0.047 A 
ATOM     27  C   UNL     1      -5.757  -0.354  -0.071  0.00  0.00    +0.003 A 
ATOM     28  C   UNL     1      -6.284   1.750  -1.135  0.00  0.00    +0.003 A 
ATOM     31  C   UNL     1      -7.037  -0.396   0.481  0.00  0.00    +0.000 A 
ATOM     32  C   UNL     1      -7.565   1.708  -0.584  0.00  0.00    +0.000 A 
ATOM     35  C   UNL     1      -7.941   0.635   0.225  0.00  0.00    +0.000 A 
ENDBRANCH  21  23
ENDBRANCH  15  21
ENDBRANCH  11  20
ENDBRANCH   8  11
BRANCH   9  14
ATOM     14  C   UNL     1       4.156   0.862  -1.727  0.00  0.00    +0.064 C 
BRANCH  14  22
ATOM      2  O   UNL     1       4.127  -2.722  -1.387  0.00  0.00    -0.358 OA
ATOM      6  N   UNL     1       4.775  -1.513  -1.607  0.00  0.00    -0.083 NA
ATOM     22  C   UNL     1       3.814  -0.588  -1.537  0.00  0.00    +0.084 A 
ATOM     24  C   UNL     1       2.551  -1.148  -1.277  0.00  0.00    +0.072 A 
ATOM     25  C   UNL     1       2.803  -2.492  -1.192  0.00  0.00    +0.151 A 
BRANCH  25  26
ATOM     26  C   UNL     1       1.963  -3.670  -0.943  0.00  0.00    +0.161 C 
BRANCH  26   7
ATOM      3  O   UNL     1      -0.982  -4.078   2.019  0.00  0.00    -0.377 OA
ATOM      7  N   UNL     1       0.824  -3.391  -0.072  0.00  0.00    -0.291 NA
ATOM     29  C   UNL     1       1.238  -3.372   1.338  0.00  0.00    +0.113 C 
ATOM     30  C   UNL     1      -0.240  -4.385  -0.271  0.00  0.00    +0.113 C 
ATOM     33  C   UNL     1       0.030  -3.092   2.229  0.00  0.00    +0.175 C 
ATOM     34  C   UNL     1      -1.413  -4.081   0.657  0.00  0.00    +0.175 C 
ENDBRANCH  26   7
ENDBRANCH  25  26
ENDBRANCH  14  22
ENDBRANCH   9  14
TORSDOF 8
