MODEL 1
REMARK VINA RESULT:      -6.8      0.000      0.000
REMARK  Name = 45784337
REMARK  3 active torsions:
REMARK  status: ('A' for Active; 'I' for Inactive)
REMARK    1  A    between atoms: N_3  and  C_9
REMARK    2  A    between atoms: C_5  and  C_10
REMARK    3  A    between atoms: C_9  and  C_11
REMARK                            x       y       z     vdW  Elec       q    Type
REMARK                         _______ _______ _______ _____ _____    ______ ____
ROOT
ATOM      3  N   UNL     1      11.798   4.291   1.740  0.00  0.00    -0.297 NA
ATOM      5  C   UNL     1      10.293   5.020   3.383  0.00  0.00    +0.090 C 
ATOM      6  C   UNL     1      11.108   6.218   2.864  0.00  0.00    +0.029 C 
ATOM      7  C   UNL     1      11.069   3.786   2.905  0.00  0.00    +0.097 C 
ATOM      8  C   UNL     1      12.305   5.601   2.150  0.00  0.00    +0.085 C 
ENDROOT
BRANCH   5  10
ATOM      1  F   UNL     1       9.271   4.403  10.510  0.00  0.00    -0.205 F 
ATOM      2  O   UNL     1       9.651   6.207   5.413  0.00  0.00    -0.439 OA
ATOM      4  N   UNL     1      10.164   4.022   5.722  0.00  0.00    -0.213 NA
ATOM     10  C   UNL     1      10.046   5.020   4.875  0.00  0.00    +0.201 A 
ATOM     12  C   UNL     1       9.818   4.586   6.926  0.00  0.00    +0.112 A 
ATOM     13  C   UNL     1       9.504   5.924   6.740  0.00  0.00    +0.156 A 
ATOM     16  C   UNL     1       9.744   4.046   8.217  0.00  0.00    +0.070 A 
ATOM     17  C   UNL     1       9.113   6.794   7.751  0.00  0.00    +0.051 A 
ATOM     20  C   UNL     1       9.352   4.892   9.265  0.00  0.00    +0.126 A 
ATOM     21  C   UNL     1       9.044   6.239   9.033  0.00  0.00    +0.042 A 
ENDBRANCH   5  10
BRANCH   3   9
ATOM      9  C   UNL     1      12.864   3.392   1.319  0.00  0.00    +0.119 C 
BRANCH   9  11
ATOM     11  C   UNL     1      13.223   3.588  -0.129  0.00  0.00    -0.033 A 
ATOM     14  C   UNL     1      14.455   4.145  -0.474  0.00  0.00    +0.005 A 
ATOM     15  C   UNL     1      12.323   3.215  -1.127  0.00  0.00    +0.005 A 
ATOM     18  C   UNL     1      14.787   4.328  -1.816  0.00  0.00    +0.000 A 
ATOM     19  C   UNL     1      12.655   3.398  -2.469  0.00  0.00    +0.000 A 
ATOM     22  C   UNL     1      13.887   3.953  -2.814  0.00  0.00    +0.000 A 
ENDBRANCH   9  11
ENDBRANCH   3   9
TORSDOF 3
ENDMDL
MODEL 2
REMARK VINA RESULT:      -6.7     22.364     25.069
REMARK  Name = 45784337
REMARK  3 active torsions:
REMARK  status: ('A' for Active; 'I' for Inactive)
REMARK    1  A    between atoms: N_3  and  C_9
REMARK    2  A    between atoms: C_5  and  C_10
REMARK    3  A    between atoms: C_9  and  C_11
REMARK                            x       y       z     vdW  Elec       q    Type
REMARK                         _______ _______ _______ _____ _____    ______ ____
ROOT
ATOM      3  N   UNL     1      -2.167 -10.978  13.744  0.00  0.00    -0.297 NA
ATOM      5  C   UNL     1      -3.334 -10.308  15.664  0.00  0.00    +0.090 C 
ATOM      6  C   UNL     1      -1.918 -10.768  16.056  0.00  0.00    +0.029 C 
ATOM      7  C   UNL     1      -3.537 -10.848  14.242  0.00  0.00    +0.097 C 
ATOM      8  C   UNL     1      -1.414 -11.559  14.855  0.00  0.00    +0.085 C 
ENDROOT
BRANCH   5  10
ATOM      1  F   UNL     1      -8.204 -12.858  20.354  0.00  0.00    -0.205 F 
ATOM      2  O   UNL     1      -5.494  -9.894  16.714  0.00  0.00    -0.439 OA
ATOM      4  N   UNL     1      -4.479 -11.811  17.371  0.00  0.00    -0.213 NA
ATOM     10  C   UNL     1      -4.426 -10.734  16.619  0.00  0.00    +0.201 A 
ATOM     12  C   UNL     1      -5.682 -11.682  18.023  0.00  0.00    +0.112 A 
ATOM     13  C   UNL     1      -6.305 -10.509  17.623  0.00  0.00    +0.156 A 
ATOM     16  C   UNL     1      -6.321 -12.502  18.962  0.00  0.00    +0.070 A 
ATOM     17  C   UNL     1      -7.539 -10.070  18.088  0.00  0.00    +0.051 A 
ATOM     20  C   UNL     1      -7.569 -12.093  19.455  0.00  0.00    +0.126 A 
ATOM     21  C   UNL     1      -8.163 -10.900  19.025  0.00  0.00    +0.042 A 
ENDBRANCH   5  10
BRANCH   3   9
ATOM      9  C   UNL     1      -2.090 -11.790  12.537  0.00  0.00    +0.119 C 
BRANCH   9  11
ATOM     11  C   UNL     1      -2.803 -11.143  11.380  0.00  0.00    -0.033 A 
ATOM     14  C   UNL     1      -2.562  -9.804  11.073  0.00  0.00    +0.005 A 
ATOM     15  C   UNL     1      -3.706 -11.882  10.616  0.00  0.00    +0.005 A 
ATOM     18  C   UNL     1      -3.224  -9.204  10.002  0.00  0.00    +0.000 A 
ATOM     19  C   UNL     1      -4.368 -11.282   9.545  0.00  0.00    +0.000 A 
ATOM     22  C   UNL     1      -4.126  -9.944   9.237  0.00  0.00    +0.000 A 
ENDBRANCH   9  11
ENDBRANCH   3   9
TORSDOF 3
ENDMDL
MODEL 3
REMARK VINA RESULT:      -6.5     13.431     15.479
REMARK  Name = 45784337
REMARK  3 active torsions:
REMARK  status: ('A' for Active; 'I' for Inactive)
REMARK    1  A    between atoms: N_3  and  C_9
REMARK    2  A    between atoms: C_5  and  C_10
REMARK    3  A    between atoms: C_9  and  C_11
REMARK                            x       y       z     vdW  Elec       q    Type
REMARK                         _______ _______ _______ _____ _____    ______ ____
ROOT
ATOM      3  N   UNL     1       2.444   4.575  -5.541  0.00  0.00    -0.297 NA
ATOM      5  C   UNL     1       1.835   2.324  -5.781  0.00  0.00    +0.090 C 
ATOM      6  C   UNL     1       2.726   2.744  -6.963  0.00  0.00    +0.029 C 
ATOM      7  C   UNL     1       1.385   3.646  -5.145  0.00  0.00    +0.097 C 
ATOM      8  C   UNL     1       2.709   4.268  -6.946  0.00  0.00    +0.085 C 
ENDROOT
BRANCH   5  10
ATOM      1  F   UNL     1      -3.467  -2.402  -7.115  0.00  0.00    -0.205 F 
ATOM      2  O   UNL     1      -0.174   1.904  -7.096  0.00  0.00    -0.439 OA
ATOM      4  N   UNL     1       0.386   0.232  -5.672  0.00  0.00    -0.213 NA
ATOM     10  C   UNL     1       0.678   1.422  -6.149  0.00  0.00    +0.201 A 
ATOM     12  C   UNL     1      -0.755  -0.112  -6.357  0.00  0.00    +0.112 A 
ATOM     13  C   UNL     1      -1.100   0.910  -7.229  0.00  0.00    +0.156 A 
ATOM     16  C   UNL     1      -1.558  -1.258  -6.304  0.00  0.00    +0.070 A 
ATOM     17  C   UNL     1      -2.203   0.890  -8.074  0.00  0.00    +0.051 A 
ATOM     20  C   UNL     1      -2.681  -1.317  -7.143  0.00  0.00    +0.126 A 
ATOM     21  C   UNL     1      -2.995  -0.262  -8.009  0.00  0.00    +0.042 A 
ENDBRANCH   5  10
BRANCH   3   9
ATOM      9  C   UNL     1       2.065   5.967  -5.340  0.00  0.00    +0.119 C 
BRANCH   9  11
ATOM     11  C   UNL     1       3.109   6.725  -4.564  0.00  0.00    -0.033 A 
ATOM     14  C   UNL     1       3.190   8.113  -4.677  0.00  0.00    +0.005 A 
ATOM     15  C   UNL     1       3.995   6.039  -3.735  0.00  0.00    +0.005 A 
ATOM     18  C   UNL     1       4.158   8.815  -3.959  0.00  0.00    +0.000 A 
ATOM     19  C   UNL     1       4.963   6.741  -3.017  0.00  0.00    +0.000 A 
ATOM     22  C   UNL     1       5.044   8.129  -3.128  0.00  0.00    +0.000 A 
ENDBRANCH   9  11
ENDBRANCH   3   9
TORSDOF 3
ENDMDL
MODEL 4
REMARK VINA RESULT:      -6.5     23.220     26.065
REMARK  Name = 45784337
REMARK  3 active torsions:
REMARK  status: ('A' for Active; 'I' for Inactive)
REMARK    1  A    between atoms: N_3  and  C_9
REMARK    2  A    between atoms: C_5  and  C_10
REMARK    3  A    between atoms: C_9  and  C_11
REMARK                            x       y       z     vdW  Elec       q    Type
REMARK                         _______ _______ _______ _____ _____    ______ ____
ROOT
ATOM      3  N   UNL     1      -4.239 -10.719  14.863  0.00  0.00    -0.297 NA
ATOM      5  C   UNL     1      -5.578  -9.712  16.503  0.00  0.00    +0.090 C 
ATOM      6  C   UNL     1      -4.537 -10.622  17.176  0.00  0.00    +0.029 C 
ATOM      7  C   UNL     1      -5.574 -10.141  15.030  0.00  0.00    +0.097 C 
ATOM      8  C   UNL     1      -4.025 -11.527  16.062  0.00  0.00    +0.085 C 
ENDROOT
BRANCH   5  10
ATOM      1  F   UNL     1     -12.331  -9.463  19.063  0.00  0.00    -0.205 F 
ATOM      2  O   UNL     1      -7.119 -10.638  18.148  0.00  0.00    -0.439 OA
ATOM      4  N   UNL     1      -8.018  -9.048  16.807  0.00  0.00    -0.213 NA
ATOM     10  C   UNL     1      -6.955  -9.754  17.125  0.00  0.00    +0.201 A 
ATOM     12  C   UNL     1      -8.971  -9.495  17.690  0.00  0.00    +0.112 A 
ATOM     13  C   UNL     1      -8.424 -10.469  18.512  0.00  0.00    +0.156 A 
ATOM     16  C   UNL     1     -10.314  -9.137  17.865  0.00  0.00    +0.070 A 
ATOM     17  C   UNL     1      -9.114 -11.134  19.518  0.00  0.00    +0.051 A 
ATOM     20  C   UNL     1     -11.044  -9.785  18.872  0.00  0.00    +0.126 A 
ATOM     21  C   UNL     1     -10.453 -10.764  19.680  0.00  0.00    +0.042 A 
ENDBRANCH   5  10
BRANCH   3   9
ATOM      9  C   UNL     1      -4.122 -11.501  13.640  0.00  0.00    +0.119 C 
BRANCH   9  11
ATOM     11  C   UNL     1      -3.535 -10.693  12.513  0.00  0.00    -0.033 A 
ATOM     14  C   UNL     1      -2.156 -10.490  12.444  0.00  0.00    +0.005 A 
ATOM     15  C   UNL     1      -4.369 -10.146  11.539  0.00  0.00    +0.005 A 
ATOM     18  C   UNL     1      -1.613  -9.741  11.401  0.00  0.00    +0.000 A 
ATOM     19  C   UNL     1      -3.826  -9.397  10.496  0.00  0.00    +0.000 A 
ATOM     22  C   UNL     1      -2.448  -9.194  10.426  0.00  0.00    +0.000 A 
ENDBRANCH   9  11
ENDBRANCH   3   9
TORSDOF 3
ENDMDL
MODEL 5
REMARK VINA RESULT:      -6.4     17.527     19.220
REMARK  Name = 45784337
REMARK  3 active torsions:
REMARK  status: ('A' for Active; 'I' for Inactive)
REMARK    1  A    between atoms: N_3  and  C_9
REMARK    2  A    between atoms: C_5  and  C_10
REMARK    3  A    between atoms: C_9  and  C_11
REMARK                            x       y       z     vdW  Elec       q    Type
REMARK                         _______ _______ _______ _____ _____    ______ ____
ROOT
ATOM      3  N   UNL     1      18.129   6.265  20.655  0.00  0.00    -0.297 NA
ATOM      5  C   UNL     1      15.838   6.637  20.984  0.00  0.00    +0.090 C 
ATOM      6  C   UNL     1      16.075   6.114  19.556  0.00  0.00    +0.029 C 
ATOM      7  C   UNL     1      17.225   7.077  21.471  0.00  0.00    +0.097 C 
ATOM      8  C   UNL     1      17.565   6.311  19.306  0.00  0.00    +0.085 C 
ENDROOT
BRANCH   5  10
ATOM      1  F   UNL     1      11.266  12.229  21.176  0.00  0.00    -0.205 F 
ATOM      2  O   UNL     1      13.673   7.412  21.792  0.00  0.00    -0.439 OA
ATOM      4  N   UNL     1      14.841   8.949  20.605  0.00  0.00    -0.213 NA
ATOM     10  C   UNL     1      14.799   7.730  21.095  0.00  0.00    +0.201 A 
ATOM     12  C   UNL     1      13.645   9.493  21.008  0.00  0.00    +0.112 A 
ATOM     13  C   UNL     1      12.928   8.554  21.735  0.00  0.00    +0.156 A 
ATOM     16  C   UNL     1      13.088  10.763  20.806  0.00  0.00    +0.070 A 
ATOM     17  C   UNL     1      11.674   8.774  22.291  0.00  0.00    +0.051 A 
ATOM     20  C   UNL     1      11.823  11.023  21.352  0.00  0.00    +0.126 A 
ATOM     21  C   UNL     1      11.132  10.046  22.080  0.00  0.00    +0.042 A 
ENDBRANCH   5  10
BRANCH   3   9
ATOM      9  C   UNL     1      19.502   6.750  20.698  0.00  0.00    +0.119 C 
BRANCH   9  11
ATOM     11  C   UNL     1      20.449   5.704  21.222  0.00  0.00    -0.033 A 
ATOM     14  C   UNL     1      21.171   5.940  22.392  0.00  0.00    +0.005 A 
ATOM     15  C   UNL     1      20.605   4.499  20.538  0.00  0.00    +0.005 A 
ATOM     18  C   UNL     1      22.049   4.972  22.877  0.00  0.00    +0.000 A 
ATOM     19  C   UNL     1      21.484   3.531  21.022  0.00  0.00    +0.000 A 
ATOM     22  C   UNL     1      22.205   3.766  22.192  0.00  0.00    +0.000 A 
ENDBRANCH   9  11
ENDBRANCH   3   9
TORSDOF 3
ENDMDL
MODEL 6
REMARK VINA RESULT:      -6.3     27.447     31.639
REMARK  Name = 45784337
REMARK  3 active torsions:
REMARK  status: ('A' for Active; 'I' for Inactive)
REMARK    1  A    between atoms: N_3  and  C_9
REMARK    2  A    between atoms: C_5  and  C_10
REMARK    3  A    between atoms: C_9  and  C_11
REMARK                            x       y       z     vdW  Elec       q    Type
REMARK                         _______ _______ _______ _____ _____    ______ ____
ROOT
ATOM      3  N   UNL     1     -13.480   7.287  20.846  0.00  0.00    -0.297 NA
ATOM      5  C   UNL     1     -14.938   5.553  21.447  0.00  0.00    +0.090 C 
ATOM      6  C   UNL     1     -15.745   6.837  21.188  0.00  0.00    +0.029 C 
ATOM      7  C   UNL     1     -13.487   6.029  21.595  0.00  0.00    +0.097 C 
ATOM      8  C   UNL     1     -14.718   7.963  21.231  0.00  0.00    +0.085 C 
ENDROOT
BRANCH   5  10
ATOM      1  F   UNL     1     -16.820   1.984  27.443  0.00  0.00    -0.205 F 
ATOM      2  O   UNL     1     -16.321   3.758  22.345  0.00  0.00    -0.439 OA
ATOM      4  N   UNL     1     -15.062   4.838  23.889  0.00  0.00    -0.213 NA
ATOM     10  C   UNL     1     -15.412   4.732  22.626  0.00  0.00    +0.201 A 
ATOM     12  C   UNL     1     -15.795   3.852  24.504  0.00  0.00    +0.112 A 
ATOM     13  C   UNL     1     -16.567   3.189  23.561  0.00  0.00    +0.156 A 
ATOM     16  C   UNL     1     -15.870   3.451  25.844  0.00  0.00    +0.070 A 
ATOM     17  C   UNL     1     -17.429   2.136  23.843  0.00  0.00    +0.051 A 
ATOM     20  C   UNL     1     -16.729   2.391  26.169  0.00  0.00    +0.126 A 
ATOM     21  C   UNL     1     -17.492   1.748  25.186  0.00  0.00    +0.042 A 
ENDBRANCH   5  10
BRANCH   3   9
ATOM      9  C   UNL     1     -12.299   8.093  21.127  0.00  0.00    +0.119 C 
BRANCH   9  11
ATOM     11  C   UNL     1     -11.543   8.435  19.870  0.00  0.00    -0.033 A 
ATOM     14  C   UNL     1     -10.870   9.652  19.771  0.00  0.00    +0.005 A 
ATOM     15  C   UNL     1     -11.519   7.535  18.805  0.00  0.00    +0.005 A 
ATOM     18  C   UNL     1     -10.171   9.969  18.607  0.00  0.00    +0.000 A 
ATOM     19  C   UNL     1     -10.820   7.852  17.641  0.00  0.00    +0.000 A 
ATOM     22  C   UNL     1     -10.145   9.069  17.541  0.00  0.00    +0.000 A 
ENDBRANCH   9  11
ENDBRANCH   3   9
TORSDOF 3
ENDMDL
MODEL 7
REMARK VINA RESULT:      -6.3      5.719      6.675
REMARK  Name = 45784337
REMARK  3 active torsions:
REMARK  status: ('A' for Active; 'I' for Inactive)
REMARK    1  A    between atoms: N_3  and  C_9
REMARK    2  A    between atoms: C_5  and  C_10
REMARK    3  A    between atoms: C_9  and  C_11
REMARK                            x       y       z     vdW  Elec       q    Type
REMARK                         _______ _______ _______ _____ _____    ______ ____
ROOT
ATOM      3  N   UNL     1      16.213   8.902   5.365  0.00  0.00    -0.297 NA
ATOM      5  C   UNL     1      14.148   7.802   5.206  0.00  0.00    +0.090 C 
ATOM      6  C   UNL     1      14.059   9.168   4.503  0.00  0.00    +0.029 C 
ATOM      7  C   UNL     1      15.419   7.888   6.062  0.00  0.00    +0.097 C 
ATOM      8  C   UNL     1      15.260   9.955   5.017  0.00  0.00    +0.085 C 
ENDROOT
BRANCH   5  10
ATOM      1  F   UNL     1       8.668   5.575   9.357  0.00  0.00    -0.205 F 
ATOM      2  O   UNL     1      11.767   8.050   5.661  0.00  0.00    -0.439 OA
ATOM      4  N   UNL     1      12.830   6.557   6.994  0.00  0.00    -0.213 NA
ATOM     10  C   UNL     1      12.924   7.420   6.006  0.00  0.00    +0.201 A 
ATOM     12  C   UNL     1      11.501   6.613   7.338  0.00  0.00    +0.112 A 
ATOM     13  C   UNL     1      10.847   7.526   6.524  0.00  0.00    +0.156 A 
ATOM     16  C   UNL     1      10.766   5.933   8.318  0.00  0.00    +0.070 A 
ATOM     17  C   UNL     1       9.494   7.830   6.603  0.00  0.00    +0.051 A 
ATOM     20  C   UNL     1       9.396   6.212   8.429  0.00  0.00    +0.126 A 
ATOM     21  C   UNL     1       8.775   7.142   7.586  0.00  0.00    +0.042 A 
ENDBRANCH   5  10
BRANCH   3   9
ATOM      9  C   UNL     1      17.315   9.399   6.177  0.00  0.00    +0.119 C 
BRANCH   9  11
ATOM     11  C   UNL     1      18.601   8.675   5.879  0.00  0.00    -0.033 A 
ATOM     14  C   UNL     1      19.581   8.560   6.865  0.00  0.00    +0.005 A 
ATOM     15  C   UNL     1      18.812   8.120   4.617  0.00  0.00    +0.005 A 
ATOM     18  C   UNL     1      20.773   7.890   6.589  0.00  0.00    +0.000 A 
ATOM     19  C   UNL     1      20.004   7.451   4.341  0.00  0.00    +0.000 A 
ATOM     22  C   UNL     1      20.984   7.335   5.326  0.00  0.00    +0.000 A 
ENDBRANCH   9  11
ENDBRANCH   3   9
TORSDOF 3
ENDMDL
MODEL 8
REMARK VINA RESULT:      -6.2     35.208     37.810
REMARK  Name = 45784337
REMARK  3 active torsions:
REMARK  status: ('A' for Active; 'I' for Inactive)
REMARK    1  A    between atoms: N_3  and  C_9
REMARK    2  A    between atoms: C_5  and  C_10
REMARK    3  A    between atoms: C_9  and  C_11
REMARK                            x       y       z     vdW  Elec       q    Type
REMARK                         _______ _______ _______ _____ _____    ______ ____
ROOT
ATOM      3  N   UNL     1     -14.367   2.160  31.139  0.00  0.00    -0.297 NA
ATOM      5  C   UNL     1     -15.979   1.494  29.572  0.00  0.00    +0.090 C 
ATOM      6  C   UNL     1     -15.095   0.291  29.944  0.00  0.00    +0.029 C 
ATOM      7  C   UNL     1     -15.199   2.718  30.072  0.00  0.00    +0.097 C 
ATOM      8  C   UNL     1     -13.861   0.897  30.602  0.00  0.00    +0.085 C 
ENDROOT
BRANCH   5  10
ATOM      1  F   UNL     1     -18.018   1.370  22.641  0.00  0.00    -0.205 F 
ATOM      2  O   UNL     1     -15.912   2.700  27.455  0.00  0.00    -0.439 OA
ATOM      4  N   UNL     1     -17.028   0.728  27.382  0.00  0.00    -0.213 NA
ATOM     10  C   UNL     1     -16.345   1.585  28.108  0.00  0.00    +0.201 A 
ATOM     12  C   UNL     1     -17.054   1.317  26.140  0.00  0.00    +0.112 A 
ATOM     13  C   UNL     1     -16.372   2.524  26.182  0.00  0.00    +0.156 A 
ATOM     16  C   UNL     1     -17.627   0.904  24.930  0.00  0.00    +0.070 A 
ATOM     17  C   UNL     1     -16.207   3.378  25.098  0.00  0.00    +0.051 A 
ATOM     20  C   UNL     1     -17.481   1.739  23.812  0.00  0.00    +0.126 A 
ATOM     21  C   UNL     1     -16.785   2.951  23.898  0.00  0.00    +0.042 A 
ENDBRANCH   5  10
BRANCH   3   9
ATOM      9  C   UNL     1     -13.294   3.062  31.535  0.00  0.00    +0.119 C 
BRANCH   9  11
ATOM     11  C   UNL     1     -13.754   4.060  32.565  0.00  0.00    -0.033 A 
ATOM     14  C   UNL     1     -13.679   5.426  32.294  0.00  0.00    +0.005 A 
ATOM     15  C   UNL     1     -14.253   3.618  33.790  0.00  0.00    +0.005 A 
ATOM     18  C   UNL     1     -14.104   6.350  33.249  0.00  0.00    +0.000 A 
ATOM     19  C   UNL     1     -14.677   4.542  34.744  0.00  0.00    +0.000 A 
ATOM     22  C   UNL     1     -14.604   5.908  34.474  0.00  0.00    +0.000 A 
ENDBRANCH   9  11
ENDBRANCH   3   9
TORSDOF 3
ENDMDL
MODEL 9
REMARK VINA RESULT:      -6.1     17.257     20.016
REMARK  Name = 45784337
REMARK  3 active torsions:
REMARK  status: ('A' for Active; 'I' for Inactive)
REMARK    1  A    between atoms: N_3  and  C_9
REMARK    2  A    between atoms: C_5  and  C_10
REMARK    3  A    between atoms: C_9  and  C_11
REMARK                            x       y       z     vdW  Elec       q    Type
REMARK                         _______ _______ _______ _____ _____    ______ ____
ROOT
ATOM      3  N   UNL     1      13.224   8.673  20.787  0.00  0.00    -0.297 NA
ATOM      5  C   UNL     1      15.451   8.398  20.107  0.00  0.00    +0.090 C 
ATOM      6  C   UNL     1      14.533   7.529  19.229  0.00  0.00    +0.029 C 
ATOM      7  C   UNL     1      14.586   8.777  21.316  0.00  0.00    +0.097 C 
ATOM      8  C   UNL     1      13.219   7.443  19.997  0.00  0.00    +0.085 C 
ENDROOT
BRANCH   5  10
ATOM      1  F   UNL     1      21.727   5.696  22.457  0.00  0.00    -0.205 F 
ATOM      2  O   UNL     1      17.165   6.711  19.712  0.00  0.00    -0.439 OA
ATOM      4  N   UNL     1      17.553   8.047  21.501  0.00  0.00    -0.213 NA
ATOM     10  C   UNL     1      16.757   7.746  20.498  0.00  0.00    +0.201 A 
ATOM     12  C   UNL     1      18.577   7.140  21.375  0.00  0.00    +0.112 A 
ATOM     13  C   UNL     1      18.343   6.321  20.281  0.00  0.00    +0.156 A 
ATOM     16  C   UNL     1      19.737   6.939  22.135  0.00  0.00    +0.070 A 
ATOM     17  C   UNL     1      19.181   5.292  19.868  0.00  0.00    +0.051 A 
ATOM     20  C   UNL     1      20.609   5.911  21.749  0.00  0.00    +0.126 A 
ATOM     21  C   UNL     1      20.334   5.105  20.637  0.00  0.00    +0.042 A 
ENDBRANCH   5  10
BRANCH   3   9
ATOM      9  C   UNL     1      12.220   8.658  21.842  0.00  0.00    +0.119 C 
BRANCH   9  11
ATOM     11  C   UNL     1      11.757  10.047  22.195  0.00  0.00    -0.033 A 
ATOM     14  C   UNL     1      11.267  10.315  23.473  0.00  0.00    +0.005 A 
ATOM     15  C   UNL     1      11.818  11.064  21.244  0.00  0.00    +0.005 A 
ATOM     18  C   UNL     1      10.837  11.601  23.799  0.00  0.00    +0.000 A 
ATOM     19  C   UNL     1      11.389  12.350  21.570  0.00  0.00    +0.000 A 
ATOM     22  C   UNL     1      10.899  12.619  22.848  0.00  0.00    +0.000 A 
ENDBRANCH   9  11
ENDBRANCH   3   9
TORSDOF 3
ENDMDL
MODEL 10
REMARK VINA RESULT:      -6.0     18.262     19.480
REMARK  Name = 45784337
REMARK  3 active torsions:
REMARK  status: ('A' for Active; 'I' for Inactive)
REMARK    1  A    between atoms: N_3  and  C_9
REMARK    2  A    between atoms: C_5  and  C_10
REMARK    3  A    between atoms: C_9  and  C_11
REMARK                            x       y       z     vdW  Elec       q    Type
REMARK                         _______ _______ _______ _____ _____    ______ ____
ROOT
ATOM      3  N   UNL     1      19.032   7.219  21.568  0.00  0.00    -0.297 NA
ATOM      5  C   UNL     1      16.920   7.608  20.627  0.00  0.00    +0.090 C 
ATOM      6  C   UNL     1      17.614   8.953  20.908  0.00  0.00    +0.029 C 
ATOM      7  C   UNL     1      17.721   6.581  21.439  0.00  0.00    +0.097 C 
ATOM      8  C   UNL     1      18.743   8.619  21.876  0.00  0.00    +0.085 C 
ENDROOT
BRANCH   5  10
ATOM      1  F   UNL     1       9.841   6.884  21.885  0.00  0.00    -0.205 F 
ATOM      2  O   UNL     1      14.926   8.717  21.485  0.00  0.00    -0.439 OA
ATOM      4  N   UNL     1      14.584   6.601  20.749  0.00  0.00    -0.213 NA
ATOM     10  C   UNL     1      15.441   7.581  20.938  0.00  0.00    +0.201 A 
ATOM     12  C   UNL     1      13.399   7.125  21.206  0.00  0.00    +0.112 A 
ATOM     13  C   UNL     1      13.605   8.420  21.658  0.00  0.00    +0.156 A 
ATOM     16  C   UNL     1      12.110   6.581  21.277  0.00  0.00    +0.070 A 
ATOM     17  C   UNL     1      12.617   9.241  22.188  0.00  0.00    +0.051 A 
ATOM     20  C   UNL     1      11.084   7.378  21.805  0.00  0.00    +0.126 A 
ATOM     21  C   UNL     1      11.336   8.682  22.251  0.00  0.00    +0.042 A 
ENDBRANCH   5  10
BRANCH   3   9
ATOM      9  C   UNL     1      19.859   6.587  22.587  0.00  0.00    +0.119 C 
BRANCH   9  11
ATOM     11  C   UNL     1      21.037   5.869  21.985  0.00  0.00    -0.033 A 
ATOM     14  C   UNL     1      21.367   6.071  20.645  0.00  0.00    +0.005 A 
ATOM     15  C   UNL     1      21.798   5.000  22.767  0.00  0.00    +0.005 A 
ATOM     18  C   UNL     1      22.458   5.404  20.087  0.00  0.00    +0.000 A 
ATOM     19  C   UNL     1      22.888   4.333  22.210  0.00  0.00    +0.000 A 
ATOM     22  C   UNL     1      23.219   4.535  20.870  0.00  0.00    +0.000 A 
ENDBRANCH   9  11
ENDBRANCH   3   9
TORSDOF 3
ENDMDL
