MODEL 1
REMARK VINA RESULT:      -7.4      0.000      0.000
REMARK  Name = 45784245
REMARK  5 active torsions:
REMARK  status: ('A' for Active; 'I' for Inactive)
REMARK    1  A    between atoms: O_1  and  C_24
REMARK    2  A    between atoms: N_3  and  C_11
REMARK    3  A    between atoms: C_6  and  C_10
REMARK    4  A    between atoms: C_11  and  C_12
REMARK    5  A    between atoms: C_23  and  C_24
REMARK                            x       y       z     vdW  Elec       q    Type
REMARK                         _______ _______ _______ _____ _____    ______ ____
ROOT
ATOM      3  N   UNL     1      10.827   5.337   3.934  0.00  0.00    -0.297 NA
ATOM      6  C   UNL     1      11.947   4.337   2.133  0.00  0.00    +0.070 C 
ATOM      7  C   UNL     1      12.628   5.669   2.486  0.00  0.00    +0.028 C 
ATOM      8  C   UNL     1      10.584   4.398   2.837  0.00  0.00    +0.096 C 
ATOM      9  C   UNL     1      11.612   6.418   3.339  0.00  0.00    +0.085 C 
ENDROOT
BRANCH   6  10
ATOM      4  N   UNL     1      10.829   4.600  -0.099  0.00  0.00    -0.342 N 
ATOM      5  N   UNL     1      12.627   3.294  -0.067  0.00  0.00    -0.232 NA
ATOM     10  C   UNL     1      11.832   4.054   0.653  0.00  0.00    +0.113 A 
ATOM     13  C   UNL     1      10.988   4.164  -1.389  0.00  0.00    +0.066 A 
ATOM     14  C   UNL     1      12.116   3.351  -1.343  0.00  0.00    +0.089 A 
ATOM     17  C   UNL     1      10.263   4.404  -2.557  0.00  0.00    +0.028 A 
ATOM     18  C   UNL     1      12.563   2.732  -2.523  0.00  0.00    +0.030 A 
ATOM     21  C   UNL     1      10.721   3.780  -3.722  0.00  0.00    +0.002 A 
ATOM     22  C   UNL     1      11.851   2.958  -3.708  0.00  0.00    +0.002 A 
ATOM     25  H   UNL     1      10.099   5.216   0.234  0.00  0.00    +0.167 HD
ENDBRANCH   6  10
BRANCH   3  11
ATOM     11  C   UNL     1       9.592   5.816   4.538  0.00  0.00    +0.119 C 
BRANCH  11  12
ATOM     12  C   UNL     1       9.556   5.557   6.021  0.00  0.00    -0.033 A 
ATOM     15  C   UNL     1       9.265   6.599   6.902  0.00  0.00    +0.006 A 
ATOM     16  C   UNL     1       9.815   4.279   6.513  0.00  0.00    +0.006 A 
ATOM     19  C   UNL     1       9.232   6.361   8.276  0.00  0.00    +0.015 A 
ATOM     20  C   UNL     1       9.782   4.040   7.887  0.00  0.00    +0.015 A 
ATOM     23  C   UNL     1       9.490   5.082   8.769  0.00  0.00    +0.059 A 
BRANCH  23  24
ATOM      2  O   UNL     1      10.444   4.668  10.924  0.00  0.00    -0.245 OA
ATOM     24  C   UNL     1       9.455   4.832  10.201  0.00  0.00    +0.337 C 
BRANCH  24   1
ATOM      1  O   UNL     1       8.187   4.795  10.693  0.00  0.00    -0.477 OA
ATOM     26  H   UNL     1       8.144   5.121  11.617  0.00  0.00    +0.295 HD
ENDBRANCH  24   1
ENDBRANCH  23  24
ENDBRANCH  11  12
ENDBRANCH   3  11
TORSDOF 5
ENDMDL
MODEL 2
REMARK VINA RESULT:      -7.0     17.838     20.120
REMARK  Name = 45784245
REMARK  5 active torsions:
REMARK  status: ('A' for Active; 'I' for Inactive)
REMARK    1  A    between atoms: O_1  and  C_24
REMARK    2  A    between atoms: N_3  and  C_11
REMARK    3  A    between atoms: C_6  and  C_10
REMARK    4  A    between atoms: C_11  and  C_12
REMARK    5  A    between atoms: C_23  and  C_24
REMARK                            x       y       z     vdW  Elec       q    Type
REMARK                         _______ _______ _______ _____ _____    ______ ____
ROOT
ATOM      3  N   UNL     1      17.411   7.818  20.657  0.00  0.00    -0.297 NA
ATOM      6  C   UNL     1      19.341   6.552  20.244  0.00  0.00    +0.070 C 
ATOM      7  C   UNL     1      18.113   5.816  19.684  0.00  0.00    +0.028 C 
ATOM      8  C   UNL     1      18.760   7.615  21.188  0.00  0.00    +0.096 C 
ATOM      9  C   UNL     1      16.916   6.475  20.358  0.00  0.00    +0.085 C 
ENDROOT
BRANCH   6  10
ATOM      4  N   UNL     1      20.928   4.608  20.254  0.00  0.00    -0.342 N 
ATOM      5  N   UNL     1      20.818   5.776  22.142  0.00  0.00    -0.232 NA
ATOM     10  C   UNL     1      20.363   5.664  20.914  0.00  0.00    +0.113 A 
ATOM     13  C   UNL     1      21.807   4.000  21.112  0.00  0.00    +0.066 A 
ATOM     14  C   UNL     1      21.719   4.747  22.284  0.00  0.00    +0.089 A 
ATOM     17  C   UNL     1      22.645   2.892  20.970  0.00  0.00    +0.028 A 
ATOM     18  C   UNL     1      22.508   4.383  23.388  0.00  0.00    +0.030 A 
ATOM     21  C   UNL     1      23.422   2.544  22.079  0.00  0.00    +0.002 A 
ATOM     22  C   UNL     1      23.356   3.274  23.268  0.00  0.00    +0.002 A 
ATOM     25  H   UNL     1      20.737   4.325  19.302  0.00  0.00    +0.167 HD
ENDBRANCH   6  10
BRANCH   3  11
ATOM     11  C   UNL     1      16.550   8.532  21.590  0.00  0.00    +0.119 C 
BRANCH  11  12
ATOM     12  C   UNL     1      15.099   8.440  21.196  0.00  0.00    -0.033 A 
ATOM     15  C   UNL     1      14.656   9.056  20.026  0.00  0.00    +0.006 A 
ATOM     16  C   UNL     1      14.201   7.741  22.001  0.00  0.00    +0.006 A 
ATOM     19  C   UNL     1      13.311   8.972  19.661  0.00  0.00    +0.015 A 
ATOM     20  C   UNL     1      12.857   7.656  21.636  0.00  0.00    +0.015 A 
ATOM     23  C   UNL     1      12.412   8.272  20.466  0.00  0.00    +0.059 A 
BRANCH  23  24
ATOM      2  O   UNL     1      10.529   8.598  19.027  0.00  0.00    -0.245 OA
ATOM     24  C   UNL     1      11.012   8.183  20.086  0.00  0.00    +0.337 C 
BRANCH  24   1
ATOM      1  O   UNL     1      10.251   7.577  21.038  0.00  0.00    -0.477 OA
ATOM     26  H   UNL     1       9.319   7.472  20.749  0.00  0.00    +0.295 HD
ENDBRANCH  24   1
ENDBRANCH  23  24
ENDBRANCH  11  12
ENDBRANCH   3  11
TORSDOF 5
ENDMDL
MODEL 3
REMARK VINA RESULT:      -7.0     27.972     32.956
REMARK  Name = 45784245
REMARK  5 active torsions:
REMARK  status: ('A' for Active; 'I' for Inactive)
REMARK    1  A    between atoms: O_1  and  C_24
REMARK    2  A    between atoms: N_3  and  C_11
REMARK    3  A    between atoms: C_6  and  C_10
REMARK    4  A    between atoms: C_11  and  C_12
REMARK    5  A    between atoms: C_23  and  C_24
REMARK                            x       y       z     vdW  Elec       q    Type
REMARK                         _______ _______ _______ _____ _____    ______ ____
ROOT
ATOM      3  N   UNL     1     -14.886   5.933  22.045  0.00  0.00    -0.297 NA
ATOM      6  C   UNL     1     -15.616   3.964  23.089  0.00  0.00    +0.070 C 
ATOM      7  C   UNL     1     -16.808   4.660  22.412  0.00  0.00    +0.028 C 
ATOM      8  C   UNL     1     -14.519   5.037  23.143  0.00  0.00    +0.096 C 
ATOM      9  C   UNL     1     -16.337   6.085  22.149  0.00  0.00    +0.085 C 
ENDROOT
BRANCH   6  10
ATOM      4  N   UNL     1     -15.743   4.076  25.593  0.00  0.00    -0.342 N 
ATOM      5  N   UNL     1     -16.355   2.144  24.679  0.00  0.00    -0.232 NA
ATOM     10  C   UNL     1     -15.916   3.360  24.440  0.00  0.00    +0.113 A 
ATOM     13  C   UNL     1     -16.093   3.269  26.644  0.00  0.00    +0.066 A 
ATOM     14  C   UNL     1     -16.471   2.069  26.048  0.00  0.00    +0.089 A 
ATOM     17  C   UNL     1     -16.111   3.479  28.024  0.00  0.00    +0.028 A 
ATOM     18  C   UNL     1     -16.896   1.005  26.861  0.00  0.00    +0.030 A 
ATOM     21  C   UNL     1     -16.536   2.409  28.818  0.00  0.00    +0.002 A 
ATOM     22  C   UNL     1     -16.922   1.193  28.249  0.00  0.00    +0.002 A 
ATOM     25  H   UNL     1     -15.416   5.030  25.661  0.00  0.00    +0.167 HD
ENDBRANCH   6  10
BRANCH   3  11
ATOM     11  C   UNL     1     -14.188   7.209  22.113  0.00  0.00    +0.119 C 
BRANCH  11  12
ATOM     12  C   UNL     1     -13.353   7.457  20.885  0.00  0.00    -0.033 A 
ATOM     15  C   UNL     1     -13.969   7.807  19.683  0.00  0.00    +0.006 A 
ATOM     16  C   UNL     1     -11.965   7.337  20.949  0.00  0.00    +0.006 A 
ATOM     19  C   UNL     1     -13.196   8.037  18.545  0.00  0.00    +0.015 A 
ATOM     20  C   UNL     1     -11.192   7.567  19.810  0.00  0.00    +0.015 A 
ATOM     23  C   UNL     1     -11.808   7.917  18.608  0.00  0.00    +0.059 A 
BRANCH  23  24
ATOM      2  O   UNL     1     -10.877   9.245  16.849  0.00  0.00    -0.245 OA
ATOM     24  C   UNL     1     -11.001   8.158  17.422  0.00  0.00    +0.337 C 
BRANCH  24   1
ATOM      1  O   UNL     1     -10.370   7.034  16.986  0.00  0.00    -0.477 OA
ATOM     26  H   UNL     1      -9.839   6.614  17.696  0.00  0.00    +0.295 HD
ENDBRANCH  24   1
ENDBRANCH  23  24
ENDBRANCH  11  12
ENDBRANCH   3  11
TORSDOF 5
ENDMDL
MODEL 4
REMARK VINA RESULT:      -6.9     21.892     25.540
REMARK  Name = 45784245
REMARK  5 active torsions:
REMARK  status: ('A' for Active; 'I' for Inactive)
REMARK    1  A    between atoms: O_1  and  C_24
REMARK    2  A    between atoms: N_3  and  C_11
REMARK    3  A    between atoms: C_6  and  C_10
REMARK    4  A    between atoms: C_11  and  C_12
REMARK    5  A    between atoms: C_23  and  C_24
REMARK                            x       y       z     vdW  Elec       q    Type
REMARK                         _______ _______ _______ _____ _____    ______ ____
ROOT
ATOM      3  N   UNL     1      -1.972 -10.953  13.817  0.00  0.00    -0.297 NA
ATOM      6  C   UNL     1      -3.102 -10.165  15.716  0.00  0.00    +0.070 C 
ATOM      7  C   UNL     1      -1.725 -10.711  16.126  0.00  0.00    +0.028 C 
ATOM      8  C   UNL     1      -3.334 -10.718  14.302  0.00  0.00    +0.096 C 
ATOM      9  C   UNL     1      -1.269 -11.560  14.946  0.00  0.00    +0.085 C 
ENDROOT
BRANCH   6  10
ATOM      4  N   UNL     1      -5.456  -9.909  16.547  0.00  0.00    -0.342 N 
ATOM      5  N   UNL     1      -4.181 -11.335  17.679  0.00  0.00    -0.232 NA
ATOM     10  C   UNL     1      -4.227 -10.496  16.668  0.00  0.00    +0.113 A 
ATOM     13  C   UNL     1      -6.256 -10.404  17.544  0.00  0.00    +0.066 A 
ATOM     14  C   UNL     1      -5.438 -11.291  18.237  0.00  0.00    +0.089 A 
ATOM     17  C   UNL     1      -7.586 -10.158  17.890  0.00  0.00    +0.028 A 
ATOM     18  C   UNL     1      -5.960 -11.984  19.342  0.00  0.00    +0.030 A 
ATOM     21  C   UNL     1      -8.089 -10.856  18.993  0.00  0.00    +0.002 A 
ATOM     22  C   UNL     1      -7.292 -11.753  19.708  0.00  0.00    +0.002 A 
ATOM     25  H   UNL     1      -5.730  -9.233  15.847  0.00  0.00    +0.167 HD
ENDBRANCH   6  10
BRANCH   3  11
ATOM     11  C   UNL     1      -1.943 -11.792  12.629  0.00  0.00    +0.119 C 
BRANCH  11  12
ATOM     12  C   UNL     1      -2.739 -11.193  11.499  0.00  0.00    -0.033 A 
ATOM     15  C   UNL     1      -3.701 -11.961  10.843  0.00  0.00    +0.006 A 
ATOM     16  C   UNL     1      -2.514  -9.874  11.110  0.00  0.00    +0.006 A 
ATOM     19  C   UNL     1      -4.439 -11.408   9.797  0.00  0.00    +0.015 A 
ATOM     20  C   UNL     1      -3.252  -9.320  10.063  0.00  0.00    +0.015 A 
ATOM     23  C   UNL     1      -4.215 -10.087   9.407  0.00  0.00    +0.059 A 
BRANCH  23  24
ATOM      2  O   UNL     1      -5.151 -10.023   7.206  0.00  0.00    -0.245 OA
ATOM     24  C   UNL     1      -4.985  -9.509   8.317  0.00  0.00    +0.337 C 
BRANCH  24   1
ATOM      1  O   UNL     1      -5.527  -8.305   8.644  0.00  0.00    -0.477 OA
ATOM     26  H   UNL     1      -5.078  -7.564   8.182  0.00  0.00    +0.295 HD
ENDBRANCH  24   1
ENDBRANCH  23  24
ENDBRANCH  11  12
ENDBRANCH   3  11
TORSDOF 5
ENDMDL
MODEL 5
REMARK VINA RESULT:      -6.9      4.837      9.533
REMARK  Name = 45784245
REMARK  5 active torsions:
REMARK  status: ('A' for Active; 'I' for Inactive)
REMARK    1  A    between atoms: O_1  and  C_24
REMARK    2  A    between atoms: N_3  and  C_11
REMARK    3  A    between atoms: C_6  and  C_10
REMARK    4  A    between atoms: C_11  and  C_12
REMARK    5  A    between atoms: C_23  and  C_24
REMARK                            x       y       z     vdW  Elec       q    Type
REMARK                         _______ _______ _______ _____ _____    ______ ____
ROOT
ATOM      3  N   UNL     1      11.880   4.276   1.882  0.00  0.00    -0.297 NA
ATOM      6  C   UNL     1      10.444   5.364   3.382  0.00  0.00    +0.070 C 
ATOM      7  C   UNL     1      11.513   6.351   2.886  0.00  0.00    +0.028 C 
ATOM      8  C   UNL     1      10.988   3.979   3.004  0.00  0.00    +0.096 C 
ATOM      9  C   UNL     1      12.608   5.478   2.285  0.00  0.00    +0.085 C 
ENDROOT
BRANCH   6  10
ATOM      4  N   UNL     1      10.256   4.423   5.701  0.00  0.00    -0.342 N 
ATOM      5  N   UNL     1       9.641   6.546   5.467  0.00  0.00    -0.232 NA
ATOM     10  C   UNL     1      10.103   5.482   4.849  0.00  0.00    +0.113 A 
ATOM     13  C   UNL     1       9.868   4.832   6.951  0.00  0.00    +0.066 A 
ATOM     14  C   UNL     1       9.489   6.160   6.778  0.00  0.00    +0.089 A 
ATOM     17  C   UNL     1       9.818   4.174   8.181  0.00  0.00    +0.028 A 
ATOM     18  C   UNL     1       9.030   6.891   7.888  0.00  0.00    +0.030 A 
ATOM     21  C   UNL     1       9.358   4.916   9.274  0.00  0.00    +0.002 A 
ATOM     22  C   UNL     1       8.971   6.251   9.132  0.00  0.00    +0.002 A 
ATOM     25  H   UNL     1      10.595   3.502   5.457  0.00  0.00    +0.167 HD
ENDBRANCH   6  10
BRANCH   3  11
ATOM     11  C   UNL     1      12.770   3.166   1.572  0.00  0.00    +0.119 C 
BRANCH  11  12
ATOM     12  C   UNL     1      13.845   3.565   0.596  0.00  0.00    -0.033 A 
ATOM     15  C   UNL     1      15.164   3.697   1.029  0.00  0.00    +0.006 A 
ATOM     16  C   UNL     1      13.522   3.802  -0.740  0.00  0.00    +0.006 A 
ATOM     19  C   UNL     1      16.161   4.067   0.125  0.00  0.00    +0.015 A 
ATOM     20  C   UNL     1      14.518   4.171  -1.644  0.00  0.00    +0.015 A 
ATOM     23  C   UNL     1      15.838   4.304  -1.211  0.00  0.00    +0.059 A 
BRANCH  23  24
ATOM      2  O   UNL     1      16.686   5.243  -3.241  0.00  0.00    -0.245 OA
ATOM     24  C   UNL     1      16.876   4.688  -2.154  0.00  0.00    +0.337 C 
BRANCH  24   1
ATOM      1  O   UNL     1      18.124   4.371  -1.713  0.00  0.00    -0.477 OA
ATOM     26  H   UNL     1      18.402   3.480  -2.016  0.00  0.00    +0.295 HD
ENDBRANCH  24   1
ENDBRANCH  23  24
ENDBRANCH  11  12
ENDBRANCH   3  11
TORSDOF 5
ENDMDL
MODEL 6
REMARK VINA RESULT:      -6.8     17.651     20.600
REMARK  Name = 45784245
REMARK  5 active torsions:
REMARK  status: ('A' for Active; 'I' for Inactive)
REMARK    1  A    between atoms: O_1  and  C_24
REMARK    2  A    between atoms: N_3  and  C_11
REMARK    3  A    between atoms: C_6  and  C_10
REMARK    4  A    between atoms: C_11  and  C_12
REMARK    5  A    between atoms: C_23  and  C_24
REMARK                            x       y       z     vdW  Elec       q    Type
REMARK                         _______ _______ _______ _____ _____    ______ ____
ROOT
ATOM      3  N   UNL     1      13.612   8.190  19.730  0.00  0.00    -0.297 NA
ATOM      6  C   UNL     1      12.556  10.215  20.265  0.00  0.00    +0.070 C 
ATOM      7  C   UNL     1      14.030  10.479  19.918  0.00  0.00    +0.028 C 
ATOM      8  C   UNL     1      12.478   8.700  20.505  0.00  0.00    +0.096 C 
ATOM      9  C   UNL     1      14.707   9.118  20.008  0.00  0.00    +0.085 C 
ENDROOT
BRANCH   6  10
ATOM      4  N   UNL     1      12.084  10.551  22.707  0.00  0.00    -0.342 N 
ATOM      5  N   UNL     1      11.458  12.208  21.365  0.00  0.00    -0.232 NA
ATOM     10  C   UNL     1      12.021  11.022  21.425  0.00  0.00    +0.113 A 
ATOM     13  C   UNL     1      11.525  11.496  23.528  0.00  0.00    +0.066 A 
ATOM     14  C   UNL     1      11.143  12.520  22.667  0.00  0.00    +0.089 A 
ATOM     17  C   UNL     1      11.327  11.541  24.910  0.00  0.00    +0.028 A 
ATOM     18  C   UNL     1      10.525  13.665  23.197  0.00  0.00    +0.030 A 
ATOM     21  C   UNL     1      10.711  12.688  25.420  0.00  0.00    +0.002 A 
ATOM     22  C   UNL     1      10.316  13.733  24.581  0.00  0.00    +0.002 A 
ATOM     25  H   UNL     1      12.473   9.665  23.001  0.00  0.00    +0.167 HD
ENDBRANCH   6  10
BRANCH   3  11
ATOM     11  C   UNL     1      13.946   6.816  20.075  0.00  0.00    +0.119 C 
BRANCH  11  12
ATOM     12  C   UNL     1      15.434   6.612  20.184  0.00  0.00    -0.033 A 
ATOM     15  C   UNL     1      16.077   6.824  21.404  0.00  0.00    +0.006 A 
ATOM     16  C   UNL     1      16.168   6.213  19.068  0.00  0.00    +0.006 A 
ATOM     19  C   UNL     1      17.456   6.635  21.507  0.00  0.00    +0.015 A 
ATOM     20  C   UNL     1      17.546   6.024  19.171  0.00  0.00    +0.015 A 
ATOM     23  C   UNL     1      18.190   6.235  20.390  0.00  0.00    +0.059 A 
BRANCH  23  24
ATOM      2  O   UNL     1      20.403   6.753  21.138  0.00  0.00    -0.245 OA
ATOM     24  C   UNL     1      19.627   6.037  20.496  0.00  0.00    +0.337 C 
BRANCH  24   1
ATOM      1  O   UNL     1      20.055   4.949  19.800  0.00  0.00    -0.477 OA
ATOM     26  H   UNL     1      19.454   4.182  19.914  0.00  0.00    +0.295 HD
ENDBRANCH  24   1
ENDBRANCH  23  24
ENDBRANCH  11  12
ENDBRANCH   3  11
TORSDOF 5
ENDMDL
MODEL 7
REMARK VINA RESULT:      -6.7      7.052     10.254
REMARK  Name = 45784245
REMARK  5 active torsions:
REMARK  status: ('A' for Active; 'I' for Inactive)
REMARK    1  A    between atoms: O_1  and  C_24
REMARK    2  A    between atoms: N_3  and  C_11
REMARK    3  A    between atoms: C_6  and  C_10
REMARK    4  A    between atoms: C_11  and  C_12
REMARK    5  A    between atoms: C_23  and  C_24
REMARK                            x       y       z     vdW  Elec       q    Type
REMARK                         _______ _______ _______ _____ _____    ______ ____
ROOT
ATOM      3  N   UNL     1      16.170   8.574   5.376  0.00  0.00    -0.297 NA
ATOM      6  C   UNL     1      14.051   7.578   5.246  0.00  0.00    +0.070 C 
ATOM      7  C   UNL     1      14.100   8.807   4.323  0.00  0.00    +0.028 C 
ATOM      8  C   UNL     1      15.268   7.737   6.169  0.00  0.00    +0.096 C 
ATOM      9  C   UNL     1      15.313   9.602   4.788  0.00  0.00    +0.085 C 
ENDROOT
BRANCH   6  10
ATOM      4  N   UNL     1      12.520   6.287   6.758  0.00  0.00    -0.342 N 
ATOM      5  N   UNL     1      11.745   8.243   6.039  0.00  0.00    -0.232 NA
ATOM     10  C   UNL     1      12.756   7.403   6.004  0.00  0.00    +0.113 A 
ATOM     13  C   UNL     1      11.275   6.416   7.317  0.00  0.00    +0.066 A 
ATOM     14  C   UNL     1      10.812   7.644   6.853  0.00  0.00    +0.089 A 
ATOM     17  C   UNL     1      10.535   5.588   8.163  0.00  0.00    +0.028 A 
ATOM     18  C   UNL     1       9.539   8.089   7.246  0.00  0.00    +0.030 A 
ATOM     21  C   UNL     1       9.270   6.047   8.544  0.00  0.00    +0.002 A 
ATOM     22  C   UNL     1       8.778   7.275   8.095  0.00  0.00    +0.002 A 
ATOM     25  H   UNL     1      13.149   5.506   6.884  0.00  0.00    +0.167 HD
ENDBRANCH   6  10
BRANCH   3  11
ATOM     11  C   UNL     1      17.247   9.141   6.175  0.00  0.00    +0.119 C 
BRANCH  11  12
ATOM     12  C   UNL     1      18.592   8.599   5.768  0.00  0.00    -0.033 A 
ATOM     15  C   UNL     1      18.795   8.150   4.463  0.00  0.00    +0.006 A 
ATOM     16  C   UNL     1      19.633   8.547   6.694  0.00  0.00    +0.006 A 
ATOM     19  C   UNL     1      20.040   7.648   4.085  0.00  0.00    +0.015 A 
ATOM     20  C   UNL     1      20.879   8.045   6.316  0.00  0.00    +0.015 A 
ATOM     23  C   UNL     1      21.082   7.595   5.011  0.00  0.00    +0.059 A 
BRANCH  23  24
ATOM      2  O   UNL     1      23.456   7.673   4.723  0.00  0.00    -0.245 OA
ATOM     24  C   UNL     1      22.381   7.073   4.617  0.00  0.00    +0.337 C 
BRANCH  24   1
ATOM      1  O   UNL     1      22.303   5.816   4.104  0.00  0.00    -0.477 OA
ATOM     26  H   UNL     1      22.033   5.823   3.160  0.00  0.00    +0.295 HD
ENDBRANCH  24   1
ENDBRANCH  23  24
ENDBRANCH  11  12
ENDBRANCH   3  11
TORSDOF 5
ENDMDL
MODEL 8
REMARK VINA RESULT:      -6.6      1.519      2.291
REMARK  Name = 45784245
REMARK  5 active torsions:
REMARK  status: ('A' for Active; 'I' for Inactive)
REMARK    1  A    between atoms: O_1  and  C_24
REMARK    2  A    between atoms: N_3  and  C_11
REMARK    3  A    between atoms: C_6  and  C_10
REMARK    4  A    between atoms: C_11  and  C_12
REMARK    5  A    between atoms: C_23  and  C_24
REMARK                            x       y       z     vdW  Elec       q    Type
REMARK                         _______ _______ _______ _____ _____    ______ ____
ROOT
ATOM      3  N   UNL     1      12.246   5.034   2.165  0.00  0.00    -0.297 NA
ATOM      6  C   UNL     1      12.452   3.561   0.352  0.00  0.00    +0.070 C 
ATOM      7  C   UNL     1      13.831   4.149   0.698  0.00  0.00    +0.028 C 
ATOM      8  C   UNL     1      11.449   4.474   1.072  0.00  0.00    +0.096 C 
ATOM      9  C   UNL     1      13.535   5.368   1.561  0.00  0.00    +0.085 C 
ENDROOT
BRANCH   6  10
ATOM      4  N   UNL     1      10.891   3.376  -1.603  0.00  0.00    -0.342 N 
ATOM      5  N   UNL     1      13.059   3.344  -2.092  0.00  0.00    -0.232 NA
ATOM     10  C   UNL     1      12.171   3.427  -1.126  0.00  0.00    +0.113 A 
ATOM     13  C   UNL     1      10.957   3.254  -2.967  0.00  0.00    +0.066 A 
ATOM     14  C   UNL     1      12.320   3.236  -3.247  0.00  0.00    +0.089 A 
ATOM     17  C   UNL     1       9.971   3.159  -3.951  0.00  0.00    +0.028 A 
ATOM     18  C   UNL     1      12.744   3.118  -4.582  0.00  0.00    +0.030 A 
ATOM     21  C   UNL     1      10.411   3.042  -5.274  0.00  0.00    +0.002 A 
ATOM     22  C   UNL     1      11.772   3.022  -5.586  0.00  0.00    +0.002 A 
ATOM     25  H   UNL     1      10.044   3.421  -1.052  0.00  0.00    +0.167 HD
ENDBRANCH   6  10
BRANCH   3  11
ATOM     11  C   UNL     1      11.607   6.187   2.783  0.00  0.00    +0.119 C 
BRANCH  11  12
ATOM     12  C   UNL     1      11.154   5.891   4.189  0.00  0.00    -0.033 A 
ATOM     15  C   UNL     1      11.663   6.633   5.254  0.00  0.00    +0.006 A 
ATOM     16  C   UNL     1      10.227   4.876   4.424  0.00  0.00    +0.006 A 
ATOM     19  C   UNL     1      11.244   6.359   6.557  0.00  0.00    +0.015 A 
ATOM     20  C   UNL     1       9.808   4.603   5.726  0.00  0.00    +0.015 A 
ATOM     23  C   UNL     1      10.317   5.344   6.793  0.00  0.00    +0.059 A 
BRANCH  23  24
ATOM      2  O   UNL     1       9.208   5.816   8.860  0.00  0.00    -0.245 OA
ATOM     24  C   UNL     1       9.879   5.059   8.150  0.00  0.00    +0.337 C 
BRANCH  24   1
ATOM      1  O   UNL     1      10.289   3.836   8.583  0.00  0.00    -0.477 OA
ATOM     26  H   UNL     1      10.660   3.875   9.490  0.00  0.00    +0.295 HD
ENDBRANCH  24   1
ENDBRANCH  23  24
ENDBRANCH  11  12
ENDBRANCH   3  11
TORSDOF 5
ENDMDL
MODEL 9
REMARK VINA RESULT:      -6.5     26.512     27.974
REMARK  Name = 45784245
REMARK  5 active torsions:
REMARK  status: ('A' for Active; 'I' for Inactive)
REMARK    1  A    between atoms: O_1  and  C_24
REMARK    2  A    between atoms: N_3  and  C_11
REMARK    3  A    between atoms: C_6  and  C_10
REMARK    4  A    between atoms: C_11  and  C_12
REMARK    5  A    between atoms: C_23  and  C_24
REMARK                            x       y       z     vdW  Elec       q    Type
REMARK                         _______ _______ _______ _____ _____    ______ ____
ROOT
ATOM      3  N   UNL     1     -10.073  -8.543  16.215  0.00  0.00    -0.297 NA
ATOM      6  C   UNL     1     -11.647  -6.822  15.969  0.00  0.00    +0.070 C 
ATOM      7  C   UNL     1     -12.368  -8.130  16.333  0.00  0.00    +0.028 C 
ATOM      8  C   UNL     1     -10.243  -7.261  15.528  0.00  0.00    +0.096 C 
ATOM      9  C   UNL     1     -11.353  -9.231  16.053  0.00  0.00    +0.085 C 
ENDROOT
BRANCH   6  10
ATOM      4  N   UNL     1     -11.652  -5.149  14.098  0.00  0.00    -0.342 N 
ATOM      5  N   UNL     1     -13.645  -5.918  14.712  0.00  0.00    -0.232 NA
ATOM     10  C   UNL     1     -12.350  -5.975  14.934  0.00  0.00    +0.113 A 
ATOM     13  C   UNL     1     -12.554  -4.519  13.281  0.00  0.00    +0.066 A 
ATOM     14  C   UNL     1     -13.791  -5.015  13.685  0.00  0.00    +0.089 A 
ATOM     17  C   UNL     1     -12.401  -3.584  12.256  0.00  0.00    +0.028 A 
ATOM     18  C   UNL     1     -14.954  -4.564  13.038  0.00  0.00    +0.030 A 
ATOM     21  C   UNL     1     -13.569  -3.146  11.623  0.00  0.00    +0.002 A 
ATOM     22  C   UNL     1     -14.824  -3.626  12.005  0.00  0.00    +0.002 A 
ATOM     25  H   UNL     1     -10.648  -5.024  14.080  0.00  0.00    +0.167 HD
ENDBRANCH   6  10
BRANCH   3  11
ATOM     11  C   UNL     1      -8.958  -9.314  15.684  0.00  0.00    +0.119 C 
BRANCH  11  12
ATOM     12  C   UNL     1      -8.072  -9.845  16.779  0.00  0.00    -0.033 A 
ATOM     15  C   UNL     1      -6.686  -9.840  16.616  0.00  0.00    +0.006 A 
ATOM     16  C   UNL     1      -8.635 -10.342  17.953  0.00  0.00    +0.006 A 
ATOM     19  C   UNL     1      -5.864 -10.333  17.631  0.00  0.00    +0.015 A 
ATOM     20  C   UNL     1      -7.813 -10.835  18.968  0.00  0.00    +0.015 A 
ATOM     23  C   UNL     1      -6.427 -10.830  18.806  0.00  0.00    +0.059 A 
BRANCH  23  24
ATOM      2  O   UNL     1      -5.859 -11.377  21.065  0.00  0.00    -0.245 OA
ATOM     24  C   UNL     1      -5.571 -11.342  19.864  0.00  0.00    +0.337 C 
BRANCH  24   1
ATOM      1  O   UNL     1      -4.379 -11.800  19.393  0.00  0.00    -0.477 OA
ATOM     26  H   UNL     1      -4.218 -12.733  19.653  0.00  0.00    +0.295 HD
ENDBRANCH  24   1
ENDBRANCH  23  24
ENDBRANCH  11  12
ENDBRANCH   3  11
TORSDOF 5
ENDMDL
MODEL 10
REMARK VINA RESULT:      -6.3     10.854     13.557
REMARK  Name = 45784245
REMARK  5 active torsions:
REMARK  status: ('A' for Active; 'I' for Inactive)
REMARK    1  A    between atoms: O_1  and  C_24
REMARK    2  A    between atoms: N_3  and  C_11
REMARK    3  A    between atoms: C_6  and  C_10
REMARK    4  A    between atoms: C_11  and  C_12
REMARK    5  A    between atoms: C_23  and  C_24
REMARK                            x       y       z     vdW  Elec       q    Type
REMARK                         _______ _______ _______ _____ _____    ______ ____
ROOT
ATOM      3  N   UNL     1       2.340   4.476  -5.223  0.00  0.00    -0.297 NA
ATOM      6  C   UNL     1       1.509   2.284  -5.309  0.00  0.00    +0.070 C 
ATOM      7  C   UNL     1       2.798   2.379  -6.143  0.00  0.00    +0.028 C 
ATOM      8  C   UNL     1       1.080   3.741  -5.089  0.00  0.00    +0.096 C 
ATOM      9  C   UNL     1       3.009   3.870  -6.373  0.00  0.00    +0.085 C 
ENDROOT
BRANCH   6  10
ATOM      4  N   UNL     1      -0.434   1.941  -6.859  0.00  0.00    -0.342 N 
ATOM      5  N   UNL     1       0.157   0.176  -5.645  0.00  0.00    -0.232 NA
ATOM     10  C   UNL     1       0.419   1.434  -5.918  0.00  0.00    +0.113 A 
ATOM     13  C   UNL     1      -1.303   0.943  -7.217  0.00  0.00    +0.066 A 
ATOM     14  C   UNL     1      -0.914  -0.148  -6.445  0.00  0.00    +0.089 A 
ATOM     17  C   UNL     1      -2.365   0.902  -8.122  0.00  0.00    +0.028 A 
ATOM     18  C   UNL     1      -1.614  -1.360  -6.571  0.00  0.00    +0.030 A 
ATOM     21  C   UNL     1      -3.051  -0.312  -8.234  0.00  0.00    +0.002 A 
ATOM     22  C   UNL     1      -2.684  -1.424  -7.474  0.00  0.00    +0.002 A 
ATOM     25  H   UNL     1      -0.427   2.882  -7.228  0.00  0.00    +0.167 HD
ENDBRANCH   6  10
BRANCH   3  11
ATOM     11  C   UNL     1       2.133   5.907  -5.391  0.00  0.00    +0.119 C 
BRANCH  11  12
ATOM     12  C   UNL     1       3.127   6.714  -4.599  0.00  0.00    -0.033 A 
ATOM     15  C   UNL     1       3.199   8.096  -4.776  0.00  0.00    +0.006 A 
ATOM     16  C   UNL     1       3.974   6.081  -3.691  0.00  0.00    +0.006 A 
ATOM     19  C   UNL     1       4.120   8.845  -4.043  0.00  0.00    +0.015 A 
ATOM     20  C   UNL     1       4.895   6.830  -2.958  0.00  0.00    +0.015 A 
ATOM     23  C   UNL     1       4.968   8.212  -3.134  0.00  0.00    +0.059 A 
BRANCH  23  24
ATOM      2  O   UNL     1       6.923   9.557  -2.832  0.00  0.00    -0.245 OA
ATOM     24  C   UNL     1       5.928   8.992  -2.368  0.00  0.00    +0.337 C 
BRANCH  24   1
ATOM      1  O   UNL     1       5.617   9.046  -1.045  0.00  0.00    -0.477 OA
ATOM     26  H   UNL     1       6.083   9.780  -0.590  0.00  0.00    +0.295 HD
ENDBRANCH  24   1
ENDBRANCH  23  24
ENDBRANCH  11  12
ENDBRANCH   3  11
TORSDOF 5
ENDMDL
