MODEL 1
REMARK VINA RESULT:      -7.8      0.000      0.000
REMARK  Name = 25314512
REMARK  6 active torsions:
REMARK  status: ('A' for Active; 'I' for Inactive)
REMARK    1  A    between atoms: O_4  and  C_10
REMARK    2  A    between atoms: N_6  and  C_9
REMARK    3  A    between atoms: N_7  and  C_11
REMARK    4  A    between atoms: N_8  and  C_27
REMARK    5  A    between atoms: C_16  and  C_20
REMARK    6  A    between atoms: C_20  and  C_21
REMARK                            x       y       z     vdW  Elec       q    Type
REMARK                         _______ _______ _______ _____ _____    ______ ____
ROOT
ATOM      2  O   UNL     1      10.577   8.442   5.627  0.00  0.00    -0.342 OA
ATOM      3  O   UNL     1       9.857   8.055   7.798  0.00  0.00    -0.347 OA
ATOM      9  C   UNL     1      12.180   7.662   7.252  0.00  0.00    +0.143 C 
ATOM     10  C   UNL     1      11.867   6.194   6.884  0.00  0.00    +0.159 C 
ATOM     11  C   UNL     1      10.887   6.052   5.699  0.00  0.00    +0.136 C 
ATOM     12  C   UNL     1      10.949   8.554   7.008  0.00  0.00    +0.270 C 
ATOM     13  C   UNL     1       9.862   7.202   5.618  0.00  0.00    +0.170 C 
ATOM     17  C   UNL     1       9.011   7.365   6.863  0.00  0.00    +0.196 C 
ENDROOT
BRANCH  11   7
ATOM      5  O   UNL     1      10.199   4.451   3.426  0.00  0.00    -0.252 OA
ATOM      7  N   UNL     1      11.618   5.959   4.454  0.00  0.00    -0.291 N 
ATOM      8  N   UNL     1      12.107   5.262   2.326  0.00  0.00    -0.269 N 
ATOM     22  C   UNL     1      11.209   5.149   3.391  0.00  0.00    +0.304 C 
ATOM     34  H   UNL     1      12.506   6.444   4.380  0.00  0.00    +0.151 HD
ATOM     36  H   UNL     1      12.898   5.887   2.459  0.00  0.00    +0.156 HD
BRANCH   8  27
ATOM      1  F   UNL     1      11.896   2.703  -2.587  0.00  0.00    -0.205 F 
ATOM     27  C   UNL     1      12.053   4.609   1.073  0.00  0.00    +0.035 A 
ATOM     29  C   UNL     1      13.044   3.692   0.721  0.00  0.00    +0.026 A 
ATOM     30  C   UNL     1      11.010   4.883   0.187  0.00  0.00    +0.026 A 
ATOM     31  C   UNL     1      12.990   3.048  -0.515  0.00  0.00    +0.040 A 
ATOM     32  C   UNL     1      10.958   4.240  -1.049  0.00  0.00    +0.040 A 
ATOM     33  C   UNL     1      11.947   3.322  -1.401  0.00  0.00    +0.124 A 
ENDBRANCH   8  27
ENDBRANCH  11   7
BRANCH   9   6
ATOM      6  N   UNL     1      13.310   8.151   6.459  0.00  0.00    -0.293 NA
ATOM     14  C   UNL     1      14.423   7.193   6.506  0.00  0.00    +0.085 C 
ATOM     15  C   UNL     1      13.732   9.477   6.929  0.00  0.00    +0.085 C 
ATOM     16  C   UNL     1      16.068   9.060   6.054  0.00  0.00    -0.004 C 
ATOM     18  C   UNL     1      15.593   7.663   5.639  0.00  0.00    +0.019 C 
ATOM     19  C   UNL     1      14.878  10.025   6.076  0.00  0.00    +0.019 C 
BRANCH  16  20
ATOM     20  C   UNL     1      17.167   9.565   5.123  0.00  0.00    +0.038 C 
BRANCH  20  21
ATOM     21  C   UNL     1      18.467   8.846   5.359  0.00  0.00    -0.047 A 
ATOM     23  C   UNL     1      19.108   8.952   6.594  0.00  0.00    +0.003 A 
ATOM     24  C   UNL     1      19.032   8.075   4.343  0.00  0.00    +0.003 A 
ATOM     25  C   UNL     1      20.315   8.285   6.812  0.00  0.00    +0.000 A 
ATOM     26  C   UNL     1      20.238   7.409   4.562  0.00  0.00    +0.000 A 
ATOM     28  C   UNL     1      20.879   7.514   5.796  0.00  0.00    +0.000 A 
ENDBRANCH  20  21
ENDBRANCH  16  20
ENDBRANCH   9   6
BRANCH  10   4
ATOM      4  O   UNL     1      11.291   5.568   8.037  0.00  0.00    -0.388 OA
ATOM     35  H   UNL     1      11.188   6.251   8.722  0.00  0.00    +0.210 HD
ENDBRANCH  10   4
TORSDOF 6
ENDMDL
MODEL 2
REMARK VINA RESULT:      -7.8     12.960     15.494
REMARK  Name = 25314512
REMARK  6 active torsions:
REMARK  status: ('A' for Active; 'I' for Inactive)
REMARK    1  A    between atoms: O_4  and  C_10
REMARK    2  A    between atoms: N_6  and  C_9
REMARK    3  A    between atoms: N_7  and  C_11
REMARK    4  A    between atoms: N_8  and  C_27
REMARK    5  A    between atoms: C_16  and  C_20
REMARK    6  A    between atoms: C_20  and  C_21
REMARK                            x       y       z     vdW  Elec       q    Type
REMARK                         _______ _______ _______ _____ _____    ______ ____
ROOT
ATOM      2  O   UNL     1      13.309   9.088  21.229  0.00  0.00    -0.342 OA
ATOM      3  O   UNL     1      11.772   7.412  21.684  0.00  0.00    -0.347 OA
ATOM      9  C   UNL     1      13.817   6.836  20.530  0.00  0.00    +0.143 C 
ATOM     10  C   UNL     1      13.142   7.088  19.163  0.00  0.00    +0.159 C 
ATOM     11  C   UNL     1      12.672   8.546  18.968  0.00  0.00    +0.136 C 
ATOM     12  C   UNL     1      13.175   7.714  21.619  0.00  0.00    +0.270 C 
ATOM     13  C   UNL     1      12.244   9.227  20.284  0.00  0.00    +0.170 C 
ATOM     17  C   UNL     1      11.128   8.511  21.019  0.00  0.00    +0.196 C 
ENDROOT
BRANCH  11   7
ATOM      5  O   UNL     1      12.501   9.886  16.442  0.00  0.00    -0.252 OA
ATOM      7  N   UNL     1      13.712   9.325  18.330  0.00  0.00    -0.291 N 
ATOM      8  N   UNL     1      14.711  10.624  16.728  0.00  0.00    -0.269 N 
ATOM     22  C   UNL     1      13.543   9.947  17.090  0.00  0.00    +0.304 C 
ATOM     34  H   UNL     1      14.628   9.354  18.766  0.00  0.00    +0.151 HD
ATOM     36  H   UNL     1      15.489  10.575  17.380  0.00  0.00    +0.156 HD
BRANCH   8  27
ATOM      1  F   UNL     1      15.641  13.571  12.126  0.00  0.00    -0.205 F 
ATOM     27  C   UNL     1      14.949  11.376  15.554  0.00  0.00    +0.035 A 
ATOM     29  C   UNL     1      14.613  12.730  15.513  0.00  0.00    +0.026 A 
ATOM     30  C   UNL     1      15.518  10.764  14.436  0.00  0.00    +0.026 A 
ATOM     31  C   UNL     1      14.847  13.471  14.354  0.00  0.00    +0.040 A 
ATOM     32  C   UNL     1      15.751  11.506  13.278  0.00  0.00    +0.040 A 
ATOM     33  C   UNL     1      15.416  12.859  13.237  0.00  0.00    +0.124 A 
ENDBRANCH   8  27
ENDBRANCH  11   7
BRANCH   9   6
ATOM      6  N   UNL     1      15.251   7.123  20.444  0.00  0.00    -0.293 NA
ATOM     14  C   UNL     1      15.926   6.121  19.608  0.00  0.00    +0.085 C 
ATOM     15  C   UNL     1      15.845   7.181  21.787  0.00  0.00    +0.085 C 
ATOM     16  C   UNL     1      18.099   6.542  20.833  0.00  0.00    -0.004 C 
ATOM     18  C   UNL     1      17.417   6.436  19.465  0.00  0.00    +0.019 C 
ATOM     19  C   UNL     1      17.332   7.533  21.717  0.00  0.00    +0.019 C 
BRANCH  16  20
ATOM     20  C   UNL     1      19.561   6.955  20.687  0.00  0.00    +0.038 C 
BRANCH  20  21
ATOM     21  C   UNL     1      20.491   5.896  21.212  0.00  0.00    -0.047 A 
ATOM     23  C   UNL     1      20.653   4.701  20.512  0.00  0.00    +0.003 A 
ATOM     24  C   UNL     1      21.190   6.110  22.400  0.00  0.00    +0.003 A 
ATOM     25  C   UNL     1      21.516   3.718  20.999  0.00  0.00    +0.000 A 
ATOM     26  C   UNL     1      22.052   5.127  22.887  0.00  0.00    +0.000 A 
ATOM     28  C   UNL     1      22.215   3.932  22.187  0.00  0.00    +0.000 A 
ENDBRANCH  20  21
ENDBRANCH  16  20
ENDBRANCH   9   6
BRANCH  10   4
ATOM      4  O   UNL     1      12.005   6.221  19.071  0.00  0.00    -0.388 OA
ATOM     35  H   UNL     1      12.303   5.387  18.669  0.00  0.00    +0.210 HD
ENDBRANCH  10   4
TORSDOF 6
ENDMDL
MODEL 3
REMARK VINA RESULT:      -7.2     25.950     28.953
REMARK  Name = 25314512
REMARK  6 active torsions:
REMARK  status: ('A' for Active; 'I' for Inactive)
REMARK    1  A    between atoms: O_4  and  C_10
REMARK    2  A    between atoms: N_6  and  C_9
REMARK    3  A    between atoms: N_7  and  C_11
REMARK    4  A    between atoms: N_8  and  C_27
REMARK    5  A    between atoms: C_16  and  C_20
REMARK    6  A    between atoms: C_20  and  C_21
REMARK                            x       y       z     vdW  Elec       q    Type
REMARK                         _______ _______ _______ _____ _____    ______ ____
ROOT
ATOM      2  O   UNL     1      -4.837 -10.295  18.131  0.00  0.00    -0.342 OA
ATOM      3  O   UNL     1      -4.394 -12.345  19.121  0.00  0.00    -0.347 OA
ATOM      9  C   UNL     1      -4.538 -12.221  16.711  0.00  0.00    +0.143 C 
ATOM     10  C   UNL     1      -6.054 -12.520  16.764  0.00  0.00    +0.159 C 
ATOM     11  C   UNL     1      -6.866 -11.447  17.522  0.00  0.00    +0.136 C 
ATOM     12  C   UNL     1      -4.082 -11.507  17.996  0.00  0.00    +0.270 C 
ATOM     13  C   UNL     1      -6.073 -10.781  18.665  0.00  0.00    +0.170 C 
ATOM     17  C   UNL     1      -5.560 -11.750  19.712  0.00  0.00    +0.196 C 
ENDROOT
BRANCH  11   7
ATOM      5  O   UNL     1      -9.397 -10.110  17.602  0.00  0.00    -0.252 OA
ATOM      7  N   UNL     1      -7.339 -10.437  16.600  0.00  0.00    -0.291 N 
ATOM      8  N   UNL     1      -8.775  -8.901  15.688  0.00  0.00    -0.269 N 
ATOM     22  C   UNL     1      -8.595  -9.834  16.714  0.00  0.00    +0.304 C 
ATOM     34  H   UNL     1      -6.765 -10.214  15.794  0.00  0.00    +0.151 HD
ATOM     36  H   UNL     1      -8.009  -8.792  15.030  0.00  0.00    +0.156 HD
BRANCH   8  27
ATOM      1  F   UNL     1     -13.198  -5.692  14.754  0.00  0.00    -0.205 F 
ATOM     27  C   UNL     1      -9.903  -8.082  15.449  0.00  0.00    +0.035 A 
ATOM     29  C   UNL     1     -10.094  -6.922  16.200  0.00  0.00    +0.026 A 
ATOM     30  C   UNL     1     -10.826  -8.435  14.464  0.00  0.00    +0.026 A 
ATOM     31  C   UNL     1     -11.208  -6.115  15.965  0.00  0.00    +0.040 A 
ATOM     32  C   UNL     1     -11.939  -7.628  14.230  0.00  0.00    +0.040 A 
ATOM     33  C   UNL     1     -12.130  -6.467  14.980  0.00  0.00    +0.124 A 
ENDBRANCH   8  27
ENDBRANCH  11   7
BRANCH   9   6
ATOM      6  N   UNL     1      -4.230 -11.389  15.546  0.00  0.00    -0.293 NA
ATOM     14  C   UNL     1      -5.024 -11.814  14.386  0.00  0.00    +0.085 C 
ATOM     15  C   UNL     1      -2.791 -11.433  15.249  0.00  0.00    +0.085 C 
ATOM     16  C   UNL     1      -3.261 -10.892  12.823  0.00  0.00    -0.004 C 
ATOM     18  C   UNL     1      -4.753 -10.919  13.174  0.00  0.00    +0.019 C 
ATOM     19  C   UNL     1      -2.445 -10.525  14.067  0.00  0.00    +0.019 C 
BRANCH  16  20
ATOM     20  C   UNL     1      -2.984  -9.921  11.679  0.00  0.00    +0.038 C 
BRANCH  20  21
ATOM     21  C   UNL     1      -3.652 -10.362  10.405  0.00  0.00    -0.047 A 
ATOM     23  C   UNL     1      -3.707 -11.717  10.078  0.00  0.00    +0.003 A 
ATOM     24  C   UNL     1      -4.214  -9.414   9.549  0.00  0.00    +0.003 A 
ATOM     25  C   UNL     1      -4.326 -12.125   8.896  0.00  0.00    +0.000 A 
ATOM     26  C   UNL     1      -4.832  -9.823   8.367  0.00  0.00    +0.000 A 
ATOM     28  C   UNL     1      -4.889 -11.178   8.041  0.00  0.00    +0.000 A 
ENDBRANCH  20  21
ENDBRANCH  16  20
ENDBRANCH   9   6
BRANCH  10   4
ATOM      4  O   UNL     1      -6.227 -13.780  17.424  0.00  0.00    -0.388 OA
ATOM     35  H   UNL     1      -6.556 -14.415  16.764  0.00  0.00    +0.210 HD
ENDBRANCH  10   4
TORSDOF 6
ENDMDL
MODEL 4
REMARK VINA RESULT:      -6.8     14.796     17.916
REMARK  Name = 25314512
REMARK  6 active torsions:
REMARK  status: ('A' for Active; 'I' for Inactive)
REMARK    1  A    between atoms: O_4  and  C_10
REMARK    2  A    between atoms: N_6  and  C_9
REMARK    3  A    between atoms: N_7  and  C_11
REMARK    4  A    between atoms: N_8  and  C_27
REMARK    5  A    between atoms: C_16  and  C_20
REMARK    6  A    between atoms: C_20  and  C_21
REMARK                            x       y       z     vdW  Elec       q    Type
REMARK                         _______ _______ _______ _____ _____    ______ ____
ROOT
ATOM      2  O   UNL     1      20.507  -6.009   1.705  0.00  0.00    -0.342 OA
ATOM      3  O   UNL     1      22.713  -5.838   1.010  0.00  0.00    -0.347 OA
ATOM      9  C   UNL     1      21.002  -6.278  -0.640  0.00  0.00    +0.143 C 
ATOM     10  C   UNL     1      21.178  -7.802  -0.448  0.00  0.00    +0.159 C 
ATOM     11  C   UNL     1      20.845  -8.284   0.981  0.00  0.00    +0.136 C 
ATOM     12  C   UNL     1      21.356  -5.525   0.655  0.00  0.00    +0.270 C 
ATOM     13  C   UNL     1      21.158  -7.231   2.065  0.00  0.00    +0.170 C 
ATOM     17  C   UNL     1      22.604  -6.778   2.091  0.00  0.00    +0.196 C 
ENDROOT
BRANCH  11   7
ATOM      5  O   UNL     1      19.814 -10.711   2.098  0.00  0.00    -0.252 OA
ATOM      7  N   UNL     1      19.454  -8.674   1.065  0.00  0.00    -0.291 N 
ATOM      8  N   UNL     1      17.644  -9.987   1.569  0.00  0.00    -0.269 N 
ATOM     22  C   UNL     1      19.037  -9.883   1.628  0.00  0.00    +0.304 C 
ATOM     34  H   UNL     1      18.760  -8.079   0.625  0.00  0.00    +0.151 HD
ATOM     36  H   UNL     1      17.145  -9.209   1.146  0.00  0.00    +0.156 HD
BRANCH   8  27
ATOM      1  F   UNL     1      14.465 -14.154   3.374  0.00  0.00    -0.205 F 
ATOM     27  C   UNL     1      16.833 -11.050   2.030  0.00  0.00    +0.035 A 
ATOM     29  C   UNL     1      16.350 -11.999   1.129  0.00  0.00    +0.026 A 
ATOM     30  C   UNL     1      16.515 -11.149   3.385  0.00  0.00    +0.026 A 
ATOM     31  C   UNL     1      15.550 -13.048   1.584  0.00  0.00    +0.040 A 
ATOM     32  C   UNL     1      15.714 -12.197   3.839  0.00  0.00    +0.040 A 
ATOM     33  C   UNL     1      15.232 -13.147   2.938  0.00  0.00    +0.124 A 
ENDBRANCH   8  27
ENDBRANCH  11   7
BRANCH   9   6
ATOM      6  N   UNL     1      19.623  -5.975  -1.027  0.00  0.00    -0.293 NA
ATOM     14  C   UNL     1      19.185  -6.866  -2.111  0.00  0.00    +0.085 C 
ATOM     15  C   UNL     1      19.496  -4.565  -1.417  0.00  0.00    +0.085 C 
ATOM     16  C   UNL     1      17.513  -5.132  -2.881  0.00  0.00    -0.004 C 
ATOM     18  C   UNL     1      17.727  -6.599  -2.491  0.00  0.00    +0.019 C 
ATOM     19  C   UNL     1      18.048  -4.219  -1.772  0.00  0.00    +0.019 C 
BRANCH  16  20
ATOM     20  C   UNL     1      16.040  -4.849  -3.161  0.00  0.00    +0.038 C 
BRANCH  20  21
ATOM     21  C   UNL     1      15.496  -5.752  -4.235  0.00  0.00    -0.047 A 
ATOM     23  C   UNL     1      16.049  -5.725  -5.515  0.00  0.00    +0.003 A 
ATOM     24  C   UNL     1      14.439  -6.616  -3.949  0.00  0.00    +0.003 A 
ATOM     25  C   UNL     1      15.545  -6.563  -6.511  0.00  0.00    +0.000 A 
ATOM     26  C   UNL     1      13.934  -7.452  -4.944  0.00  0.00    +0.000 A 
ATOM     28  C   UNL     1      14.487  -7.426  -6.225  0.00  0.00    +0.000 A 
ENDBRANCH  20  21
ENDBRANCH  16  20
ENDBRANCH   9   6
BRANCH  10   4
ATOM      4  O   UNL     1      22.545  -8.123  -0.735  0.00  0.00    -0.388 OA
ATOM     35  H   UNL     1      22.576  -9.055  -1.013  0.00  0.00    +0.210 HD
ENDBRANCH  10   4
TORSDOF 6
ENDMDL
MODEL 5
REMARK VINA RESULT:      -6.8      2.547      6.229
REMARK  Name = 25314512
REMARK  6 active torsions:
REMARK  status: ('A' for Active; 'I' for Inactive)
REMARK    1  A    between atoms: O_4  and  C_10
REMARK    2  A    between atoms: N_6  and  C_9
REMARK    3  A    between atoms: N_7  and  C_11
REMARK    4  A    between atoms: N_8  and  C_27
REMARK    5  A    between atoms: C_16  and  C_20
REMARK    6  A    between atoms: C_20  and  C_21
REMARK                            x       y       z     vdW  Elec       q    Type
REMARK                         _______ _______ _______ _____ _____    ______ ____
ROOT
ATOM      2  O   UNL     1      15.349   7.986   6.342  0.00  0.00    -0.342 OA
ATOM      3  O   UNL     1      16.249  10.118   6.197  0.00  0.00    -0.347 OA
ATOM      9  C   UNL     1      13.985   9.754   5.430  0.00  0.00    +0.143 C 
ATOM     10  C   UNL     1      14.495   9.439   4.006  0.00  0.00    +0.159 C 
ATOM     11  C   UNL     1      15.412   8.198   3.941  0.00  0.00    +0.136 C 
ATOM     12  C   UNL     1      15.048   9.381   6.480  0.00  0.00    +0.270 C 
ATOM     13  C   UNL     1      16.243   7.990   5.224  0.00  0.00    +0.170 C 
ATOM     17  C   UNL     1      17.132   9.163   5.586  0.00  0.00    +0.196 C 
ENDROOT
BRANCH  11   7
ATOM      5  O   UNL     1      14.449   7.339   1.384  0.00  0.00    -0.252 OA
ATOM      7  N   UNL     1      14.629   7.013   3.666  0.00  0.00    -0.291 N 
ATOM      8  N   UNL     1      13.466   5.477   2.423  0.00  0.00    -0.269 N 
ATOM     22  C   UNL     1      14.199   6.667   2.382  0.00  0.00    +0.304 C 
ATOM     34  H   UNL     1      14.315   6.451   4.450  0.00  0.00    +0.151 HD
ATOM     36  H   UNL     1      13.350   5.044   3.335  0.00  0.00    +0.156 HD
BRANCH   8  27
ATOM      1  F   UNL     1      11.094   2.799  -1.810  0.00  0.00    -0.205 F 
ATOM     27  C   UNL     1      12.861   4.794   1.344  0.00  0.00    +0.035 A 
ATOM     29  C   UNL     1      13.605   3.888   0.586  0.00  0.00    +0.026 A 
ATOM     30  C   UNL     1      11.520   5.025   1.035  0.00  0.00    +0.026 A 
ATOM     31  C   UNL     1      13.007   3.215  -0.480  0.00  0.00    +0.040 A 
ATOM     32  C   UNL     1      10.923   4.352  -0.031  0.00  0.00    +0.040 A 
ATOM     33  C   UNL     1      11.666   3.446  -0.789  0.00  0.00    +0.124 A 
ENDBRANCH   8  27
ENDBRANCH  11   7
BRANCH   9   6
ATOM      6  N   UNL     1      12.747   9.018   5.697  0.00  0.00    -0.293 NA
ATOM     14  C   UNL     1      11.799   9.187   4.587  0.00  0.00    +0.085 C 
ATOM     15  C   UNL     1      12.156   9.450   6.970  0.00  0.00    +0.085 C 
ATOM     16  C   UNL     1       9.863   8.758   6.157  0.00  0.00    -0.004 C 
ATOM     18  C   UNL     1      10.521   8.380   4.825  0.00  0.00    +0.019 C 
ATOM     19  C   UNL     1      10.890   8.652   7.290  0.00  0.00    +0.019 C 
BRANCH  16  20
ATOM     20  C   UNL     1       8.646   7.881   6.436  0.00  0.00    +0.038 C 
BRANCH  20  21
ATOM     21  C   UNL     1       9.033   6.597   7.118  0.00  0.00    -0.047 A 
ATOM     23  C   UNL     1       8.985   6.503   8.509  0.00  0.00    +0.003 A 
ATOM     24  C   UNL     1       9.442   5.501   6.358  0.00  0.00    +0.003 A 
ATOM     25  C   UNL     1       9.344   5.312   9.140  0.00  0.00    +0.000 A 
ATOM     26  C   UNL     1       9.802   4.311   6.990  0.00  0.00    +0.000 A 
ATOM     28  C   UNL     1       9.752   4.216   8.381  0.00  0.00    +0.000 A 
ENDBRANCH  20  21
ENDBRANCH  16  20
ENDBRANCH   9   6
BRANCH  10   4
ATOM      4  O   UNL     1      15.229  10.579   3.543  0.00  0.00    -0.388 OA
ATOM     35  H   UNL     1      14.607  11.153   3.062  0.00  0.00    +0.210 HD
ENDBRANCH  10   4
TORSDOF 6
ENDMDL
MODEL 6
REMARK VINA RESULT:      -6.7     25.811     28.318
REMARK  Name = 25314512
REMARK  6 active torsions:
REMARK  status: ('A' for Active; 'I' for Inactive)
REMARK    1  A    between atoms: O_4  and  C_10
REMARK    2  A    between atoms: N_6  and  C_9
REMARK    3  A    between atoms: N_7  and  C_11
REMARK    4  A    between atoms: N_8  and  C_27
REMARK    5  A    between atoms: C_16  and  C_20
REMARK    6  A    between atoms: C_20  and  C_21
REMARK                            x       y       z     vdW  Elec       q    Type
REMARK                         _______ _______ _______ _____ _____    ______ ____
ROOT
ATOM      2  O   UNL     1      -8.947  -8.395  17.349  0.00  0.00    -0.342 OA
ATOM      3  O   UNL     1     -10.525  -9.808  18.293  0.00  0.00    -0.347 OA
ATOM      9  C   UNL     1      -8.578 -10.776  17.237  0.00  0.00    +0.143 C 
ATOM     10  C   UNL     1      -9.320 -10.846  15.883  0.00  0.00    +0.159 C 
ATOM     11  C   UNL     1      -9.737  -9.463  15.338  0.00  0.00    +0.136 C 
ATOM     12  C   UNL     1      -9.117  -9.612  18.089  0.00  0.00    +0.270 C 
ATOM     13  C   UNL     1     -10.059  -8.443  16.450  0.00  0.00    +0.170 C 
ATOM     17  C   UNL     1     -11.160  -8.882  17.396  0.00  0.00    +0.196 C 
ENDROOT
BRANCH  11   7
ATOM      5  O   UNL     1      -8.718 -10.677  12.952  0.00  0.00    -0.252 OA
ATOM      7  N   UNL     1      -8.704  -8.935  14.473  0.00  0.00    -0.291 N 
ATOM      8  N   UNL     1      -7.264  -8.851  12.692  0.00  0.00    -0.269 N 
ATOM     22  C   UNL     1      -8.265  -9.597  13.323  0.00  0.00    +0.304 C 
ATOM     34  H   UNL     1      -8.226  -8.087  14.757  0.00  0.00    +0.151 HD
ATOM     36  H   UNL     1      -7.002  -7.973  13.131  0.00  0.00    +0.156 HD
BRANCH   8  27
ATOM      1  F   UNL     1      -4.516 -10.105   8.044  0.00  0.00    -0.205 F 
ATOM     27  C   UNL     1      -6.563  -9.171  11.506  0.00  0.00    +0.035 A 
ATOM     29  C   UNL     1      -7.168  -8.978  10.264  0.00  0.00    +0.026 A 
ATOM     30  C   UNL     1      -5.266  -9.681  11.578  0.00  0.00    +0.026 A 
ATOM     31  C   UNL     1      -6.477  -9.294   9.095  0.00  0.00    +0.040 A 
ATOM     32  C   UNL     1      -4.575  -9.997  10.408  0.00  0.00    +0.040 A 
ATOM     33  C   UNL     1      -5.180  -9.804   9.166  0.00  0.00    +0.124 A 
ENDBRANCH   8  27
ENDBRANCH  11   7
BRANCH   9   6
ATOM      6  N   UNL     1      -7.141 -10.603  17.015  0.00  0.00    -0.293 NA
ATOM     14  C   UNL     1      -6.689 -11.440  15.896  0.00  0.00    +0.085 C 
ATOM     15  C   UNL     1      -6.391 -10.906  18.241  0.00  0.00    +0.085 C 
ATOM     16  C   UNL     1      -4.354 -11.501  16.865  0.00  0.00    -0.004 C 
ATOM     18  C   UNL     1      -5.199 -11.231  15.616  0.00  0.00    +0.019 C 
ATOM     19  C   UNL     1      -4.891 -10.678  18.041  0.00  0.00    +0.019 C 
BRANCH  16  20
ATOM     20  C   UNL     1      -2.881 -11.194  16.608  0.00  0.00    +0.038 C 
BRANCH  20  21
ATOM     21  C   UNL     1      -2.527 -11.354  15.154  0.00  0.00    -0.047 A 
ATOM     23  C   UNL     1      -2.534 -12.621  14.570  0.00  0.00    +0.003 A 
ATOM     24  C   UNL     1      -2.191 -10.235  14.392  0.00  0.00    +0.003 A 
ATOM     25  C   UNL     1      -2.205 -12.769  13.222  0.00  0.00    +0.000 A 
ATOM     26  C   UNL     1      -1.862 -10.384  13.045  0.00  0.00    +0.000 A 
ATOM     28  C   UNL     1      -1.869 -11.650  12.460  0.00  0.00    +0.000 A 
ENDBRANCH  20  21
ENDBRANCH  16  20
ENDBRANCH   9   6
BRANCH  10   4
ATOM      4  O   UNL     1     -10.498 -11.641  16.072  0.00  0.00    -0.388 OA
ATOM     35  H   UNL     1     -10.483 -12.351  15.407  0.00  0.00    +0.210 HD
ENDBRANCH  10   4
TORSDOF 6
ENDMDL
MODEL 7
REMARK VINA RESULT:      -6.7     25.420     28.124
REMARK  Name = 25314512
REMARK  6 active torsions:
REMARK  status: ('A' for Active; 'I' for Inactive)
REMARK    1  A    between atoms: O_4  and  C_10
REMARK    2  A    between atoms: N_6  and  C_9
REMARK    3  A    between atoms: N_7  and  C_11
REMARK    4  A    between atoms: N_8  and  C_27
REMARK    5  A    between atoms: C_16  and  C_20
REMARK    6  A    between atoms: C_20  and  C_21
REMARK                            x       y       z     vdW  Elec       q    Type
REMARK                         _______ _______ _______ _____ _____    ______ ____
ROOT
ATOM      2  O   UNL     1      -4.900 -10.181  18.151  0.00  0.00    -0.342 OA
ATOM      3  O   UNL     1      -4.639 -12.162  19.328  0.00  0.00    -0.347 OA
ATOM      9  C   UNL     1      -4.419 -12.199  16.920  0.00  0.00    +0.143 C 
ATOM     10  C   UNL     1      -5.929 -12.487  16.765  0.00  0.00    +0.159 C 
ATOM     11  C   UNL     1      -6.830 -11.362  17.320  0.00  0.00    +0.136 C 
ATOM     12  C   UNL     1      -4.150 -11.402  18.210  0.00  0.00    +0.270 C 
ATOM     13  C   UNL     1      -6.208 -10.624  18.524  0.00  0.00    +0.170 C 
ATOM     17  C   UNL     1      -5.872 -11.523  19.697  0.00  0.00    +0.196 C 
ENDROOT
BRANCH  11   7
ATOM      5  O   UNL     1      -7.840 -11.968  14.709  0.00  0.00    -0.252 OA
ATOM      7  N   UNL     1      -7.146 -10.413  16.274  0.00  0.00    -0.291 N 
ATOM      8  N   UNL     1      -7.848  -9.671  14.222  0.00  0.00    -0.269 N 
ATOM     22  C   UNL     1      -7.636 -10.797  15.023  0.00  0.00    +0.304 C 
ATOM     34  H   UNL     1      -6.928  -9.435  16.430  0.00  0.00    +0.151 HD
ATOM     36  H   UNL     1      -7.628  -8.769  14.635  0.00  0.00    +0.156 HD
BRANCH   8  27
ATOM      1  F   UNL     1      -9.758  -9.510   9.021  0.00  0.00    -0.205 F 
ATOM     27  C   UNL     1      -8.335  -9.630  12.895  0.00  0.00    +0.035 A 
ATOM     29  C   UNL     1      -9.704  -9.746  12.651  0.00  0.00    +0.026 A 
ATOM     30  C   UNL     1      -7.447  -9.474  11.830  0.00  0.00    +0.026 A 
ATOM     31  C   UNL     1     -10.184  -9.706  11.341  0.00  0.00    +0.040 A 
ATOM     32  C   UNL     1      -7.928  -9.434  10.521  0.00  0.00    +0.040 A 
ATOM     33  C   UNL     1      -9.296  -9.550  10.276  0.00  0.00    +0.124 A 
ENDBRANCH   8  27
ENDBRANCH  11   7
BRANCH   9   6
ATOM      6  N   UNL     1      -3.927 -11.447  15.763  0.00  0.00    -0.293 NA
ATOM     14  C   UNL     1      -4.408 -12.053  14.515  0.00  0.00    +0.085 C 
ATOM     15  C   UNL     1      -2.460 -11.370  15.785  0.00  0.00    +0.085 C 
ATOM     16  C   UNL     1      -2.423 -11.101  13.271  0.00  0.00    -0.004 C 
ATOM     18  C   UNL     1      -3.948 -11.248  13.297  0.00  0.00    +0.019 C 
ATOM     19  C   UNL     1      -1.934 -10.541  14.612  0.00  0.00    +0.019 C 
BRANCH  16  20
ATOM     20  C   UNL     1      -1.977 -10.213  12.112  0.00  0.00    +0.038 C 
BRANCH  20  21
ATOM     21  C   UNL     1      -2.921 -10.312  10.944  0.00  0.00    -0.047 A 
ATOM     23  C   UNL     1      -3.359  -9.154  10.301  0.00  0.00    +0.003 A 
ATOM     24  C   UNL     1      -3.359 -11.562  10.506  0.00  0.00    +0.003 A 
ATOM     25  C   UNL     1      -4.234  -9.245   9.219  0.00  0.00    +0.000 A 
ATOM     26  C   UNL     1      -4.235 -11.652   9.424  0.00  0.00    +0.000 A 
ATOM     28  C   UNL     1      -4.672 -10.495   8.781  0.00  0.00    +0.000 A 
ENDBRANCH  20  21
ENDBRANCH  16  20
ENDBRANCH   9   6
BRANCH  10   4
ATOM      4  O   UNL     1      -6.217 -13.699  17.472  0.00  0.00    -0.388 OA
ATOM     35  H   UNL     1      -6.964 -14.132  17.022  0.00  0.00    +0.210 HD
ENDBRANCH  10   4
TORSDOF 6
ENDMDL
MODEL 8
REMARK VINA RESULT:      -6.6     16.480     19.409
REMARK  Name = 25314512
REMARK  6 active torsions:
REMARK  status: ('A' for Active; 'I' for Inactive)
REMARK    1  A    between atoms: O_4  and  C_10
REMARK    2  A    between atoms: N_6  and  C_9
REMARK    3  A    between atoms: N_7  and  C_11
REMARK    4  A    between atoms: N_8  and  C_27
REMARK    5  A    between atoms: C_16  and  C_20
REMARK    6  A    between atoms: C_20  and  C_21
REMARK                            x       y       z     vdW  Elec       q    Type
REMARK                         _______ _______ _______ _____ _____    ______ ____
ROOT
ATOM      2  O   UNL     1      11.779  11.441  25.329  0.00  0.00    -0.342 OA
ATOM      3  O   UNL     1      10.190  13.088  24.950  0.00  0.00    -0.347 OA
ATOM      9  C   UNL     1      11.133  11.919  23.055  0.00  0.00    +0.143 C 
ATOM     10  C   UNL     1      12.258  12.973  22.937  0.00  0.00    +0.159 C 
ATOM     11  C   UNL     1      13.171  13.040  24.181  0.00  0.00    +0.136 C 
ATOM     12  C   UNL     1      10.655  11.800  24.514  0.00  0.00    +0.270 C 
ATOM     13  C   UNL     1      12.433  12.703  25.494  0.00  0.00    +0.170 C 
ATOM     17  C   UNL     1      11.243  13.596  25.785  0.00  0.00    +0.196 C 
ENDROOT
BRANCH  11   7
ATOM      5  O   UNL     1      15.460  13.492  22.521  0.00  0.00    -0.252 OA
ATOM      7  N   UNL     1      14.306  12.158  24.016  0.00  0.00    -0.291 N 
ATOM      8  N   UNL     1      16.327  11.426  23.222  0.00  0.00    -0.269 N 
ATOM     22  C   UNL     1      15.385  12.458  23.181  0.00  0.00    +0.304 C 
ATOM     34  H   UNL     1      14.279  11.250  24.466  0.00  0.00    +0.151 HD
ATOM     36  H   UNL     1      16.112  10.635  23.823  0.00  0.00    +0.156 HD
BRANCH   8  27
ATOM      1  F   UNL     1      21.139  11.102  20.489  0.00  0.00    -0.205 F 
ATOM     27  C   UNL     1      17.555  11.344  22.525  0.00  0.00    +0.035 A 
ATOM     29  C   UNL     1      17.829  10.234  21.725  0.00  0.00    +0.026 A 
ATOM     30  C   UNL     1      18.492  12.371  22.637  0.00  0.00    +0.026 A 
ATOM     31  C   UNL     1      19.040  10.153  21.038  0.00  0.00    +0.040 A 
ATOM     32  C   UNL     1      19.703  12.289  21.950  0.00  0.00    +0.040 A 
ATOM     33  C   UNL     1      19.978  11.180  21.150  0.00  0.00    +0.124 A 
ENDBRANCH   8  27
ENDBRANCH  11   7
BRANCH   9   6
ATOM      6  N   UNL     1      11.611  10.617  22.583  0.00  0.00    -0.293 NA
ATOM     14  C   UNL     1      12.080  10.715  21.194  0.00  0.00    +0.085 C 
ATOM     15  C   UNL     1      10.557   9.603  22.717  0.00  0.00    +0.085 C 
ATOM     16  C   UNL     1      11.592   8.258  20.842  0.00  0.00    -0.004 C 
ATOM     18  C   UNL     1      12.633   9.375  20.703  0.00  0.00    +0.019 C 
ATOM     19  C   UNL     1      11.058   8.226  22.278  0.00  0.00    +0.019 C 
BRANCH  16  20
ATOM     20  C   UNL     1      12.181   6.908  20.445  0.00  0.00    +0.038 C 
BRANCH  20  21
ATOM     21  C   UNL     1      13.682   6.963  20.353  0.00  0.00    -0.047 A 
ATOM     23  C   UNL     1      14.304   6.956  19.105  0.00  0.00    +0.003 A 
ATOM     24  C   UNL     1      14.450   7.020  21.516  0.00  0.00    +0.003 A 
ATOM     25  C   UNL     1      15.696   7.007  19.019  0.00  0.00    +0.000 A 
ATOM     26  C   UNL     1      15.841   7.070  21.430  0.00  0.00    +0.000 A 
ATOM     28  C   UNL     1      16.464   7.064  20.182  0.00  0.00    +0.000 A 
ENDBRANCH  20  21
ENDBRANCH  16  20
ENDBRANCH   9   6
BRANCH  10   4
ATOM      4  O   UNL     1      11.639  14.252  22.750  0.00  0.00    -0.388 OA
ATOM     35  H   UNL     1      10.785  14.237  23.216  0.00  0.00    +0.210 HD
ENDBRANCH  10   4
TORSDOF 6
ENDMDL
MODEL 9
REMARK VINA RESULT:      -6.6     16.052     19.090
REMARK  Name = 25314512
REMARK  6 active torsions:
REMARK  status: ('A' for Active; 'I' for Inactive)
REMARK    1  A    between atoms: O_4  and  C_10
REMARK    2  A    between atoms: N_6  and  C_9
REMARK    3  A    between atoms: N_7  and  C_11
REMARK    4  A    between atoms: N_8  and  C_27
REMARK    5  A    between atoms: C_16  and  C_20
REMARK    6  A    between atoms: C_20  and  C_21
REMARK                            x       y       z     vdW  Elec       q    Type
REMARK                         _______ _______ _______ _____ _____    ______ ____
ROOT
ATOM      2  O   UNL     1      16.321  12.770  25.265  0.00  0.00    -0.342 OA
ATOM      3  O   UNL     1      16.645  15.009  24.754  0.00  0.00    -0.347 OA
ATOM      9  C   UNL     1      15.342  13.645  23.241  0.00  0.00    +0.143 C 
ATOM     10  C   UNL     1      16.614  13.276  22.444  0.00  0.00    +0.159 C 
ATOM     11  C   UNL     1      17.661  12.506  23.278  0.00  0.00    +0.136 C 
ATOM     12  C   UNL     1      15.692  13.934  24.713  0.00  0.00    +0.270 C 
ATOM     13  C   UNL     1      17.657  12.899  24.770  0.00  0.00    +0.170 C 
ATOM     17  C   UNL     1      17.905  14.373  25.025  0.00  0.00    +0.196 C 
ENDROOT
BRANCH  11   7
ATOM      5  O   UNL     1      17.755  10.980  20.856  0.00  0.00    -0.252 OA
ATOM      7  N   UNL     1      17.454  11.080  23.147  0.00  0.00    -0.291 N 
ATOM      8  N   UNL     1      17.276   9.048  22.102  0.00  0.00    -0.269 N 
ATOM     22  C   UNL     1      17.518  10.413  21.920  0.00  0.00    +0.304 C 
ATOM     34  H   UNL     1      17.174  10.557  23.969  0.00  0.00    +0.151 HD
ATOM     36  H   UNL     1      17.095   8.738  23.053  0.00  0.00    +0.156 HD
BRANCH   8  27
ATOM      1  F   UNL     1      17.179   5.071  18.241  0.00  0.00    -0.205 F 
ATOM     27  C   UNL     1      17.252   8.034  21.116  0.00  0.00    +0.035 A 
ATOM     29  C   UNL     1      16.124   7.871  20.311  0.00  0.00    +0.026 A 
ATOM     30  C   UNL     1      18.354   7.195  20.950  0.00  0.00    +0.026 A 
ATOM     31  C   UNL     1      16.099   6.869  19.341  0.00  0.00    +0.040 A 
ATOM     32  C   UNL     1      18.329   6.194  19.979  0.00  0.00    +0.040 A 
ATOM     33  C   UNL     1      17.202   6.031  19.174  0.00  0.00    +0.124 A 
ENDBRANCH   8  27
ENDBRANCH  11   7
BRANCH   9   6
ATOM      6  N   UNL     1      14.369  12.553  23.170  0.00  0.00    -0.293 NA
ATOM     14  C   UNL     1      14.336  11.981  21.817  0.00  0.00    +0.085 C 
ATOM     15  C   UNL     1      13.038  13.023  23.579  0.00  0.00    +0.085 C 
ATOM     16  C   UNL     1      11.954  11.214  22.182  0.00  0.00    -0.004 C 
ATOM     18  C   UNL     1      13.363  10.804  21.738  0.00  0.00    +0.019 C 
ATOM     19  C   UNL     1      12.020  11.881  23.561  0.00  0.00    +0.019 C 
BRANCH  16  20
ATOM     20  C   UNL     1      11.012  10.014  22.197  0.00  0.00    +0.038 C 
BRANCH  20  21
ATOM     21  C   UNL     1      11.499   8.915  21.292  0.00  0.00    -0.047 A 
ATOM     23  C   UNL     1      11.516   9.107  19.911  0.00  0.00    +0.003 A 
ATOM     24  C   UNL     1      11.932   7.706  21.835  0.00  0.00    +0.003 A 
ATOM     25  C   UNL     1      11.968   8.087  19.071  0.00  0.00    +0.000 A 
ATOM     26  C   UNL     1      12.382   6.687  20.996  0.00  0.00    +0.000 A 
ATOM     28  C   UNL     1      12.401   6.878  19.614  0.00  0.00    +0.000 A 
ENDBRANCH  20  21
ENDBRANCH  16  20
ENDBRANCH   9   6
BRANCH  10   4
ATOM      4  O   UNL     1      17.204  14.496  21.976  0.00  0.00    -0.388 OA
ATOM     35  H   UNL     1      16.573  15.215  22.155  0.00  0.00    +0.210 HD
ENDBRANCH  10   4
TORSDOF 6
ENDMDL
MODEL 10
REMARK VINA RESULT:      -6.5     29.919     32.865
REMARK  Name = 25314512
REMARK  6 active torsions:
REMARK  status: ('A' for Active; 'I' for Inactive)
REMARK    1  A    between atoms: O_4  and  C_10
REMARK    2  A    between atoms: N_6  and  C_9
REMARK    3  A    between atoms: N_7  and  C_11
REMARK    4  A    between atoms: N_8  and  C_27
REMARK    5  A    between atoms: C_16  and  C_20
REMARK    6  A    between atoms: C_20  and  C_21
REMARK                            x       y       z     vdW  Elec       q    Type
REMARK                         _______ _______ _______ _____ _____    ______ ____
ROOT
ATOM      2  O   UNL     1       8.348  -8.450  35.386  0.00  0.00    -0.342 OA
ATOM      3  O   UNL     1       6.477  -7.277  36.094  0.00  0.00    -0.347 OA
ATOM      9  C   UNL     1       6.769  -7.688  33.729  0.00  0.00    +0.143 C 
ATOM     10  C   UNL     1       7.545  -6.361  33.572  0.00  0.00    +0.159 C 
ATOM     11  C   UNL     1       8.853  -6.312  34.392  0.00  0.00    +0.136 C 
ATOM     12  C   UNL     1       6.947  -8.253  35.150  0.00  0.00    +0.270 C 
ATOM     13  C   UNL     1       8.779  -7.123  35.702  0.00  0.00    +0.170 C 
ATOM     17  C   UNL     1       7.668  -6.688  36.639  0.00  0.00    +0.196 C 
ENDROOT
BRANCH  11   7
ATOM      5  O   UNL     1      10.903  -4.703  33.204  0.00  0.00    -0.252 OA
ATOM      7  N   UNL     1       9.963  -6.780  33.589  0.00  0.00    -0.291 N 
ATOM      8  N   UNL     1      11.868  -6.653  32.322  0.00  0.00    -0.269 N 
ATOM     22  C   UNL     1      10.922  -5.921  33.046  0.00  0.00    +0.304 C 
ATOM     34  H   UNL     1      10.001  -7.764  33.348  0.00  0.00    +0.151 HD
ATOM     36  H   UNL     1      11.739  -7.661  32.288  0.00  0.00    +0.156 HD
BRANCH   8  27
ATOM      1  F   UNL     1      16.284  -4.727  29.579  0.00  0.00    -0.205 F 
ATOM     27  C   UNL     1      12.994  -6.161  31.622  0.00  0.00    +0.035 A 
ATOM     29  C   UNL     1      13.361  -6.731  30.402  0.00  0.00    +0.026 A 
ATOM     30  C   UNL     1      13.740  -5.107  32.151  0.00  0.00    +0.026 A 
ATOM     31  C   UNL     1      14.473  -6.247  29.713  0.00  0.00    +0.040 A 
ATOM     32  C   UNL     1      14.851  -4.623  31.461  0.00  0.00    +0.040 A 
ATOM     33  C   UNL     1      15.218  -5.192  30.242  0.00  0.00    +0.124 A 
ENDBRANCH   8  27
ENDBRANCH  11   7
BRANCH   9   6
ATOM      6  N   UNL     1       7.239  -8.666  32.745  0.00  0.00    -0.293 NA
ATOM     14  C   UNL     1       6.633  -8.406  31.432  0.00  0.00    +0.085 C 
ATOM     15  C   UNL     1       6.952 -10.033  33.201  0.00  0.00    +0.085 C 
ATOM     16  C   UNL     1       6.916 -10.840  30.804  0.00  0.00    -0.004 C 
ATOM     18  C   UNL     1       7.155  -9.387  30.380  0.00  0.00    +0.019 C 
ATOM     19  C   UNL     1       7.486 -11.068  32.209  0.00  0.00    +0.019 C 
BRANCH  16  20
ATOM     20  C   UNL     1       7.528 -11.812  29.800  0.00  0.00    +0.038 C 
BRANCH  20  21
ATOM     21  C   UNL     1       6.587 -12.943  29.480  0.00  0.00    -0.047 A 
ATOM     23  C   UNL     1       5.335 -13.002  30.090  0.00  0.00    +0.003 A 
ATOM     24  C   UNL     1       6.970 -13.932  28.573  0.00  0.00    +0.003 A 
ATOM     25  C   UNL     1       4.463 -14.050  29.794  0.00  0.00    +0.000 A 
ATOM     26  C   UNL     1       6.099 -14.980  28.278  0.00  0.00    +0.000 A 
ATOM     28  C   UNL     1       4.845 -15.039  28.887  0.00  0.00    +0.000 A 
ENDBRANCH  20  21
ENDBRANCH  16  20
ENDBRANCH   9   6
BRANCH  10   4
ATOM      4  O   UNL     1       6.687  -5.299  34.010  0.00  0.00    -0.388 OA
ATOM     35  H   UNL     1       6.894  -5.120  34.944  0.00  0.00    +0.210 HD
ENDBRANCH  10   4
TORSDOF 6
ENDMDL
