MODEL 1
REMARK VINA RESULT:      -6.6      0.000      0.000
REMARK  Name = 56774196
REMARK  9 active torsions:
REMARK  status: ('A' for Active; 'I' for Inactive)
REMARK    1  A    between atoms: O_3  and  C_26
REMARK    2  A    between atoms: O_3  and  C_27
REMARK    3  A    between atoms: N_4  and  C_8
REMARK    4  A    between atoms: N_4  and  C_13
REMARK    5  A    between atoms: C_6  and  C_11
REMARK    6  A    between atoms: C_6  and  C_12
REMARK    7  A    between atoms: C_7  and  C_10
REMARK    8  A    between atoms: C_10  and  C_14
REMARK    9  A    between atoms: C_20  and  C_21
REMARK                            x       y       z     vdW  Elec       q    Type
REMARK                         _______ _______ _______ _____ _____    ______ ____
ROOT
ATOM      6  C   UNL     1     -11.987  -7.650  14.868  0.00  0.00    -0.016 C 
ATOM      7  C   UNL     1     -10.942  -7.393  15.974  0.00  0.00    +0.004 C 
ATOM      8  C   UNL     1     -11.986  -6.127  14.621  0.00  0.00    +0.060 C 
ATOM      9  C   UNL     1     -11.521  -5.968  16.083  0.00  0.00    +0.023 C 
ATOM     11  C   UNL     1     -13.268  -8.279  15.370  0.00  0.00    +0.013 C 
ATOM     12  C   UNL     1     -11.488  -8.426  13.661  0.00  0.00    +0.013 C 
ENDROOT
BRANCH   8   4
ATOM      4  N   UNL     1     -13.351  -5.609  14.496  0.00  0.00    -0.310 NA
ATOM     28  H   UNL     1     -13.787  -5.353  15.382  0.00  0.00    +0.122 HD
BRANCH   4  13
ATOM      1  O   UNL     1     -13.675  -3.381  10.952  0.00  0.00    -0.380 OA
ATOM     13  C   UNL     1     -13.348  -4.452  13.605  0.00  0.00    +0.058 C 
ATOM     15  C   UNL     1     -14.725  -4.242  12.967  0.00  0.00    +0.047 C 
ATOM     16  C   UNL     1     -12.287  -4.622  12.513  0.00  0.00    +0.047 C 
ATOM     17  C   UNL     1     -14.669  -3.116  11.942  0.00  0.00    +0.161 C 
ATOM     18  C   UNL     1     -12.366  -3.475  11.512  0.00  0.00    +0.161 C 
ENDBRANCH   4  13
ENDBRANCH   8   4
BRANCH   7  10
ATOM     10  C   UNL     1     -11.059  -8.218  17.236  0.00  0.00    +0.063 C 
BRANCH  10  14
ATOM      2  O   UNL     1      -8.464 -10.468  18.344  0.00  0.00    -0.354 OA
ATOM      5  N   UNL     1      -9.766  -9.982  18.373  0.00  0.00    -0.083 NA
ATOM     14  C   UNL     1      -9.785  -8.990  17.478  0.00  0.00    +0.084 A 
ATOM     19  C   UNL     1      -8.537  -8.807  16.858  0.00  0.00    +0.076 A 
ATOM     20  C   UNL     1      -7.742  -9.761  17.438  0.00  0.00    +0.167 A 
BRANCH  20  21
ATOM     21  C   UNL     1      -6.370 -10.152  17.294  0.00  0.00    +0.020 A 
ATOM     22  C   UNL     1      -5.716 -10.801  18.342  0.00  0.00    +0.015 A 
ATOM     23  C   UNL     1      -5.689  -9.882  16.107  0.00  0.00    +0.015 A 
ATOM     24  C   UNL     1      -4.381 -11.180  18.203  0.00  0.00    +0.046 A 
ATOM     25  C   UNL     1      -4.354 -10.262  15.967  0.00  0.00    +0.046 A 
ATOM     26  C   UNL     1      -3.700 -10.910  17.015  0.00  0.00    +0.120 A 
BRANCH  26   3
ATOM      3  O   UNL     1      -2.398 -11.284  16.877  0.00  0.00    -0.495 OA
ATOM     27  C   UNL     1      -1.625 -10.593  15.897  0.00  0.00    +0.277 C 
ENDBRANCH  26   3
ENDBRANCH  20  21
ENDBRANCH  10  14
ENDBRANCH   7  10
TORSDOF 6
ENDMDL
MODEL 2
REMARK VINA RESULT:      -6.4     27.990     33.768
REMARK  Name = 56774196
REMARK  9 active torsions:
REMARK  status: ('A' for Active; 'I' for Inactive)
REMARK    1  A    between atoms: O_3  and  C_26
REMARK    2  A    between atoms: O_3  and  C_27
REMARK    3  A    between atoms: N_4  and  C_8
REMARK    4  A    between atoms: N_4  and  C_13
REMARK    5  A    between atoms: C_6  and  C_11
REMARK    6  A    between atoms: C_6  and  C_12
REMARK    7  A    between atoms: C_7  and  C_10
REMARK    8  A    between atoms: C_10  and  C_14
REMARK    9  A    between atoms: C_20  and  C_21
REMARK                            x       y       z     vdW  Elec       q    Type
REMARK                         _______ _______ _______ _____ _____    ______ ____
ROOT
ATOM      6  C   UNL     1      21.933   4.719  21.528  0.00  0.00    -0.016 C 
ATOM      7  C   UNL     1      20.889   5.633  22.202  0.00  0.00    +0.004 C 
ATOM      8  C   UNL     1      22.540   4.508  22.931  0.00  0.00    +0.060 C 
ATOM      9  C   UNL     1      21.927   5.871  23.316  0.00  0.00    +0.023 C 
ATOM     11  C   UNL     1      22.785   5.423  20.493  0.00  0.00    +0.013 C 
ATOM     12  C   UNL     1      21.393   3.428  20.938  0.00  0.00    +0.013 C 
ENDROOT
BRANCH   8   4
ATOM      4  N   UNL     1      23.999   4.634  22.902  0.00  0.00    -0.310 NA
ATOM     28  H   UNL     1      24.376   5.323  23.553  0.00  0.00    +0.122 HD
BRANCH   4  13
ATOM      1  O   UNL     1      24.642   0.489  22.710  0.00  0.00    -0.380 OA
ATOM     13  C   UNL     1      24.601   3.330  23.174  0.00  0.00    +0.058 C 
ATOM     15  C   UNL     1      25.184   2.715  21.899  0.00  0.00    +0.047 C 
ATOM     16  C   UNL     1      23.564   2.382  23.785  0.00  0.00    +0.047 C 
ATOM     17  C   UNL     1      25.687   1.302  22.173  0.00  0.00    +0.161 C 
ATOM     18  C   UNL     1      24.155   0.988  23.955  0.00  0.00    +0.161 C 
ENDBRANCH   4  13
ENDBRANCH   8   4
BRANCH   7  10
ATOM     10  C   UNL     1      20.475   6.878  21.450  0.00  0.00    +0.063 C 
BRANCH  10  14
ATOM      2  O   UNL     1      17.598   5.898  19.506  0.00  0.00    -0.354 OA
ATOM      5  N   UNL     1      18.947   5.821  19.830  0.00  0.00    -0.083 NA
ATOM     14  C   UNL     1      19.111   6.690  20.832  0.00  0.00    +0.084 A 
ATOM     19  C   UNL     1      17.913   7.336  21.180  0.00  0.00    +0.076 A 
ATOM     20  C   UNL     1      16.992   6.802  20.317  0.00  0.00    +0.167 A 
BRANCH  20  21
ATOM     21  C   UNL     1      15.587   6.990  20.100  0.00  0.00    +0.020 A 
ATOM     22  C   UNL     1      15.106   7.237  18.814  0.00  0.00    +0.015 A 
ATOM     23  C   UNL     1      14.701   6.926  21.175  0.00  0.00    +0.015 A 
ATOM     24  C   UNL     1      13.740   7.421  18.603  0.00  0.00    +0.046 A 
ATOM     25  C   UNL     1      13.334   7.108  20.965  0.00  0.00    +0.046 A 
ATOM     26  C   UNL     1      12.854   7.356  19.679  0.00  0.00    +0.120 A 
BRANCH  26   3
ATOM      3  O   UNL     1      11.520   7.531  19.473  0.00  0.00    -0.495 OA
ATOM     27  C   UNL     1      10.835   8.411  20.364  0.00  0.00    +0.277 C 
ENDBRANCH  26   3
ENDBRANCH  20  21
ENDBRANCH  10  14
ENDBRANCH   7  10
TORSDOF 6
ENDMDL
MODEL 3
REMARK VINA RESULT:      -6.4      6.729     10.445
REMARK  Name = 56774196
REMARK  9 active torsions:
REMARK  status: ('A' for Active; 'I' for Inactive)
REMARK    1  A    between atoms: O_3  and  C_26
REMARK    2  A    between atoms: O_3  and  C_27
REMARK    3  A    between atoms: N_4  and  C_8
REMARK    4  A    between atoms: N_4  and  C_13
REMARK    5  A    between atoms: C_6  and  C_11
REMARK    6  A    between atoms: C_6  and  C_12
REMARK    7  A    between atoms: C_7  and  C_10
REMARK    8  A    between atoms: C_10  and  C_14
REMARK    9  A    between atoms: C_20  and  C_21
REMARK                            x       y       z     vdW  Elec       q    Type
REMARK                         _______ _______ _______ _____ _____    ______ ____
ROOT
ATOM      6  C   UNL     1      -4.091 -11.505  15.129  0.00  0.00    -0.016 C 
ATOM      7  C   UNL     1      -2.913 -10.642  14.629  0.00  0.00    +0.004 C 
ATOM      8  C   UNL     1      -3.723 -11.042  16.555  0.00  0.00    +0.060 C 
ATOM      9  C   UNL     1      -2.290 -10.816  16.029  0.00  0.00    +0.023 C 
ATOM     11  C   UNL     1      -3.949 -12.977  14.811  0.00  0.00    +0.013 C 
ATOM     12  C   UNL     1      -5.474 -11.033  14.713  0.00  0.00    +0.013 C 
ENDROOT
BRANCH   8   4
ATOM      4  N   UNL     1      -3.715 -12.168  17.492  0.00  0.00    -0.310 NA
ATOM     28  H   UNL     1      -2.837 -12.289  17.997  0.00  0.00    +0.122 HD
BRANCH   4  13
ATOM      1  O   UNL     1      -7.528 -11.229  18.978  0.00  0.00    -0.380 OA
ATOM     13  C   UNL     1      -4.807 -12.007  18.450  0.00  0.00    +0.058 C 
ATOM     15  C   UNL     1      -6.001 -12.892  18.079  0.00  0.00    +0.047 C 
ATOM     16  C   UNL     1      -5.244 -10.540  18.517  0.00  0.00    +0.047 C 
ATOM     17  C   UNL     1      -7.176 -12.613  19.008  0.00  0.00    +0.161 C 
ATOM     18  C   UNL     1      -6.462 -10.391  19.421  0.00  0.00    +0.161 C 
ENDBRANCH   4  13
ENDBRANCH   8   4
BRANCH   7  10
ATOM     10  C   UNL     1      -2.082 -11.201  13.497  0.00  0.00    +0.063 C 
BRANCH  10  14
ATOM      2  O   UNL     1      -2.636  -9.513  10.356  0.00  0.00    -0.354 OA
ATOM      5  N   UNL     1      -1.904  -9.748  11.513  0.00  0.00    -0.083 NA
ATOM     14  C   UNL     1      -2.589 -10.688  12.171  0.00  0.00    +0.084 A 
ATOM     19  C   UNL     1      -3.750 -11.081  11.483  0.00  0.00    +0.076 A 
ATOM     20  C   UNL     1      -3.733 -10.313  10.349  0.00  0.00    +0.167 A 
BRANCH  20  21
ATOM     21  C   UNL     1      -4.591 -10.182   9.207  0.00  0.00    +0.020 A 
ATOM     22  C   UNL     1      -5.580  -9.199   9.186  0.00  0.00    +0.015 A 
ATOM     23  C   UNL     1      -4.438 -11.041   8.118  0.00  0.00    +0.015 A 
ATOM     24  C   UNL     1      -6.415  -9.072   8.077  0.00  0.00    +0.046 A 
ATOM     25  C   UNL     1      -5.273 -10.914   7.008  0.00  0.00    +0.046 A 
ATOM     26  C   UNL     1      -6.261  -9.930   6.988  0.00  0.00    +0.120 A 
BRANCH  26   3
ATOM      3  O   UNL     1      -7.075  -9.806   5.903  0.00  0.00    -0.495 OA
ATOM     27  C   UNL     1      -7.121  -8.528   5.270  0.00  0.00    +0.277 C 
ENDBRANCH  26   3
ENDBRANCH  20  21
ENDBRANCH  10  14
ENDBRANCH   7  10
TORSDOF 6
ENDMDL
MODEL 4
REMARK VINA RESULT:      -6.3      6.774     11.153
REMARK  Name = 56774196
REMARK  9 active torsions:
REMARK  status: ('A' for Active; 'I' for Inactive)
REMARK    1  A    between atoms: O_3  and  C_26
REMARK    2  A    between atoms: O_3  and  C_27
REMARK    3  A    between atoms: N_4  and  C_8
REMARK    4  A    between atoms: N_4  and  C_13
REMARK    5  A    between atoms: C_6  and  C_11
REMARK    6  A    between atoms: C_6  and  C_12
REMARK    7  A    between atoms: C_7  and  C_10
REMARK    8  A    between atoms: C_10  and  C_14
REMARK    9  A    between atoms: C_20  and  C_21
REMARK                            x       y       z     vdW  Elec       q    Type
REMARK                         _______ _______ _______ _____ _____    ______ ____
ROOT
ATOM      6  C   UNL     1      -3.169 -11.453  14.196  0.00  0.00    -0.016 C 
ATOM      7  C   UNL     1      -3.660 -11.238  12.749  0.00  0.00    +0.004 C 
ATOM      8  C   UNL     1      -4.559 -10.966  14.658  0.00  0.00    +0.060 C 
ATOM      9  C   UNL     1      -4.651 -10.203  13.320  0.00  0.00    +0.023 C 
ATOM     11  C   UNL     1      -1.970 -10.608  14.566  0.00  0.00    +0.013 C 
ATOM     12  C   UNL     1      -2.907 -12.896  14.592  0.00  0.00    +0.013 C 
ENDROOT
BRANCH   8   4
ATOM      4  N   UNL     1      -4.444  -9.998  15.752  0.00  0.00    -0.310 NA
ATOM     28  H   UNL     1      -4.828  -9.077  15.541  0.00  0.00    +0.122 HD
BRANCH   4  13
ATOM      1  O   UNL     1      -5.907 -12.825  18.490  0.00  0.00    -0.380 OA
ATOM     13  C   UNL     1      -5.100 -10.536  16.941  0.00  0.00    +0.058 C 
ATOM     15  C   UNL     1      -4.115 -11.335  17.801  0.00  0.00    +0.047 C 
ATOM     16  C   UNL     1      -6.284 -11.422  16.543  0.00  0.00    +0.047 C 
ATOM     17  C   UNL     1      -4.843 -11.998  18.964  0.00  0.00    +0.161 C 
ATOM     18  C   UNL     1      -6.893 -12.081  17.775  0.00  0.00    +0.161 C 
ENDBRANCH   4  13
ENDBRANCH   8   4
BRANCH   7  10
ATOM     10  C   UNL     1      -2.665 -10.677  11.759  0.00  0.00    +0.063 C 
BRANCH  10  14
ATOM      2  O   UNL     1      -4.120  -8.939   8.951  0.00  0.00    -0.354 OA
ATOM      5  N   UNL     1      -3.417  -8.968  10.150  0.00  0.00    -0.083 NA
ATOM     14  C   UNL     1      -3.365 -10.259  10.489  0.00  0.00    +0.084 A 
ATOM     19  C   UNL     1      -4.010 -11.084   9.552  0.00  0.00    +0.076 A 
ATOM     20  C   UNL     1      -4.467 -10.205   8.605  0.00  0.00    +0.167 A 
BRANCH  20  21
ATOM     21  C   UNL     1      -5.202 -10.336   7.380  0.00  0.00    +0.020 A 
ATOM     22  C   UNL     1      -6.290  -9.501   7.127  0.00  0.00    +0.015 A 
ATOM     23  C   UNL     1      -4.829 -11.299   6.443  0.00  0.00    +0.015 A 
ATOM     24  C   UNL     1      -7.005  -9.628   5.936  0.00  0.00    +0.046 A 
ATOM     25  C   UNL     1      -5.543 -11.427   5.251  0.00  0.00    +0.046 A 
ATOM     26  C   UNL     1      -6.631 -10.592   4.999  0.00  0.00    +0.120 A 
BRANCH  26   3
ATOM      3  O   UNL     1      -7.327 -10.715   3.835  0.00  0.00    -0.495 OA
ATOM     27  C   UNL     1      -7.923  -9.531   3.306  0.00  0.00    +0.277 C 
ENDBRANCH  26   3
ENDBRANCH  20  21
ENDBRANCH  10  14
ENDBRANCH   7  10
TORSDOF 6
ENDMDL
MODEL 5
REMARK VINA RESULT:      -6.3      2.475      9.446
REMARK  Name = 56774196
REMARK  9 active torsions:
REMARK  status: ('A' for Active; 'I' for Inactive)
REMARK    1  A    between atoms: O_3  and  C_26
REMARK    2  A    between atoms: O_3  and  C_27
REMARK    3  A    between atoms: N_4  and  C_8
REMARK    4  A    between atoms: N_4  and  C_13
REMARK    5  A    between atoms: C_6  and  C_11
REMARK    6  A    between atoms: C_6  and  C_12
REMARK    7  A    between atoms: C_7  and  C_10
REMARK    8  A    between atoms: C_10  and  C_14
REMARK    9  A    between atoms: C_20  and  C_21
REMARK                            x       y       z     vdW  Elec       q    Type
REMARK                         _______ _______ _______ _____ _____    ______ ____
ROOT
ATOM      6  C   UNL     1      -4.980 -11.885  18.319  0.00  0.00    -0.016 C 
ATOM      7  C   UNL     1      -5.973 -10.766  18.699  0.00  0.00    +0.004 C 
ATOM      8  C   UNL     1      -4.512 -10.971  17.167  0.00  0.00    +0.060 C 
ATOM      9  C   UNL     1      -5.905 -10.310  17.228  0.00  0.00    +0.023 C 
ATOM     11  C   UNL     1      -5.645 -13.194  17.952  0.00  0.00    +0.013 C 
ATOM     12  C   UNL     1      -3.873 -12.150  19.326  0.00  0.00    +0.013 C 
ENDROOT
BRANCH   8   4
ATOM      4  N   UNL     1      -4.393 -11.719  15.913  0.00  0.00    -0.310 NA
ATOM     28  H   UNL     1      -5.125 -11.518  15.232  0.00  0.00    +0.122 HD
BRANCH   4  13
ATOM      1  O   UNL     1      -1.146  -9.539  14.386  0.00  0.00    -0.380 OA
ATOM     13  C   UNL     1      -3.088 -11.452  15.314  0.00  0.00    +0.058 C 
ATOM     15  C   UNL     1      -2.193 -10.658  16.272  0.00  0.00    +0.047 C 
ATOM     16  C   UNL     1      -3.252 -10.686  13.997  0.00  0.00    +0.047 C 
ATOM     17  C   UNL     1      -0.889 -10.274  15.584  0.00  0.00    +0.161 C 
ATOM     18  C   UNL     1      -1.889 -10.300  13.435  0.00  0.00    +0.161 C 
ENDBRANCH   4  13
ENDBRANCH   8   4
BRANCH   7  10
ATOM     10  C   UNL     1      -7.347 -11.193  19.163  0.00  0.00    +0.063 C 
BRANCH  10  14
ATOM      2  O   UNL     1      -9.932 -10.669  16.700  0.00  0.00    -0.354 OA
ATOM      5  N   UNL     1      -9.043 -11.479  17.397  0.00  0.00    -0.083 NA
ATOM     14  C   UNL     1      -8.406 -10.653  18.232  0.00  0.00    +0.084 A 
ATOM     19  C   UNL     1      -8.848  -9.325  18.109  0.00  0.00    +0.076 A 
ATOM     20  C   UNL     1      -9.807  -9.389  17.133  0.00  0.00    +0.167 A 
BRANCH  20  21
ATOM     21  C   UNL     1     -10.668  -8.431  16.503  0.00  0.00    +0.020 A 
ATOM     22  C   UNL     1     -10.546  -7.076  16.808  0.00  0.00    +0.015 A 
ATOM     23  C   UNL     1     -11.630  -8.856  15.585  0.00  0.00    +0.015 A 
ATOM     24  C   UNL     1     -11.384  -6.144  16.195  0.00  0.00    +0.046 A 
ATOM     25  C   UNL     1     -12.468  -7.924  14.972  0.00  0.00    +0.046 A 
ATOM     26  C   UNL     1     -12.345  -6.569  15.278  0.00  0.00    +0.120 A 
BRANCH  26   3
ATOM      3  O   UNL     1     -13.160  -5.660  14.677  0.00  0.00    -0.495 OA
ATOM     27  C   UNL     1     -14.309  -6.166  13.998  0.00  0.00    +0.277 C 
ENDBRANCH  26   3
ENDBRANCH  20  21
ENDBRANCH  10  14
ENDBRANCH   7  10
TORSDOF 6
ENDMDL
MODEL 6
REMARK VINA RESULT:      -6.3     23.381     25.694
REMARK  Name = 56774196
REMARK  9 active torsions:
REMARK  status: ('A' for Active; 'I' for Inactive)
REMARK    1  A    between atoms: O_3  and  C_26
REMARK    2  A    between atoms: O_3  and  C_27
REMARK    3  A    between atoms: N_4  and  C_8
REMARK    4  A    between atoms: N_4  and  C_13
REMARK    5  A    between atoms: C_6  and  C_11
REMARK    6  A    between atoms: C_6  and  C_12
REMARK    7  A    between atoms: C_7  and  C_10
REMARK    8  A    between atoms: C_10  and  C_14
REMARK    9  A    between atoms: C_20  and  C_21
REMARK                            x       y       z     vdW  Elec       q    Type
REMARK                         _______ _______ _______ _____ _____    ______ ____
ROOT
ATOM      6  C   UNL     1       4.740  11.344   2.811  0.00  0.00    -0.016 C 
ATOM      7  C   UNL     1       5.405   9.959   2.669  0.00  0.00    +0.004 C 
ATOM      8  C   UNL     1       3.473  10.713   2.197  0.00  0.00    +0.060 C 
ATOM      9  C   UNL     1       4.405   9.680   1.529  0.00  0.00    +0.023 C 
ATOM     11  C   UNL     1       5.431  12.438   2.026  0.00  0.00    +0.013 C 
ATOM     12  C   UNL     1       4.509  11.819   4.236  0.00  0.00    +0.013 C 
ENDROOT
BRANCH   8   4
ATOM      4  N   UNL     1       2.899  11.576   1.161  0.00  0.00    -0.310 NA
ATOM     28  H   UNL     1       3.284  11.428   0.228  0.00  0.00    +0.122 HD
BRANCH   4  13
ATOM      1  O   UNL     1      -0.805   9.599   1.198  0.00  0.00    -0.380 OA
ATOM     13  C   UNL     1       1.451  11.387   1.124  0.00  0.00    +0.058 C 
ATOM     15  C   UNL     1       0.943  10.758   2.426  0.00  0.00    +0.047 C 
ATOM     16  C   UNL     1       1.058  10.509  -0.068  0.00  0.00    +0.047 C 
ATOM     17  C   UNL     1      -0.545  10.446   2.319  0.00  0.00    +0.161 C 
ATOM     18  C   UNL     1      -0.436  10.210  -0.037  0.00  0.00    +0.161 C 
ENDBRANCH   4  13
ENDBRANCH   8   4
BRANCH   7  10
ATOM     10  C   UNL     1       6.858   9.932   2.252  0.00  0.00    +0.063 C 
BRANCH  10  14
ATOM      2  O   UNL     1       9.018   7.325   3.502  0.00  0.00    -0.354 OA
ATOM      5  N   UNL     1       8.511   8.118   2.478  0.00  0.00    -0.083 NA
ATOM     14  C   UNL     1       7.620   8.918   3.070  0.00  0.00    +0.084 A 
ATOM     19  C   UNL     1       7.524   8.680   4.452  0.00  0.00    +0.076 A 
ATOM     20  C   UNL     1       8.423   7.670   4.672  0.00  0.00    +0.167 A 
BRANCH  20  21
ATOM     21  C   UNL     1       8.848   6.934   5.827  0.00  0.00    +0.020 A 
ATOM     22  C   UNL     1       9.428   5.674   5.677  0.00  0.00    +0.015 A 
ATOM     23  C   UNL     1       8.681   7.477   7.100  0.00  0.00    +0.015 A 
ATOM     24  C   UNL     1       9.841   4.957   6.800  0.00  0.00    +0.046 A 
ATOM     25  C   UNL     1       9.094   6.761   8.224  0.00  0.00    +0.046 A 
ATOM     26  C   UNL     1       9.674   5.501   8.073  0.00  0.00    +0.120 A 
BRANCH  26   3
ATOM      3  O   UNL     1      10.079   4.804   9.170  0.00  0.00    -0.495 OA
ATOM     27  C   UNL     1       9.099   4.543  10.173  0.00  0.00    +0.277 C 
ENDBRANCH  26   3
ENDBRANCH  20  21
ENDBRANCH  10  14
ENDBRANCH   7  10
TORSDOF 6
ENDMDL
MODEL 7
REMARK VINA RESULT:      -6.3      6.370      9.189
REMARK  Name = 56774196
REMARK  9 active torsions:
REMARK  status: ('A' for Active; 'I' for Inactive)
REMARK    1  A    between atoms: O_3  and  C_26
REMARK    2  A    between atoms: O_3  and  C_27
REMARK    3  A    between atoms: N_4  and  C_8
REMARK    4  A    between atoms: N_4  and  C_13
REMARK    5  A    between atoms: C_6  and  C_11
REMARK    6  A    between atoms: C_6  and  C_12
REMARK    7  A    between atoms: C_7  and  C_10
REMARK    8  A    between atoms: C_10  and  C_14
REMARK    9  A    between atoms: C_20  and  C_21
REMARK                            x       y       z     vdW  Elec       q    Type
REMARK                         _______ _______ _______ _____ _____    ______ ____
ROOT
ATOM      6  C   UNL     1      -5.664 -11.913  16.719  0.00  0.00    -0.016 C 
ATOM      7  C   UNL     1      -4.677 -10.729  16.655  0.00  0.00    +0.004 C 
ATOM      8  C   UNL     1      -6.218 -11.281  18.012  0.00  0.00    +0.060 C 
ATOM      9  C   UNL     1      -4.839 -10.610  18.184  0.00  0.00    +0.023 C 
ATOM     11  C   UNL     1      -4.992 -13.264  16.829  0.00  0.00    +0.013 C 
ATOM     12  C   UNL     1      -6.704 -11.960  15.613  0.00  0.00    +0.013 C 
ENDROOT
BRANCH   8   4
ATOM      4  N   UNL     1      -6.392 -12.288  19.062  0.00  0.00    -0.310 NA
ATOM     28  H   UNL     1      -5.642 -12.310  19.753  0.00  0.00    +0.122 HD
BRANCH   4  13
ATOM      1  O   UNL     1     -10.544 -12.008  19.620  0.00  0.00    -0.380 OA
ATOM     13  C   UNL     1      -7.668 -12.064  19.738  0.00  0.00    +0.058 C 
ATOM     15  C   UNL     1      -8.516 -13.341  19.752  0.00  0.00    +0.047 C 
ATOM     16  C   UNL     1      -8.440 -10.930  19.057  0.00  0.00    +0.047 C 
ATOM     17  C   UNL     1      -9.893 -13.056  20.341  0.00  0.00    +0.161 C 
ATOM     18  C   UNL     1      -9.822 -10.779  19.684  0.00  0.00    +0.161 C 
ENDBRANCH   4  13
ENDBRANCH   8   4
BRANCH   7  10
ATOM     10  C   UNL     1      -3.268 -11.029  16.194  0.00  0.00    +0.063 C 
BRANCH  10  14
ATOM      2  O   UNL     1      -2.179 -10.221  12.850  0.00  0.00    -0.354 OA
ATOM      5  N   UNL     1      -1.955 -10.376  14.213  0.00  0.00    -0.083 NA
ATOM     14  C   UNL     1      -3.132 -10.762  14.715  0.00  0.00    +0.084 A 
ATOM     19  C   UNL     1      -4.125 -10.868  13.726  0.00  0.00    +0.076 A 
ATOM     20  C   UNL     1      -3.474 -10.518  12.572  0.00  0.00    +0.167 A 
BRANCH  20  21
ATOM     21  C   UNL     1      -3.857 -10.404  11.195  0.00  0.00    +0.020 A 
ATOM     22  C   UNL     1      -4.042  -9.145  10.624  0.00  0.00    +0.015 A 
ATOM     23  C   UNL     1      -4.046 -11.553  10.427  0.00  0.00    +0.015 A 
ATOM     24  C   UNL     1      -4.415  -9.034   9.285  0.00  0.00    +0.046 A 
ATOM     25  C   UNL     1      -4.418 -11.443   9.087  0.00  0.00    +0.046 A 
ATOM     26  C   UNL     1      -4.603 -10.183   8.517  0.00  0.00    +0.120 A 
BRANCH  26   3
ATOM      3  O   UNL     1      -4.964 -10.076   7.208  0.00  0.00    -0.495 OA
ATOM     27  C   UNL     1      -6.313  -9.697   6.936  0.00  0.00    +0.277 C 
ENDBRANCH  26   3
ENDBRANCH  20  21
ENDBRANCH  10  14
ENDBRANCH   7  10
TORSDOF 6
ENDMDL
MODEL 8
REMARK VINA RESULT:      -6.2     30.893     33.012
REMARK  Name = 56774196
REMARK  9 active torsions:
REMARK  status: ('A' for Active; 'I' for Inactive)
REMARK    1  A    between atoms: O_3  and  C_26
REMARK    2  A    between atoms: O_3  and  C_27
REMARK    3  A    between atoms: N_4  and  C_8
REMARK    4  A    between atoms: N_4  and  C_13
REMARK    5  A    between atoms: C_6  and  C_11
REMARK    6  A    between atoms: C_6  and  C_12
REMARK    7  A    between atoms: C_7  and  C_10
REMARK    8  A    between atoms: C_10  and  C_14
REMARK    9  A    between atoms: C_20  and  C_21
REMARK                            x       y       z     vdW  Elec       q    Type
REMARK                         _______ _______ _______ _____ _____    ______ ____
ROOT
ATOM      6  C   UNL     1      18.473  -3.872  -2.334  0.00  0.00    -0.016 C 
ATOM      7  C   UNL     1      19.099  -4.472  -1.058  0.00  0.00    +0.004 C 
ATOM      8  C   UNL     1      17.584  -5.132  -2.398  0.00  0.00    +0.060 C 
ATOM      9  C   UNL     1      18.687  -5.857  -1.598  0.00  0.00    +0.023 C 
ATOM     11  C   UNL     1      19.465  -3.655  -3.457  0.00  0.00    +0.013 C 
ATOM     12  C   UNL     1      17.659  -2.606  -2.133  0.00  0.00    +0.013 C 
ENDROOT
BRANCH   8   4
ATOM      4  N   UNL     1      17.540  -5.682  -3.755  0.00  0.00    -0.310 NA
ATOM     28  H   UNL     1      18.171  -6.468  -3.912  0.00  0.00    +0.122 HD
BRANCH   4  13
ATOM      1  O   UNL     1      13.544  -6.815  -3.138  0.00  0.00    -0.380 OA
ATOM     13  C   UNL     1      16.171  -6.089  -4.066  0.00  0.00    +0.058 C 
ATOM     15  C   UNL     1      15.161  -5.051  -3.567  0.00  0.00    +0.047 C 
ATOM     16  C   UNL     1      15.868  -7.456  -3.444  0.00  0.00    +0.047 C 
ATOM     17  C   UNL     1      13.737  -5.553  -3.779  0.00  0.00    +0.161 C 
ATOM     18  C   UNL     1      14.405  -7.824  -3.663  0.00  0.00    +0.161 C 
ENDBRANCH   4  13
ENDBRANCH   8   4
BRANCH   7  10
ATOM     10  C   UNL     1      20.587  -4.289  -0.868  0.00  0.00    +0.063 C 
BRANCH  10  14
ATOM      2  O   UNL     1      22.356  -7.069   0.604  0.00  0.00    -0.354 OA
ATOM      5  N   UNL     1      22.076  -6.209  -0.451  0.00  0.00    -0.083 NA
ATOM     14  C   UNL     1      21.142  -5.378   0.019  0.00  0.00    +0.084 A 
ATOM     19  C   UNL     1      20.797  -5.661   1.351  0.00  0.00    +0.076 A 
ATOM     20  C   UNL     1      21.588  -6.733   1.672  0.00  0.00    +0.167 A 
BRANCH  20  21
ATOM     21  C   UNL     1      21.768  -7.537   2.846  0.00  0.00    +0.020 A 
ATOM     22  C   UNL     1      21.573  -8.916   2.783  0.00  0.00    +0.015 A 
ATOM     23  C   UNL     1      22.138  -6.938   4.051  0.00  0.00    +0.015 A 
ATOM     24  C   UNL     1      21.747  -9.698   3.925  0.00  0.00    +0.046 A 
ATOM     25  C   UNL     1      22.313  -7.720   5.193  0.00  0.00    +0.046 A 
ATOM     26  C   UNL     1      22.117  -9.100   5.129  0.00  0.00    +0.120 A 
BRANCH  26   3
ATOM      3  O   UNL     1      22.290  -9.863   6.243  0.00  0.00    -0.495 OA
ATOM     27  C   UNL     1      21.946 -11.244   6.145  0.00  0.00    +0.277 C 
ENDBRANCH  26   3
ENDBRANCH  20  21
ENDBRANCH  10  14
ENDBRANCH   7  10
TORSDOF 6
ENDMDL
MODEL 9
REMARK VINA RESULT:      -6.1      6.213     10.925
REMARK  Name = 56774196
REMARK  9 active torsions:
REMARK  status: ('A' for Active; 'I' for Inactive)
REMARK    1  A    between atoms: O_3  and  C_26
REMARK    2  A    between atoms: O_3  and  C_27
REMARK    3  A    between atoms: N_4  and  C_8
REMARK    4  A    between atoms: N_4  and  C_13
REMARK    5  A    between atoms: C_6  and  C_11
REMARK    6  A    between atoms: C_6  and  C_12
REMARK    7  A    between atoms: C_7  and  C_10
REMARK    8  A    between atoms: C_10  and  C_14
REMARK    9  A    between atoms: C_20  and  C_21
REMARK                            x       y       z     vdW  Elec       q    Type
REMARK                         _______ _______ _______ _____ _____    ______ ____
ROOT
ATOM      6  C   UNL     1      -3.056 -11.768  14.417  0.00  0.00    -0.016 C 
ATOM      7  C   UNL     1      -3.622 -11.511  13.005  0.00  0.00    +0.004 C 
ATOM      8  C   UNL     1      -4.289 -11.018  14.963  0.00  0.00    +0.060 C 
ATOM      9  C   UNL     1      -4.355 -10.293  13.603  0.00  0.00    +0.023 C 
ATOM     11  C   UNL     1      -1.696 -11.148  14.653  0.00  0.00    +0.013 C 
ATOM     12  C   UNL     1      -3.028 -13.221  14.858  0.00  0.00    +0.013 C 
ENDROOT
BRANCH   8   4
ATOM      4  N   UNL     1      -3.907 -10.054  15.999  0.00  0.00    -0.310 NA
ATOM     28  H   UNL     1      -4.008  -9.078  15.723  0.00  0.00    +0.122 HD
BRANCH   4  13
ATOM      1  O   UNL     1      -6.326 -12.098  18.756  0.00  0.00    -0.380 OA
ATOM     13  C   UNL     1      -4.697 -10.303  17.203  0.00  0.00    +0.058 C 
ATOM     15  C   UNL     1      -4.100 -11.449  18.027  0.00  0.00    +0.047 C 
ATOM     16  C   UNL     1      -6.147 -10.625  16.832  0.00  0.00    +0.047 C 
ATOM     17  C   UNL     1      -5.008 -11.782  19.206  0.00  0.00    +0.161 C 
ATOM     18  C   UNL     1      -6.941 -11.004  18.077  0.00  0.00    +0.161 C 
ENDBRANCH   4  13
ENDBRANCH   8   4
BRANCH   7  10
ATOM     10  C   UNL     1      -2.629 -11.174  11.915  0.00  0.00    +0.063 C 
BRANCH  10  14
ATOM      2  O   UNL     1      -3.720  -8.933   9.305  0.00  0.00    -0.354 OA
ATOM      5  N   UNL     1      -2.869  -9.289  10.344  0.00  0.00    -0.083 NA
ATOM     14  C   UNL     1      -3.322 -10.471  10.773  0.00  0.00    +0.084 A 
ATOM     19  C   UNL     1      -4.445 -10.906  10.048  0.00  0.00    +0.076 A 
ATOM     20  C   UNL     1      -4.653  -9.904   9.138  0.00  0.00    +0.167 A 
BRANCH  20  21
ATOM     21  C   UNL     1      -5.608  -9.676   8.092  0.00  0.00    +0.020 A 
ATOM     22  C   UNL     1      -5.418 -10.254   6.836  0.00  0.00    +0.015 A 
ATOM     23  C   UNL     1      -6.725  -8.876   8.330  0.00  0.00    +0.015 A 
ATOM     24  C   UNL     1      -6.346 -10.032   5.819  0.00  0.00    +0.046 A 
ATOM     25  C   UNL     1      -7.654  -8.654   7.313  0.00  0.00    +0.046 A 
ATOM     26  C   UNL     1      -7.463  -9.232   6.057  0.00  0.00    +0.120 A 
BRANCH  26   3
ATOM      3  O   UNL     1      -8.371  -9.017   5.066  0.00  0.00    -0.495 OA
ATOM     27  C   UNL     1      -8.566  -7.668   4.644  0.00  0.00    +0.277 C 
ENDBRANCH  26   3
ENDBRANCH  20  21
ENDBRANCH  10  14
ENDBRANCH   7  10
TORSDOF 6
ENDMDL
MODEL 10
REMARK VINA RESULT:      -6.0     31.860     33.985
REMARK  Name = 56774196
REMARK  9 active torsions:
REMARK  status: ('A' for Active; 'I' for Inactive)
REMARK    1  A    between atoms: O_3  and  C_26
REMARK    2  A    between atoms: O_3  and  C_27
REMARK    3  A    between atoms: N_4  and  C_8
REMARK    4  A    between atoms: N_4  and  C_13
REMARK    5  A    between atoms: C_6  and  C_11
REMARK    6  A    between atoms: C_6  and  C_12
REMARK    7  A    between atoms: C_7  and  C_10
REMARK    8  A    between atoms: C_10  and  C_14
REMARK    9  A    between atoms: C_20  and  C_21
REMARK                            x       y       z     vdW  Elec       q    Type
REMARK                         _______ _______ _______ _____ _____    ______ ____
ROOT
ATOM      6  C   UNL     1      20.954  -6.276  -0.123  0.00  0.00    -0.016 C 
ATOM      7  C   UNL     1      19.660  -5.449   0.036  0.00  0.00    +0.004 C 
ATOM      8  C   UNL     1      20.999  -6.358   1.417  0.00  0.00    +0.060 C 
ATOM      9  C   UNL     1      20.177  -5.052   1.433  0.00  0.00    +0.023 C 
ATOM     11  C   UNL     1      22.073  -5.533  -0.820  0.00  0.00    +0.013 C 
ATOM     12  C   UNL     1      20.784  -7.643  -0.765  0.00  0.00    +0.013 C 
ENDROOT
BRANCH   8   4
ATOM      4  N   UNL     1      22.345  -6.079   1.923  0.00  0.00    -0.310 NA
ATOM     28  H   UNL     1      22.468  -5.140   2.300  0.00  0.00    +0.122 HD
BRANCH   4  13
ATOM      1  O   UNL     1      21.820  -8.906   4.983  0.00  0.00    -0.380 OA
ATOM     13  C   UNL     1      22.687  -7.062   2.949  0.00  0.00    +0.058 C 
ATOM     15  C   UNL     1      22.098  -8.436   2.615  0.00  0.00    +0.047 C 
ATOM     16  C   UNL     1      22.185  -6.597   4.320  0.00  0.00    +0.047 C 
ATOM     17  C   UNL     1      22.350  -9.413   3.758  0.00  0.00    +0.161 C 
ATOM     18  C   UNL     1      22.432  -7.676   5.368  0.00  0.00    +0.161 C 
ENDBRANCH   4  13
ENDBRANCH   8   4
BRANCH   7  10
ATOM     10  C   UNL     1      19.462  -4.290  -0.914  0.00  0.00    +0.063 C 
BRANCH  10  14
ATOM      2  O   UNL     1      16.473  -4.088  -2.926  0.00  0.00    -0.354 OA
ATOM      5  N   UNL     1      17.451  -3.523  -2.116  0.00  0.00    -0.083 NA
ATOM     14  C   UNL     1      18.264  -4.535  -1.799  0.00  0.00    +0.084 A 
ATOM     19  C   UNL     1      17.853  -5.749  -2.374  0.00  0.00    +0.076 A 
ATOM     20  C   UNL     1      16.723  -5.413  -3.073  0.00  0.00    +0.167 A 
BRANCH  20  21
ATOM     21  C   UNL     1      15.792  -6.136  -3.890  0.00  0.00    +0.020 A 
ATOM     22  C   UNL     1      15.877  -7.525  -3.982  0.00  0.00    +0.015 A 
ATOM     23  C   UNL     1      14.802  -5.449  -4.592  0.00  0.00    +0.015 A 
ATOM     24  C   UNL     1      14.972  -8.228  -4.777  0.00  0.00    +0.046 A 
ATOM     25  C   UNL     1      13.896  -6.152  -5.387  0.00  0.00    +0.046 A 
ATOM     26  C   UNL     1      13.982  -7.541  -5.480  0.00  0.00    +0.120 A 
BRANCH  26   3
ATOM      3  O   UNL     1      13.096  -8.227  -6.253  0.00  0.00    -0.495 OA
ATOM     27  C   UNL     1      12.517  -7.527  -7.354  0.00  0.00    +0.277 C 
ENDBRANCH  26   3
ENDBRANCH  20  21
ENDBRANCH  10  14
ENDBRANCH   7  10
TORSDOF 6
ENDMDL
