MODEL 1
REMARK VINA RESULT:      -6.1      0.000      0.000
REMARK  Name = 75536051
REMARK  6 active torsions:
REMARK  status: ('A' for Active; 'I' for Inactive)
REMARK    1  A    between atoms: S_1  and  N_6
REMARK    2  A    between atoms: S_1  and  C_14
REMARK    3  A    between atoms: N_7  and  N_8
REMARK    4  A    between atoms: C_9  and  C_13
REMARK    5  A    between atoms: C_15  and  C_16
REMARK    6  A    between atoms: C_16  and  C_17
REMARK                            x       y       z     vdW  Elec       q    Type
REMARK                         _______ _______ _______ _____ _____    ______ ____
ROOT
ATOM      4  O   UNL     1     -16.635   4.738  20.876  0.00  0.00    -0.274 OA
ATOM      7  N   UNL     1     -15.355   4.002  22.669  0.00  0.00    -0.234 N 
ATOM     13  C   UNL     1     -16.535   4.236  21.993  0.00  0.00    +0.233 C 
ATOM     23  H   UNL     1     -15.297   3.561  23.581  0.00  0.00    +0.173 HD
ENDROOT
BRANCH  13   9
ATOM      6  N   UNL     1     -17.260   1.628  23.542  0.00  0.00    -0.181 NA
ATOM      9  C   UNL     1     -17.742   3.836  22.788  0.00  0.00    +0.093 C 
ATOM     10  C   UNL     1     -18.633   2.876  22.020  0.00  0.00    +0.031 C 
ATOM     11  C   UNL     1     -17.346   3.035  24.022  0.00  0.00    +0.122 C 
ATOM     12  C   UNL     1     -18.011   1.505  22.261  0.00  0.00    +0.110 C 
BRANCH   6   1
ATOM      1  S   UNL     1     -17.422   0.386  24.689  0.00  0.00    +0.029 S 
ATOM      2  O   UNL     1     -16.433   0.570  25.735  0.00  0.00    -0.158 OA
ATOM      3  O   UNL     1     -17.561  -0.885  24.004  0.00  0.00    -0.158 OA
ATOM     14  C   UNL     1     -19.008   0.811  25.366  0.00  0.00    +0.215 C 
ENDBRANCH   6   1
ENDBRANCH  13   9
BRANCH   7   8
ATOM      5  O   UNL     1     -14.203   6.500  22.939  0.00  0.00    -0.274 OA
ATOM      8  N   UNL     1     -14.168   4.348  22.074  0.00  0.00    -0.234 N 
ATOM     15  C   UNL     1     -13.669   5.621  22.266  0.00  0.00    +0.233 C 
ATOM     24  H   UNL     1     -13.711   3.632  21.519  0.00  0.00    +0.173 HD
BRANCH  15  16
ATOM     16  C   UNL     1     -12.346   5.845  21.564  0.00  0.00    +0.132 C 
BRANCH  16  17
ATOM     17  C   UNL     1     -12.433   6.966  20.563  0.00  0.00    -0.039 A 
ATOM     18  C   UNL     1     -11.276   7.635  20.163  0.00  0.00    +0.004 A 
ATOM     19  C   UNL     1     -13.671   7.335  20.036  0.00  0.00    +0.004 A 
ATOM     20  C   UNL     1     -11.358   8.674  19.236  0.00  0.00    +0.000 A 
ATOM     21  C   UNL     1     -13.751   8.373  19.109  0.00  0.00    +0.000 A 
ATOM     22  C   UNL     1     -12.595   9.043  18.708  0.00  0.00    +0.000 A 
ENDBRANCH  16  17
ENDBRANCH  15  16
ENDBRANCH   7   8
TORSDOF 5
ENDMDL
MODEL 2
REMARK VINA RESULT:      -6.1     19.573     20.477
REMARK  Name = 75536051
REMARK  6 active torsions:
REMARK  status: ('A' for Active; 'I' for Inactive)
REMARK    1  A    between atoms: S_1  and  N_6
REMARK    2  A    between atoms: S_1  and  C_14
REMARK    3  A    between atoms: N_7  and  N_8
REMARK    4  A    between atoms: C_9  and  C_13
REMARK    5  A    between atoms: C_15  and  C_16
REMARK    6  A    between atoms: C_16  and  C_17
REMARK                            x       y       z     vdW  Elec       q    Type
REMARK                         _______ _______ _______ _____ _____    ______ ____
ROOT
ATOM      4  O   UNL     1      -5.427 -13.611  16.459  0.00  0.00    -0.274 OA
ATOM      7  N   UNL     1      -3.667 -12.097  16.493  0.00  0.00    -0.234 N 
ATOM     13  C   UNL     1      -4.786 -12.718  17.007  0.00  0.00    +0.233 C 
ATOM     23  H   UNL     1      -3.138 -11.380  16.978  0.00  0.00    +0.173 HD
ENDROOT
BRANCH  13   9
ATOM      6  N   UNL     1      -7.446 -11.455  18.034  0.00  0.00    -0.181 NA
ATOM      9  C   UNL     1      -5.191 -12.162  18.340  0.00  0.00    +0.093 C 
ATOM     10  C   UNL     1      -5.208 -10.644  18.338  0.00  0.00    +0.031 C 
ATOM     11  C   UNL     1      -6.632 -12.528  18.672  0.00  0.00    +0.122 C 
ATOM     12  C   UNL     1      -6.572 -10.280  17.763  0.00  0.00    +0.110 C 
BRANCH   6   1
ATOM      1  S   UNL     1      -9.005 -11.172  18.646  0.00  0.00    +0.029 S 
ATOM      2  O   UNL     1      -8.917 -10.877  20.064  0.00  0.00    -0.158 OA
ATOM      3  O   UNL     1      -9.908 -12.192  18.148  0.00  0.00    -0.158 OA
ATOM     14  C   UNL     1      -9.385  -9.656  17.803  0.00  0.00    +0.215 C 
ENDBRANCH   6   1
ENDBRANCH  13   9
BRANCH   7   8
ATOM      5  O   UNL     1      -1.335 -11.108  15.388  0.00  0.00    -0.274 OA
ATOM      8  N   UNL     1      -3.199 -12.483  15.262  0.00  0.00    -0.234 N 
ATOM     15  C   UNL     1      -2.023 -11.934  14.791  0.00  0.00    +0.233 C 
ATOM     24  H   UNL     1      -3.752 -13.169  14.759  0.00  0.00    +0.173 HD
BRANCH  15  16
ATOM     16  C   UNL     1      -1.627 -12.472  13.432  0.00  0.00    +0.132 C 
BRANCH  16  17
ATOM     17  C   UNL     1      -2.232 -11.660  12.318  0.00  0.00    -0.039 A 
ATOM     18  C   UNL     1      -1.774 -10.366  12.069  0.00  0.00    +0.004 A 
ATOM     19  C   UNL     1      -3.251 -12.203  11.535  0.00  0.00    +0.004 A 
ATOM     20  C   UNL     1      -2.335  -9.615  11.037  0.00  0.00    +0.000 A 
ATOM     21  C   UNL     1      -3.812 -11.451  10.503  0.00  0.00    +0.000 A 
ATOM     22  C   UNL     1      -3.354 -10.158  10.254  0.00  0.00    +0.000 A 
ENDBRANCH  16  17
ENDBRANCH  15  16
ENDBRANCH   7   8
TORSDOF 5
ENDMDL
MODEL 3
REMARK VINA RESULT:      -6.1     30.262     33.314
REMARK  Name = 75536051
REMARK  6 active torsions:
REMARK  status: ('A' for Active; 'I' for Inactive)
REMARK    1  A    between atoms: S_1  and  N_6
REMARK    2  A    between atoms: S_1  and  C_14
REMARK    3  A    between atoms: N_7  and  N_8
REMARK    4  A    between atoms: C_9  and  C_13
REMARK    5  A    between atoms: C_15  and  C_16
REMARK    6  A    between atoms: C_16  and  C_17
REMARK                            x       y       z     vdW  Elec       q    Type
REMARK                         _______ _______ _______ _____ _____    ______ ____
ROOT
ATOM      4  O   UNL     1      10.022   5.965   1.985  0.00  0.00    -0.274 OA
ATOM      7  N   UNL     1      11.601   5.087   3.444  0.00  0.00    -0.234 N 
ATOM     13  C   UNL     1      10.593   5.952   3.073  0.00  0.00    +0.233 C 
ATOM     23  H   UNL     1      12.039   5.078   4.360  0.00  0.00    +0.173 HD
ENDROOT
BRANCH  13   9
ATOM      6  N   UNL     1      10.069   5.632   6.131  0.00  0.00    -0.181 NA
ATOM      9  C   UNL     1      10.259   6.942   4.149  0.00  0.00    +0.093 C 
ATOM     10  C   UNL     1       8.792   6.887   4.534  0.00  0.00    +0.031 C 
ATOM     11  C   UNL     1      10.975   6.600   5.450  0.00  0.00    +0.122 C 
ATOM     12  C   UNL     1       8.705   5.748   5.544  0.00  0.00    +0.110 C 
BRANCH   6   1
ATOM      1  S   UNL     1      10.206   5.467   7.816  0.00  0.00    +0.029 S 
ATOM      2  O   UNL     1      11.547   5.841   8.226  0.00  0.00    -0.158 OA
ATOM      3  O   UNL     1       9.624   4.202   8.222  0.00  0.00    -0.158 OA
ATOM     14  C   UNL     1       9.103   6.760   8.333  0.00  0.00    +0.215 C 
ENDBRANCH   6   1
ENDBRANCH  13   9
BRANCH   7   8
ATOM      5  O   UNL     1      13.875   5.399   1.904  0.00  0.00    -0.274 OA
ATOM      8  N   UNL     1      12.033   4.144   2.545  0.00  0.00    -0.234 N 
ATOM     15  C   UNL     1      13.181   4.387   1.819  0.00  0.00    +0.233 C 
ATOM     24  H   UNL     1      11.475   3.300   2.468  0.00  0.00    +0.173 HD
BRANCH  15  16
ATOM     16  C   UNL     1      13.539   3.249   0.887  0.00  0.00    +0.132 C 
BRANCH  16  17
ATOM     17  C   UNL     1      13.303   3.619  -0.554  0.00  0.00    -0.039 A 
ATOM     18  C   UNL     1      12.026   3.501  -1.104  0.00  0.00    +0.004 A 
ATOM     19  C   UNL     1      14.361   4.079  -1.338  0.00  0.00    +0.004 A 
ATOM     20  C   UNL     1      11.808   3.843  -2.438  0.00  0.00    +0.000 A 
ATOM     21  C   UNL     1      14.142   4.421  -2.671  0.00  0.00    +0.000 A 
ATOM     22  C   UNL     1      12.866   4.304  -3.222  0.00  0.00    +0.000 A 
ENDBRANCH  16  17
ENDBRANCH  15  16
ENDBRANCH   7   8
TORSDOF 5
ENDMDL
MODEL 4
REMARK VINA RESULT:      -6.0     16.350     18.070
REMARK  Name = 75536051
REMARK  6 active torsions:
REMARK  status: ('A' for Active; 'I' for Inactive)
REMARK    1  A    between atoms: S_1  and  N_6
REMARK    2  A    between atoms: S_1  and  C_14
REMARK    3  A    between atoms: N_7  and  N_8
REMARK    4  A    between atoms: C_9  and  C_13
REMARK    5  A    between atoms: C_15  and  C_16
REMARK    6  A    between atoms: C_16  and  C_17
REMARK                            x       y       z     vdW  Elec       q    Type
REMARK                         _______ _______ _______ _____ _____    ______ ____
ROOT
ATOM      4  O   UNL     1      -7.022 -10.883  20.106  0.00  0.00    -0.274 OA
ATOM      7  N   UNL     1      -7.323  -9.749  18.102  0.00  0.00    -0.234 N 
ATOM     13  C   UNL     1      -6.598 -10.465  19.031  0.00  0.00    +0.233 C 
ATOM     23  H   UNL     1      -6.958  -9.438  17.208  0.00  0.00    +0.173 HD
ENDROOT
BRANCH  13   9
ATOM      6  N   UNL     1      -5.314 -11.487  16.378  0.00  0.00    -0.181 NA
ATOM      9  C   UNL     1      -5.172 -10.671  18.613  0.00  0.00    +0.093 C 
ATOM     10  C   UNL     1      -4.785 -12.139  18.626  0.00  0.00    +0.031 C 
ATOM     11  C   UNL     1      -4.963 -10.268  17.159  0.00  0.00    +0.122 C 
ATOM     12  C   UNL     1      -5.265 -12.671  17.280  0.00  0.00    +0.110 C 
BRANCH   6   1
ATOM      1  S   UNL     1      -4.670 -11.641  14.815  0.00  0.00    +0.029 S 
ATOM      2  O   UNL     1      -4.888 -10.407  14.084  0.00  0.00    -0.158 OA
ATOM      3  O   UNL     1      -5.064 -12.921  14.258  0.00  0.00    -0.158 OA
ATOM     14  C   UNL     1      -2.941 -11.733  15.213  0.00  0.00    +0.215 C 
ENDBRANCH   6   1
ENDBRANCH  13   9
BRANCH   7   8
ATOM      5  O   UNL     1      -9.383 -10.366  16.365  0.00  0.00    -0.274 OA
ATOM      8  N   UNL     1      -8.638  -9.457  18.365  0.00  0.00    -0.234 N 
ATOM     15  C   UNL     1      -9.599  -9.804  17.437  0.00  0.00    +0.233 C 
ATOM     24  H   UNL     1      -8.835  -8.999  19.249  0.00  0.00    +0.173 HD
BRANCH  15  16
ATOM     16  C   UNL     1     -11.000  -9.437  17.878  0.00  0.00    +0.132 C 
BRANCH  16  17
ATOM     17  C   UNL     1     -11.549  -8.286  17.076  0.00  0.00    -0.039 A 
ATOM     18  C   UNL     1     -12.861  -8.329  16.602  0.00  0.00    +0.004 A 
ATOM     19  C   UNL     1     -10.745  -7.179  16.807  0.00  0.00    +0.004 A 
ATOM     20  C   UNL     1     -13.368  -7.263  15.859  0.00  0.00    +0.000 A 
ATOM     21  C   UNL     1     -11.253  -6.113  16.064  0.00  0.00    +0.000 A 
ATOM     22  C   UNL     1     -12.564  -6.155  15.591  0.00  0.00    +0.000 A 
ENDBRANCH  16  17
ENDBRANCH  15  16
ENDBRANCH   7   8
TORSDOF 5
ENDMDL
MODEL 5
REMARK VINA RESULT:      -6.0     19.449     20.256
REMARK  Name = 75536051
REMARK  6 active torsions:
REMARK  status: ('A' for Active; 'I' for Inactive)
REMARK    1  A    between atoms: S_1  and  N_6
REMARK    2  A    between atoms: S_1  and  C_14
REMARK    3  A    between atoms: N_7  and  N_8
REMARK    4  A    between atoms: C_9  and  C_13
REMARK    5  A    between atoms: C_15  and  C_16
REMARK    6  A    between atoms: C_16  and  C_17
REMARK                            x       y       z     vdW  Elec       q    Type
REMARK                         _______ _______ _______ _____ _____    ______ ____
ROOT
ATOM      4  O   UNL     1      -4.440 -12.273  16.033  0.00  0.00    -0.274 OA
ATOM      7  N   UNL     1      -4.288 -10.236  14.927  0.00  0.00    -0.234 N 
ATOM     13  C   UNL     1      -4.580 -11.053  16.000  0.00  0.00    +0.233 C 
ATOM     23  H   UNL     1      -4.387  -9.226  14.933  0.00  0.00    +0.173 HD
ENDROOT
BRANCH  13   9
ATOM      6  N   UNL     1      -7.066 -11.533  17.821  0.00  0.00    -0.181 NA
ATOM      9  C   UNL     1      -5.140 -10.292  17.166  0.00  0.00    +0.093 C 
ATOM     10  C   UNL     1      -6.368  -9.488  16.778  0.00  0.00    +0.031 C 
ATOM     11  C   UNL     1      -5.666 -11.239  18.237  0.00  0.00    +0.122 C 
ATOM     12  C   UNL     1      -7.519 -10.484  16.865  0.00  0.00    +0.110 C 
BRANCH   6   1
ATOM      1  S   UNL     1      -8.156 -12.056  19.014  0.00  0.00    +0.029 S 
ATOM      2  O   UNL     1      -9.352 -11.236  18.961  0.00  0.00    -0.158 OA
ATOM      3  O   UNL     1      -7.441 -12.259  20.260  0.00  0.00    -0.158 OA
ATOM     14  C   UNL     1      -8.569 -13.655  18.361  0.00  0.00    +0.215 C 
ENDBRANCH   6   1
ENDBRANCH  13   9
BRANCH   7   8
ATOM      5  O   UNL     1      -1.658  -9.967  14.120  0.00  0.00    -0.274 OA
ATOM      8  N   UNL     1      -3.796 -10.801  13.777  0.00  0.00    -0.234 N 
ATOM     15  C   UNL     1      -2.467 -10.612  13.455  0.00  0.00    +0.233 C 
ATOM     24  H   UNL     1      -4.449 -11.342  13.219  0.00  0.00    +0.173 HD
BRANCH  15  16
ATOM     16  C   UNL     1      -2.069 -11.310  12.172  0.00  0.00    +0.132 C 
BRANCH  16  17
ATOM     17  C   UNL     1      -2.913 -10.856  11.010  0.00  0.00    -0.039 A 
ATOM     18  C   UNL     1      -3.697 -11.778  10.315  0.00  0.00    +0.004 A 
ATOM     19  C   UNL     1      -2.910  -9.515  10.628  0.00  0.00    +0.004 A 
ATOM     20  C   UNL     1      -4.477 -11.358   9.239  0.00  0.00    +0.000 A 
ATOM     21  C   UNL     1      -3.692  -9.095   9.553  0.00  0.00    +0.000 A 
ATOM     22  C   UNL     1      -4.475 -10.016   8.858  0.00  0.00    +0.000 A 
ENDBRANCH  16  17
ENDBRANCH  15  16
ENDBRANCH   7   8
TORSDOF 5
ENDMDL
MODEL 6
REMARK VINA RESULT:      -5.9     30.525     33.776
REMARK  Name = 75536051
REMARK  6 active torsions:
REMARK  status: ('A' for Active; 'I' for Inactive)
REMARK    1  A    between atoms: S_1  and  N_6
REMARK    2  A    between atoms: S_1  and  C_14
REMARK    3  A    between atoms: N_7  and  N_8
REMARK    4  A    between atoms: C_9  and  C_13
REMARK    5  A    between atoms: C_15  and  C_16
REMARK    6  A    between atoms: C_16  and  C_17
REMARK                            x       y       z     vdW  Elec       q    Type
REMARK                         _______ _______ _______ _____ _____    ______ ____
ROOT
ATOM      4  O   UNL     1      13.081   3.229   1.887  0.00  0.00    -0.274 OA
ATOM      7  N   UNL     1      11.194   4.554   1.612  0.00  0.00    -0.234 N 
ATOM     13  C   UNL     1      12.419   4.039   1.242  0.00  0.00    +0.233 C 
ATOM     23  H   UNL     1      10.653   5.202   1.049  0.00  0.00    +0.173 HD
ENDROOT
BRANCH  13   9
ATOM      6  N   UNL     1      11.331   3.852  -1.674  0.00  0.00    -0.181 NA
ATOM      9  C   UNL     1      12.912   4.603  -0.057  0.00  0.00    +0.093 C 
ATOM     10  C   UNL     1      13.586   3.546  -0.914  0.00  0.00    +0.031 C 
ATOM     11  C   UNL     1      11.752   5.070  -0.927  0.00  0.00    +0.122 C 
ATOM     12  C   UNL     1      12.437   2.855  -1.640  0.00  0.00    +0.110 C 
BRANCH   6   1
ATOM      1  S   UNL     1      10.489   4.068  -3.134  0.00  0.00    +0.029 S 
ATOM      2  O   UNL     1       9.132   4.493  -2.846  0.00  0.00    -0.158 OA
ATOM      3  O   UNL     1      10.752   2.941  -4.009  0.00  0.00    -0.158 OA
ATOM     14  C   UNL     1      11.368   5.470  -3.780  0.00  0.00    +0.215 C 
ENDBRANCH   6   1
ENDBRANCH  13   9
BRANCH   7   8
ATOM      5  O   UNL     1      11.336   6.047   3.934  0.00  0.00    -0.274 OA
ATOM      8  N   UNL     1      10.634   4.150   2.798  0.00  0.00    -0.234 N 
ATOM     15  C   UNL     1      10.756   4.963   3.907  0.00  0.00    +0.233 C 
ATOM     24  H   UNL     1      10.145   3.261   2.791  0.00  0.00    +0.173 HD
BRANCH  15  16
ATOM     16  C   UNL     1      10.070   4.393   5.131  0.00  0.00    +0.132 C 
BRANCH  16  17
ATOM     17  C   UNL     1       9.606   5.481   6.062  0.00  0.00    -0.039 A 
ATOM     18  C   UNL     1      10.194   5.621   7.320  0.00  0.00    +0.004 A 
ATOM     19  C   UNL     1       8.587   6.348   5.668  0.00  0.00    +0.004 A 
ATOM     20  C   UNL     1       9.763   6.629   8.182  0.00  0.00    +0.000 A 
ATOM     21  C   UNL     1       8.157   7.356   6.530  0.00  0.00    +0.000 A 
ATOM     22  C   UNL     1       8.745   7.497   7.787  0.00  0.00    +0.000 A 
ENDBRANCH  16  17
ENDBRANCH  15  16
ENDBRANCH   7   8
TORSDOF 5
ENDMDL
MODEL 7
REMARK VINA RESULT:      -5.7      1.686      2.262
REMARK  Name = 75536051
REMARK  6 active torsions:
REMARK  status: ('A' for Active; 'I' for Inactive)
REMARK    1  A    between atoms: S_1  and  N_6
REMARK    2  A    between atoms: S_1  and  C_14
REMARK    3  A    between atoms: N_7  and  N_8
REMARK    4  A    between atoms: C_9  and  C_13
REMARK    5  A    between atoms: C_15  and  C_16
REMARK    6  A    between atoms: C_16  and  C_17
REMARK                            x       y       z     vdW  Elec       q    Type
REMARK                         _______ _______ _______ _____ _____    ______ ____
ROOT
ATOM      4  O   UNL     1     -13.598   4.480  24.049  0.00  0.00    -0.274 OA
ATOM      7  N   UNL     1     -14.572   5.499  22.204  0.00  0.00    -0.234 N 
ATOM     13  C   UNL     1     -14.578   4.931  23.461  0.00  0.00    +0.233 C 
ATOM     23  H   UNL     1     -15.391   5.890  21.749  0.00  0.00    +0.173 HD
ENDROOT
BRANCH  13   9
ATOM      6  N   UNL     1     -16.315   2.568  24.523  0.00  0.00    -0.181 NA
ATOM      9  C   UNL     1     -15.952   4.877  24.061  0.00  0.00    +0.093 C 
ATOM     10  C   UNL     1     -16.981   4.360  23.073  0.00  0.00    +0.031 C 
ATOM     11  C   UNL     1     -16.016   3.862  25.196  0.00  0.00    +0.122 C 
ATOM     12  C   UNL     1     -16.872   2.842  23.168  0.00  0.00    +0.110 C 
BRANCH   6   1
ATOM      1  S   UNL     1     -17.029   1.338  25.450  0.00  0.00    +0.029 S 
ATOM      2  O   UNL     1     -16.767   1.585  26.856  0.00  0.00    -0.158 OA
ATOM      3  O   UNL     1     -16.735   0.051  24.848  0.00  0.00    -0.158 OA
ATOM     14  C   UNL     1     -18.743   1.696  25.150  0.00  0.00    +0.215 C 
ENDBRANCH   6   1
ENDBRANCH  13   9
BRANCH   7   8
ATOM      5  O   UNL     1     -13.389   7.906  21.535  0.00  0.00    -0.274 OA
ATOM      8  N   UNL     1     -13.386   5.586  21.519  0.00  0.00    -0.234 N 
ATOM     15  C   UNL     1     -12.871   6.834  21.229  0.00  0.00    +0.233 C 
ATOM     24  H   UNL     1     -12.941   4.711  21.265  0.00  0.00    +0.173 HD
BRANCH  15  16
ATOM     16  C   UNL     1     -11.551   6.767  20.490  0.00  0.00    +0.132 C 
BRANCH  16  17
ATOM     17  C   UNL     1     -11.448   7.844  19.443  0.00  0.00    -0.039 A 
ATOM     18  C   UNL     1     -12.229   7.772  18.289  0.00  0.00    +0.004 A 
ATOM     19  C   UNL     1     -10.571   8.913  19.627  0.00  0.00    +0.004 A 
ATOM     20  C   UNL     1     -12.133   8.769  17.319  0.00  0.00    +0.000 A 
ATOM     21  C   UNL     1     -10.476   9.911  18.657  0.00  0.00    +0.000 A 
ATOM     22  C   UNL     1     -11.257   9.839  17.503  0.00  0.00    +0.000 A 
ENDBRANCH  16  17
ENDBRANCH  15  16
ENDBRANCH   7   8
TORSDOF 5
ENDMDL
MODEL 8
REMARK VINA RESULT:      -5.7      4.183      8.538
REMARK  Name = 75536051
REMARK  6 active torsions:
REMARK  status: ('A' for Active; 'I' for Inactive)
REMARK    1  A    between atoms: S_1  and  N_6
REMARK    2  A    between atoms: S_1  and  C_14
REMARK    3  A    between atoms: N_7  and  N_8
REMARK    4  A    between atoms: C_9  and  C_13
REMARK    5  A    between atoms: C_15  and  C_16
REMARK    6  A    between atoms: C_16  and  C_17
REMARK                            x       y       z     vdW  Elec       q    Type
REMARK                         _______ _______ _______ _____ _____    ______ ____
ROOT
ATOM      4  O   UNL     1     -16.678   5.723  23.639  0.00  0.00    -0.274 OA
ATOM      7  N   UNL     1     -15.152   4.178  24.461  0.00  0.00    -0.234 N 
ATOM     13  C   UNL     1     -15.718   4.972  23.485  0.00  0.00    +0.233 C 
ATOM     23  H   UNL     1     -14.341   3.586  24.317  0.00  0.00    +0.173 HD
ENDROOT
BRANCH  13   9
ATOM      6  N   UNL     1     -13.965   6.894  21.764  0.00  0.00    -0.181 NA
ATOM      9  C   UNL     1     -15.051   4.808  22.151  0.00  0.00    +0.093 C 
ATOM     10  C   UNL     1     -15.806   5.529  21.049  0.00  0.00    +0.031 C 
ATOM     11  C   UNL     1     -13.683   5.480  22.136  0.00  0.00    +0.122 C 
ATOM     12  C   UNL     1     -15.311   6.969  21.129  0.00  0.00    +0.110 C 
BRANCH   6   1
ATOM      1  S   UNL     1     -12.703   7.802  21.080  0.00  0.00    +0.029 S 
ATOM      2  O   UNL     1     -11.510   6.980  21.004  0.00  0.00    -0.158 OA
ATOM      3  O   UNL     1     -12.671   9.116  21.695  0.00  0.00    -0.158 OA
ATOM     14  C   UNL     1     -13.333   7.993  19.430  0.00  0.00    +0.215 C 
ENDBRANCH   6   1
ENDBRANCH  13   9
BRANCH   7   8
ATOM      5  O   UNL     1     -16.385   1.994  25.622  0.00  0.00    -0.274 OA
ATOM      8  N   UNL     1     -15.681   4.202  25.727  0.00  0.00    -0.234 N 
ATOM     15  C   UNL     1     -16.278   3.061  26.224  0.00  0.00    +0.233 C 
ATOM     24  H   UNL     1     -15.595   5.073  26.240  0.00  0.00    +0.173 HD
BRANCH  15  16
ATOM     16  C   UNL     1     -16.795   3.236  27.636  0.00  0.00    +0.132 C 
BRANCH  16  17
ATOM     17  C   UNL     1     -15.907   2.548  28.640  0.00  0.00    -0.039 A 
ATOM     18  C   UNL     1     -16.058   1.183  28.883  0.00  0.00    +0.004 A 
ATOM     19  C   UNL     1     -14.935   3.277  29.326  0.00  0.00    +0.004 A 
ATOM     20  C   UNL     1     -15.236   0.546  29.813  0.00  0.00    +0.000 A 
ATOM     21  C   UNL     1     -14.114   2.639  30.255  0.00  0.00    +0.000 A 
ATOM     22  C   UNL     1     -14.264   1.274  30.498  0.00  0.00    +0.000 A 
ENDBRANCH  16  17
ENDBRANCH  15  16
ENDBRANCH   7   8
TORSDOF 5
ENDMDL
MODEL 9
REMARK VINA RESULT:      -5.4      2.323      3.343
REMARK  Name = 75536051
REMARK  6 active torsions:
REMARK  status: ('A' for Active; 'I' for Inactive)
REMARK    1  A    between atoms: S_1  and  N_6
REMARK    2  A    between atoms: S_1  and  C_14
REMARK    3  A    between atoms: N_7  and  N_8
REMARK    4  A    between atoms: C_9  and  C_13
REMARK    5  A    between atoms: C_15  and  C_16
REMARK    6  A    between atoms: C_16  and  C_17
REMARK                            x       y       z     vdW  Elec       q    Type
REMARK                         _______ _______ _______ _____ _____    ______ ____
ROOT
ATOM      4  O   UNL     1     -13.684   4.900  22.951  0.00  0.00    -0.274 OA
ATOM      7  N   UNL     1     -14.143   6.791  21.684  0.00  0.00    -0.234 N 
ATOM     13  C   UNL     1     -14.448   5.788  22.581  0.00  0.00    +0.233 C 
ATOM     23  H   UNL     1     -14.783   7.531  21.414  0.00  0.00    +0.173 HD
ENDROOT
BRANCH  13   9
ATOM      6  N   UNL     1     -16.877   3.862  22.238  0.00  0.00    -0.181 NA
ATOM      9  C   UNL     1     -15.868   5.858  23.061  0.00  0.00    +0.093 C 
ATOM     10  C   UNL     1     -16.823   6.243  21.946  0.00  0.00    +0.031 C 
ATOM     11  C   UNL     1     -16.369   4.485  23.492  0.00  0.00    +0.122 C 
ATOM     12  C   UNL     1     -17.121   4.931  21.229  0.00  0.00    +0.110 C 
BRANCH   6   1
ATOM      1  S   UNL     1     -18.021   2.614  22.378  0.00  0.00    +0.029 S 
ATOM      2  O   UNL     1     -19.029   2.997  23.350  0.00  0.00    -0.158 OA
ATOM      3  O   UNL     1     -17.332   1.341  22.475  0.00  0.00    -0.158 OA
ATOM     14  C   UNL     1     -18.762   2.707  20.767  0.00  0.00    +0.215 C 
ENDBRANCH   6   1
ENDBRANCH  13   9
BRANCH   7   8
ATOM      5  O   UNL     1     -12.813   9.153  21.142  0.00  0.00    -0.274 OA
ATOM      8  N   UNL     1     -12.885   6.834  21.137  0.00  0.00    -0.234 N 
ATOM     15  C   UNL     1     -12.300   8.062  20.901  0.00  0.00    +0.233 C 
ATOM     24  H   UNL     1     -12.444   5.942  20.938  0.00  0.00    +0.173 HD
BRANCH  15  16
ATOM     16  C   UNL     1     -10.908   7.946  20.315  0.00  0.00    +0.132 C 
BRANCH  16  17
ATOM     17  C   UNL     1     -10.824   8.590  18.957  0.00  0.00    -0.039 A 
ATOM     18  C   UNL     1     -11.402   7.966  17.851  0.00  0.00    +0.004 A 
ATOM     19  C   UNL     1     -10.168   9.812  18.805  0.00  0.00    +0.004 A 
ATOM     20  C   UNL     1     -11.323   8.564  16.594  0.00  0.00    +0.000 A 
ATOM     21  C   UNL     1     -10.090  10.409  17.547  0.00  0.00    +0.000 A 
ATOM     22  C   UNL     1     -10.667   9.785  16.442  0.00  0.00    +0.000 A 
ENDBRANCH  16  17
ENDBRANCH  15  16
ENDBRANCH   7   8
TORSDOF 5
ENDMDL
MODEL 10
REMARK VINA RESULT:      -5.4      6.560      9.237
REMARK  Name = 75536051
REMARK  6 active torsions:
REMARK  status: ('A' for Active; 'I' for Inactive)
REMARK    1  A    between atoms: S_1  and  N_6
REMARK    2  A    between atoms: S_1  and  C_14
REMARK    3  A    between atoms: N_7  and  N_8
REMARK    4  A    between atoms: C_9  and  C_13
REMARK    5  A    between atoms: C_15  and  C_16
REMARK    6  A    between atoms: C_16  and  C_17
REMARK                            x       y       z     vdW  Elec       q    Type
REMARK                         _______ _______ _______ _____ _____    ______ ____
ROOT
ATOM      4  O   UNL     1     -14.408   1.179  29.560  0.00  0.00    -0.274 OA
ATOM      7  N   UNL     1     -15.427   3.248  29.283  0.00  0.00    -0.234 N 
ATOM     13  C   UNL     1     -14.969   2.173  30.016  0.00  0.00    +0.233 C 
ATOM     23  H   UNL     1     -15.864   4.070  29.686  0.00  0.00    +0.173 HD
ENDROOT
BRANCH  13   9
ATOM      6  N   UNL     1     -14.412   4.463  32.058  0.00  0.00    -0.181 NA
ATOM      9  C   UNL     1     -15.258   2.311  31.481  0.00  0.00    +0.093 C 
ATOM     10  C   UNL     1     -14.012   2.112  32.325  0.00  0.00    +0.031 C 
ATOM     11  C   UNL     1     -15.688   3.732  31.824  0.00  0.00    +0.122 C 
ATOM     12  C   UNL     1     -13.328   3.475  32.322  0.00  0.00    +0.110 C 
BRANCH   6   1
ATOM      1  S   UNL     1     -14.465   5.869  33.009  0.00  0.00    +0.029 S 
ATOM      2  O   UNL     1     -15.801   6.433  32.954  0.00  0.00    -0.158 OA
ATOM      3  O   UNL     1     -13.296   6.681  32.731  0.00  0.00    -0.158 OA
ATOM     14  C   UNL     1     -14.251   5.148  34.619  0.00  0.00    +0.215 C 
ENDBRANCH   6   1
ENDBRANCH  13   9
BRANCH   7   8
ATOM      5  O   UNL     1     -17.470   3.813  27.509  0.00  0.00    -0.274 OA
ATOM      8  N   UNL     1     -15.259   3.244  27.921  0.00  0.00    -0.234 N 
ATOM     15  C   UNL     1     -16.339   3.539  27.113  0.00  0.00    +0.233 C 
ATOM     24  H   UNL     1     -14.330   3.025  27.577  0.00  0.00    +0.173 HD
BRANCH  15  16
ATOM     16  C   UNL     1     -15.993   3.514  25.639  0.00  0.00    +0.132 C 
BRANCH  16  17
ATOM     17  C   UNL     1     -16.761   2.445  24.908  0.00  0.00    -0.039 A 
ATOM     18  C   UNL     1     -17.218   2.677  23.610  0.00  0.00    +0.004 A 
ATOM     19  C   UNL     1     -17.016   1.222  25.529  0.00  0.00    +0.004 A 
ATOM     20  C   UNL     1     -17.930   1.687  22.934  0.00  0.00    +0.000 A 
ATOM     21  C   UNL     1     -17.727   0.232  24.852  0.00  0.00    +0.000 A 
ATOM     22  C   UNL     1     -18.184   0.464  23.555  0.00  0.00    +0.000 A 
ENDBRANCH  16  17
ENDBRANCH  15  16
ENDBRANCH   7   8
TORSDOF 5
ENDMDL
