MODEL 1
REMARK VINA RESULT:      -7.2      0.000      0.000
REMARK  Name = 7144061
REMARK  4 active torsions:
REMARK  status: ('A' for Active; 'I' for Inactive)
REMARK    1  A    between atoms: N_2  and  C_14
REMARK    2  A    between atoms: C_14  and  C_19
REMARK    3  A    between atoms: C_17  and  C_20
REMARK    4  A    between atoms: C_23  and  C_28
REMARK                            x       y       z     vdW  Elec       q    Type
REMARK                         _______ _______ _______ _____ _____    ______ ____
ROOT
ATOM      1  O   UNL     1      13.979  11.196  22.742  0.00  0.00    -0.267 OA
ATOM      2  N   UNL     1      13.912   8.118  18.785  0.00  0.00    -0.297 NA
ATOM      3  N   UNL     1      13.633   9.087  21.811  0.00  0.00    -0.311 N 
ATOM      7  C   UNL     1      15.505   7.746  20.685  0.00  0.00    +0.024 C 
ATOM      8  C   UNL     1      13.245   6.811  20.807  0.00  0.00    +0.050 C 
ATOM      9  C   UNL     1      14.708   6.531  21.142  0.00  0.00    +0.017 C 
ATOM     10  C   UNL     1      15.321   7.960  19.169  0.00  0.00    +0.090 C 
ATOM     11  C   UNL     1      13.093   7.002  19.280  0.00  0.00    +0.094 C 
ATOM     12  C   UNL     1      15.066   8.964  21.510  0.00  0.00    +0.130 C 
ATOM     13  C   UNL     1      12.748   8.039  21.548  0.00  0.00    +0.026 A 
ATOM     15  C   UNL     1      11.465   8.127  21.932  0.00  0.00    +0.022 A 
ATOM     16  C   UNL     1      13.221  10.265  22.465  0.00  0.00    +0.259 A 
ATOM     17  C   UNL     1      11.770  10.349  22.852  0.00  0.00    +0.050 A 
ATOM     18  C   UNL     1      10.971   9.305  22.589  0.00  0.00    +0.015 A 
ENDROOT
BRANCH  17  20
ATOM      4  N   UNL     1      10.563  12.725  25.493  0.00  0.00    -0.243 NA
ATOM      5  N   UNL     1      10.336  13.782  23.339  0.00  0.00    -0.243 NA
ATOM     20  C   UNL     1      11.222  11.554  23.502  0.00  0.00    +0.024 A 
ATOM     25  C   UNL     1      11.061  11.639  24.866  0.00  0.00    +0.122 A 
ATOM     26  C   UNL     1      10.840  12.664  22.779  0.00  0.00    +0.122 A 
ATOM     29  C   UNL     1      10.226  13.745  24.681  0.00  0.00    +0.221 A 
ENDBRANCH  17  20
BRANCH   2  14
ATOM     14  C   UNL     1      13.777   8.263  17.337  0.00  0.00    +0.119 C 
BRANCH  14  19
ATOM     19  C   UNL     1      14.012   9.687  16.913  0.00  0.00    -0.032 A 
ATOM     21  C   UNL     1      14.351   9.963  15.595  0.00  0.00    +0.023 A 
ATOM     22  C   UNL     1      13.889  10.708  17.847  0.00  0.00    +0.005 A 
ATOM     23  C   UNL     1      14.569  11.284  15.203  0.00  0.00    +0.052 A 
ATOM     24  C   UNL     1      14.106  12.028  17.455  0.00  0.00    +0.002 A 
ATOM     27  C   UNL     1      14.447  12.317  16.133  0.00  0.00    +0.019 A 
BRANCH  23  28
ATOM      6  N   UNL     1      15.200  11.822  12.749  0.00  0.00    -0.191 NA
ATOM     28  C   UNL     1      14.917  11.580  13.849  0.00  0.00    +0.099 C 
ENDBRANCH  23  28
ENDBRANCH  14  19
ENDBRANCH   2  14
TORSDOF 4
ENDMDL
MODEL 2
REMARK VINA RESULT:      -7.0     27.090     29.383
REMARK  Name = 7144061
REMARK  4 active torsions:
REMARK  status: ('A' for Active; 'I' for Inactive)
REMARK    1  A    between atoms: N_2  and  C_14
REMARK    2  A    between atoms: C_14  and  C_19
REMARK    3  A    between atoms: C_17  and  C_20
REMARK    4  A    between atoms: C_23  and  C_28
REMARK                            x       y       z     vdW  Elec       q    Type
REMARK                         _______ _______ _______ _____ _____    ______ ____
ROOT
ATOM      1  O   UNL     1      -6.081 -11.756  10.910  0.00  0.00    -0.267 OA
ATOM      2  N   UNL     1      -3.211 -11.148  14.977  0.00  0.00    -0.297 NA
ATOM      3  N   UNL     1      -3.984 -11.678  11.928  0.00  0.00    -0.311 N 
ATOM      7  C   UNL     1      -3.266 -13.334  13.749  0.00  0.00    +0.024 C 
ATOM      8  C   UNL     1      -1.719 -11.581  13.021  0.00  0.00    +0.050 C 
ATOM      9  C   UNL     1      -1.863 -13.089  13.210  0.00  0.00    +0.017 C 
ATOM     10  C   UNL     1      -3.456 -12.592  15.088  0.00  0.00    +0.090 C 
ATOM     11  C   UNL     1      -1.895 -10.871  14.383  0.00  0.00    +0.094 C 
ATOM     12  C   UNL     1      -4.286 -12.900  12.686  0.00  0.00    +0.130 C 
ATOM     13  C   UNL     1      -2.733 -11.065  12.018  0.00  0.00    +0.026 A 
ATOM     15  C   UNL     1      -2.439 -10.015  11.233  0.00  0.00    +0.022 A 
ATOM     16  C   UNL     1      -4.978 -11.221  11.040  0.00  0.00    +0.259 A 
ATOM     17  C   UNL     1      -4.632 -10.022  10.199  0.00  0.00    +0.050 A 
ATOM     18  C   UNL     1      -3.408  -9.485  10.316  0.00  0.00    +0.015 A 
ENDROOT
BRANCH  17  20
ATOM      4  N   UNL     1      -7.406  -7.896   8.836  0.00  0.00    -0.243 NA
ATOM      5  N   UNL     1      -6.580  -9.315   7.072  0.00  0.00    -0.243 NA
ATOM     20  C   UNL     1      -5.612  -9.434   9.268  0.00  0.00    +0.024 A 
ATOM     25  C   UNL     1      -6.497  -8.456   9.661  0.00  0.00    +0.122 A 
ATOM     26  C   UNL     1      -5.697  -9.831   7.951  0.00  0.00    +0.122 A 
ATOM     29  C   UNL     1      -7.393  -8.365   7.574  0.00  0.00    +0.221 A 
ENDBRANCH  17  20
BRANCH   2  14
ATOM     14  C   UNL     1      -3.347 -10.492  16.276  0.00  0.00    +0.119 C 
BRANCH  14  19
ATOM     19  C   UNL     1      -4.791 -10.398  16.685  0.00  0.00    -0.032 A 
ATOM     21  C   UNL     1      -5.230 -11.077  17.813  0.00  0.00    +0.023 A 
ATOM     22  C   UNL     1      -5.668  -9.633  15.927  0.00  0.00    +0.005 A 
ATOM     23  C   UNL     1      -6.570 -10.989  18.191  0.00  0.00    +0.052 A 
ATOM     24  C   UNL     1      -7.007  -9.544  16.306  0.00  0.00    +0.002 A 
ATOM     27  C   UNL     1      -7.459 -10.223  17.437  0.00  0.00    +0.019 A 
BRANCH  23  28
ATOM      6  N   UNL     1      -7.410 -12.247  20.294  0.00  0.00    -0.191 NA
ATOM     28  C   UNL     1      -7.033 -11.684  19.351  0.00  0.00    +0.099 C 
ENDBRANCH  23  28
ENDBRANCH  14  19
ENDBRANCH   2  14
TORSDOF 4
ENDMDL
MODEL 3
REMARK VINA RESULT:      -6.8     25.326     27.248
REMARK  Name = 7144061
REMARK  4 active torsions:
REMARK  status: ('A' for Active; 'I' for Inactive)
REMARK    1  A    between atoms: N_2  and  C_14
REMARK    2  A    between atoms: C_14  and  C_19
REMARK    3  A    between atoms: C_17  and  C_20
REMARK    4  A    between atoms: C_23  and  C_28
REMARK                            x       y       z     vdW  Elec       q    Type
REMARK                         _______ _______ _______ _____ _____    ______ ____
ROOT
ATOM      1  O   UNL     1     -15.012   8.850  20.485  0.00  0.00    -0.267 OA
ATOM      2  N   UNL     1     -11.645   9.233  16.789  0.00  0.00    -0.297 NA
ATOM      3  N   UNL     1     -12.810   9.079  19.755  0.00  0.00    -0.311 N 
ATOM      7  C   UNL     1     -11.999  11.109  18.415  0.00  0.00    +0.024 C 
ATOM      8  C   UNL     1     -10.429   9.313  18.970  0.00  0.00    +0.050 C 
ATOM      9  C   UNL     1     -10.656  10.819  19.072  0.00  0.00    +0.017 C 
ATOM     10  C   UNL     1     -11.976  10.655  16.940  0.00  0.00    +0.090 C 
ATOM     11  C   UNL     1     -10.393   8.896  17.482  0.00  0.00    +0.094 C 
ATOM     12  C   UNL     1     -13.104  10.418  19.226  0.00  0.00    +0.130 C 
ATOM     13  C   UNL     1     -11.516   8.554  19.708  0.00  0.00    +0.026 A 
ATOM     15  C   UNL     1     -11.244   7.378  20.296  0.00  0.00    +0.022 A 
ATOM     16  C   UNL     1     -13.867   8.403  20.395  0.00  0.00    +0.259 A 
ATOM     17  C   UNL     1     -13.539   7.071  21.015  0.00  0.00    +0.050 A 
ATOM     18  C   UNL     1     -12.276   6.626  20.953  0.00  0.00    +0.015 A 
ENDROOT
BRANCH  17  20
ATOM      4  N   UNL     1     -15.616   5.437  23.677  0.00  0.00    -0.243 NA
ATOM      5  N   UNL     1     -16.474   4.791  21.520  0.00  0.00    -0.243 NA
ATOM     20  C   UNL     1     -14.579   6.259  21.672  0.00  0.00    +0.024 A 
ATOM     25  C   UNL     1     -14.678   6.170  23.042  0.00  0.00    +0.122 A 
ATOM     26  C   UNL     1     -15.510   5.543  20.952  0.00  0.00    +0.122 A 
ATOM     29  C   UNL     1     -16.470   4.782  22.867  0.00  0.00    +0.221 A 
ENDBRANCH  17  20
BRANCH   2  14
ATOM     14  C   UNL     1     -11.579   8.857  15.379  0.00  0.00    +0.119 C 
BRANCH  14  19
ATOM     19  C   UNL     1     -12.858   8.201  14.934  0.00  0.00    -0.032 A 
ATOM     21  C   UNL     1     -13.947   8.168  15.794  0.00  0.00    +0.023 A 
ATOM     22  C   UNL     1     -12.931   7.634  13.668  0.00  0.00    +0.005 A 
ATOM     23  C   UNL     1     -15.132   7.560  15.381  0.00  0.00    +0.052 A 
ATOM     24  C   UNL     1     -14.116   7.027  13.255  0.00  0.00    +0.002 A 
ATOM     27  C   UNL     1     -15.216   6.988  14.111  0.00  0.00    +0.019 A 
BRANCH  23  28
ATOM      6  N   UNL     1     -17.177   7.488  16.970  0.00  0.00    -0.191 NA
ATOM     28  C   UNL     1     -16.260   7.521  16.257  0.00  0.00    +0.099 C 
ENDBRANCH  23  28
ENDBRANCH  14  19
ENDBRANCH   2  14
TORSDOF 4
ENDMDL
MODEL 4
REMARK VINA RESULT:      -6.7     22.511     24.617
REMARK  Name = 7144061
REMARK  4 active torsions:
REMARK  status: ('A' for Active; 'I' for Inactive)
REMARK    1  A    between atoms: N_2  and  C_14
REMARK    2  A    between atoms: C_14  and  C_19
REMARK    3  A    between atoms: C_17  and  C_20
REMARK    4  A    between atoms: C_23  and  C_28
REMARK                            x       y       z     vdW  Elec       q    Type
REMARK                         _______ _______ _______ _____ _____    ______ ____
ROOT
ATOM      1  O   UNL     1      -6.644   9.646   5.249  0.00  0.00    -0.267 OA
ATOM      2  N   UNL     1      -1.883  10.431   3.884  0.00  0.00    -0.297 NA
ATOM      3  N   UNL     1      -4.360   9.271   5.526  0.00  0.00    -0.311 N 
ATOM      7  C   UNL     1      -2.715  11.138   6.142  0.00  0.00    +0.024 C 
ATOM      8  C   UNL     1      -1.895   8.852   5.820  0.00  0.00    +0.050 C 
ATOM      9  C   UNL     1      -1.923  10.018   6.805  0.00  0.00    +0.017 C 
ATOM     10  C   UNL     1      -2.037  11.553   4.819  0.00  0.00    +0.090 C 
ATOM     11  C   UNL     1      -1.195   9.296   4.516  0.00  0.00    +0.094 C 
ATOM     12  C   UNL     1      -4.162  10.667   5.940  0.00  0.00    +0.130 C 
ATOM     13  C   UNL     1      -3.300   8.361   5.528  0.00  0.00    +0.026 A 
ATOM     15  C   UNL     1      -3.524   7.065   5.254  0.00  0.00    +0.022 A 
ATOM     16  C   UNL     1      -5.680   8.879   5.229  0.00  0.00    +0.259 A 
ATOM     17  C   UNL     1      -5.894   7.428   4.892  0.00  0.00    +0.050 A 
ATOM     18  C   UNL     1      -4.841   6.597   4.926  0.00  0.00    +0.015 A 
ENDROOT
BRANCH  17  20
ATOM      4  N   UNL     1      -9.079   5.447   4.942  0.00  0.00    -0.243 NA
ATOM      5  N   UNL     1      -9.133   6.953   3.061  0.00  0.00    -0.243 NA
ATOM     20  C   UNL     1      -7.227   6.918   4.523  0.00  0.00    +0.024 A 
ATOM     25  C   UNL     1      -7.861   5.937   5.251  0.00  0.00    +0.122 A 
ATOM     26  C   UNL     1      -7.913   7.395   3.427  0.00  0.00    +0.122 A 
ATOM     29  C   UNL     1      -9.650   5.992   3.850  0.00  0.00    +0.221 A 
ENDBRANCH  17  20
BRANCH   2  14
ATOM     14  C   UNL     1      -1.190  10.853   2.669  0.00  0.00    +0.119 C 
BRANCH  14  19
ATOM     19  C   UNL     1      -1.865  10.303   1.443  0.00  0.00    -0.032 A 
ATOM     21  C   UNL     1      -3.222  10.526   1.249  0.00  0.00    +0.023 A 
ATOM     22  C   UNL     1      -1.122   9.578   0.521  0.00  0.00    +0.005 A 
ATOM     23  C   UNL     1      -3.847  10.015   0.111  0.00  0.00    +0.052 A 
ATOM     24  C   UNL     1      -1.747   9.068  -0.617  0.00  0.00    +0.002 A 
ATOM     27  C   UNL     1      -3.109   9.286  -0.822  0.00  0.00    +0.019 A 
BRANCH  23  28
ATOM      6  N   UNL     1      -6.377  10.421  -0.272  0.00  0.00    -0.191 NA
ATOM     28  C   UNL     1      -5.243  10.239  -0.100  0.00  0.00    +0.099 C 
ENDBRANCH  23  28
ENDBRANCH  14  19
ENDBRANCH   2  14
TORSDOF 4
ENDMDL
MODEL 5
REMARK VINA RESULT:      -6.4     14.665     18.766
REMARK  Name = 7144061
REMARK  4 active torsions:
REMARK  status: ('A' for Active; 'I' for Inactive)
REMARK    1  A    between atoms: N_2  and  C_14
REMARK    2  A    between atoms: C_14  and  C_19
REMARK    3  A    between atoms: C_17  and  C_20
REMARK    4  A    between atoms: C_23  and  C_28
REMARK                            x       y       z     vdW  Elec       q    Type
REMARK                         _______ _______ _______ _____ _____    ______ ____
ROOT
ATOM      1  O   UNL     1      10.327   4.079   2.981  0.00  0.00    -0.267 OA
ATOM      2  N   UNL     1       9.195   8.122   5.723  0.00  0.00    -0.297 NA
ATOM      3  N   UNL     1      10.895   5.675   4.583  0.00  0.00    -0.311 N 
ATOM      7  C   UNL     1       9.646   5.907   6.810  0.00  0.00    +0.024 C 
ATOM      8  C   UNL     1      11.517   7.405   6.303  0.00  0.00    +0.050 C 
ATOM      9  C   UNL     1      10.981   6.415   7.336  0.00  0.00    +0.017 C 
ATOM     10  C   UNL     1       8.668   7.086   6.621  0.00  0.00    +0.090 C 
ATOM     11  C   UNL     1      10.524   8.580   6.153  0.00  0.00    +0.094 C 
ATOM     12  C   UNL     1       9.891   5.131   5.508  0.00  0.00    +0.130 C 
ATOM     13  C   UNL     1      11.737   6.721   4.967  0.00  0.00    +0.026 A 
ATOM     15  C   UNL     1      12.721   7.128   4.150  0.00  0.00    +0.022 A 
ATOM     16  C   UNL     1      11.030   5.025   3.340  0.00  0.00    +0.259 A 
ATOM     17  C   UNL     1      12.119   5.527   2.432  0.00  0.00    +0.050 A 
ATOM     18  C   UNL     1      12.908   6.523   2.861  0.00  0.00    +0.015 A 
ENDROOT
BRANCH  17  20
ATOM      4  N   UNL     1      13.335   3.299  -0.330  0.00  0.00    -0.243 NA
ATOM      5  N   UNL     1      11.875   4.970  -1.270  0.00  0.00    -0.243 NA
ATOM     20  C   UNL     1      12.321   4.949   1.091  0.00  0.00    +0.024 A 
ATOM     25  C   UNL     1      13.128   3.853   0.882  0.00  0.00    +0.122 A 
ATOM     26  C   UNL     1      11.714   5.473  -0.029  0.00  0.00    +0.122 A 
ATOM     29  C   UNL     1      12.688   3.898  -1.348  0.00  0.00    +0.221 A 
ENDBRANCH  17  20
BRANCH   2  14
ATOM     14  C   UNL     1       8.265   9.243   5.614  0.00  0.00    +0.119 C 
BRANCH  14  19
ATOM     19  C   UNL     1       7.709   9.351   4.220  0.00  0.00    -0.032 A 
ATOM     21  C   UNL     1       6.441   9.883   4.027  0.00  0.00    +0.023 A 
ATOM     22  C   UNL     1       8.472   8.916   3.145  0.00  0.00    +0.005 A 
ATOM     23  C   UNL     1       5.927   9.982   2.734  0.00  0.00    +0.052 A 
ATOM     24  C   UNL     1       7.958   9.017   1.852  0.00  0.00    +0.002 A 
ATOM     27  C   UNL     1       6.686   9.549   1.646  0.00  0.00    +0.019 A 
BRANCH  23  28
ATOM      6  N   UNL     1       3.564  10.971   2.350  0.00  0.00    -0.191 NA
ATOM     28  C   UNL     1       4.623  10.528   2.522  0.00  0.00    +0.099 C 
ENDBRANCH  23  28
ENDBRANCH  14  19
ENDBRANCH   2  14
TORSDOF 4
ENDMDL
MODEL 6
REMARK VINA RESULT:      -6.4     14.785     18.735
REMARK  Name = 7144061
REMARK  4 active torsions:
REMARK  status: ('A' for Active; 'I' for Inactive)
REMARK    1  A    between atoms: N_2  and  C_14
REMARK    2  A    between atoms: C_14  and  C_19
REMARK    3  A    between atoms: C_17  and  C_20
REMARK    4  A    between atoms: C_23  and  C_28
REMARK                            x       y       z     vdW  Elec       q    Type
REMARK                         _______ _______ _______ _____ _____    ______ ____
ROOT
ATOM      1  O   UNL     1      10.550   4.105   2.832  0.00  0.00    -0.267 OA
ATOM      2  N   UNL     1       8.981   7.982   5.596  0.00  0.00    -0.297 NA
ATOM      3  N   UNL     1      10.884   5.646   4.548  0.00  0.00    -0.311 N 
ATOM      7  C   UNL     1       9.397   5.738   6.635  0.00  0.00    +0.024 C 
ATOM      8  C   UNL     1      11.253   7.318   6.394  0.00  0.00    +0.050 C 
ATOM      9  C   UNL     1      10.649   6.267   7.322  0.00  0.00    +0.017 C 
ATOM     10  C   UNL     1       8.401   6.891   6.390  0.00  0.00    +0.090 C 
ATOM     11  C   UNL     1      10.238   8.465   6.185  0.00  0.00    +0.094 C 
ATOM     12  C   UNL     1       9.808   5.029   5.337  0.00  0.00    +0.130 C 
ATOM     13  C   UNL     1      11.640   6.702   5.063  0.00  0.00    +0.026 A 
ATOM     15  C   UNL     1      12.690   7.178   4.373  0.00  0.00    +0.022 A 
ATOM     16  C   UNL     1      11.175   5.057   3.302  0.00  0.00    +0.259 A 
ATOM     17  C   UNL     1      12.335   5.635   2.537  0.00  0.00    +0.050 A 
ATOM     18  C   UNL     1      13.035   6.637   3.089  0.00  0.00    +0.015 A 
ENDROOT
BRANCH  17  20
ATOM      4  N   UNL     1      12.487   5.215  -1.187  0.00  0.00    -0.243 NA
ATOM      5  N   UNL     1      13.945   3.591  -0.165  0.00  0.00    -0.243 NA
ATOM     20  C   UNL     1      12.700   5.124   1.203  0.00  0.00    +0.024 A 
ATOM     25  C   UNL     1      12.175   5.657   0.048  0.00  0.00    +0.122 A 
ATOM     26  C   UNL     1      13.588   4.083   1.038  0.00  0.00    +0.122 A 
ATOM     29  C   UNL     1      13.365   4.194  -1.221  0.00  0.00    +0.221 A 
ENDBRANCH  17  20
BRANCH   2  14
ATOM     14  C   UNL     1       8.026   9.076   5.433  0.00  0.00    +0.119 C 
BRANCH  14  19
ATOM     19  C   UNL     1       7.640   9.245   3.989  0.00  0.00    -0.032 A 
ATOM     21  C   UNL     1       8.512   8.831   2.993  0.00  0.00    +0.023 A 
ATOM     22  C   UNL     1       6.414   9.817   3.672  0.00  0.00    +0.005 A 
ATOM     23  C   UNL     1       8.153   8.989   1.654  0.00  0.00    +0.052 A 
ATOM     24  C   UNL     1       6.055   9.974   2.334  0.00  0.00    +0.002 A 
ATOM     27  C   UNL     1       6.924   9.561   1.325  0.00  0.00    +0.019 A 
BRANCH  23  28
ATOM      6  N   UNL     1       9.765   8.220  -0.222  0.00  0.00    -0.191 NA
ATOM     28  C   UNL     1       9.043   8.565   0.619  0.00  0.00    +0.099 C 
ENDBRANCH  23  28
ENDBRANCH  14  19
ENDBRANCH   2  14
TORSDOF 4
ENDMDL
MODEL 7
REMARK VINA RESULT:      -6.3     23.229     26.216
REMARK  Name = 7144061
REMARK  4 active torsions:
REMARK  status: ('A' for Active; 'I' for Inactive)
REMARK    1  A    between atoms: N_2  and  C_14
REMARK    2  A    between atoms: C_14  and  C_19
REMARK    3  A    between atoms: C_17  and  C_20
REMARK    4  A    between atoms: C_23  and  C_28
REMARK                            x       y       z     vdW  Elec       q    Type
REMARK                         _______ _______ _______ _____ _____    ______ ____
ROOT
ATOM      1  O   UNL     1       8.839 -12.184  31.978  0.00  0.00    -0.267 OA
ATOM      2  N   UNL     1       6.760  -8.700  34.923  0.00  0.00    -0.297 NA
ATOM      3  N   UNL     1       8.324  -9.959  32.445  0.00  0.00    -0.311 N 
ATOM      7  C   UNL     1       9.232  -8.731  34.505  0.00  0.00    +0.024 C 
ATOM      8  C   UNL     1       7.759  -7.556  32.940  0.00  0.00    +0.050 C 
ATOM      9  C   UNL     1       9.119  -7.489  33.630  0.00  0.00    +0.017 C 
ATOM     10  C   UNL     1       8.090  -8.753  35.543  0.00  0.00    +0.090 C 
ATOM     11  C   UNL     1       6.639  -7.558  34.006  0.00  0.00    +0.094 C 
ATOM     12  C   UNL     1       9.231  -9.973  33.602  0.00  0.00    +0.130 C 
ATOM     13  C   UNL     1       7.660  -8.791  32.064  0.00  0.00    +0.026 A 
ATOM     15  C   UNL     1       6.925  -8.770  30.941  0.00  0.00    +0.022 A 
ATOM     16  C   UNL     1       8.242 -11.145  31.690  0.00  0.00    +0.259 A 
ATOM     17  C   UNL     1       7.383 -11.101  30.455  0.00  0.00    +0.050 A 
ATOM     18  C   UNL     1       6.782  -9.947  30.130  0.00  0.00    +0.015 A 
ENDROOT
BRANCH  17  20
ATOM      4  N   UNL     1       5.983 -14.312  29.114  0.00  0.00    -0.243 NA
ATOM      5  N   UNL     1       7.856 -13.654  27.748  0.00  0.00    -0.243 NA
ATOM     20  C   UNL     1       7.190 -12.297  29.616  0.00  0.00    +0.024 A 
ATOM     25  C   UNL     1       6.188 -13.208  29.861  0.00  0.00    +0.122 A 
ATOM     26  C   UNL     1       8.003 -12.571  28.538  0.00  0.00    +0.122 A 
ATOM     29  C   UNL     1       6.841 -14.472  28.088  0.00  0.00    +0.221 A 
ENDBRANCH  17  20
BRANCH   2  14
ATOM     14  C   UNL     1       5.710  -8.668  35.940  0.00  0.00    +0.119 C 
BRANCH  14  19
ATOM     19  C   UNL     1       4.634  -9.674  35.637  0.00  0.00    -0.032 A 
ATOM     21  C   UNL     1       4.927 -10.773  34.842  0.00  0.00    +0.023 A 
ATOM     22  C   UNL     1       3.359  -9.488  36.157  0.00  0.00    +0.005 A 
ATOM     23  C   UNL     1       3.927 -11.705  34.562  0.00  0.00    +0.052 A 
ATOM     24  C   UNL     1       2.361 -10.421  35.878  0.00  0.00    +0.002 A 
ATOM     27  C   UNL     1       2.644 -11.529  35.080  0.00  0.00    +0.019 A 
BRANCH  23  28
ATOM      6  N   UNL     1       4.452 -13.766  33.083  0.00  0.00    -0.191 NA
ATOM     28  C   UNL     1       4.217 -12.842  33.746  0.00  0.00    +0.099 C 
ENDBRANCH  23  28
ENDBRANCH  14  19
ENDBRANCH   2  14
TORSDOF 4
ENDMDL
MODEL 8
REMARK VINA RESULT:      -6.2     28.011     30.409
REMARK  Name = 7144061
REMARK  4 active torsions:
REMARK  status: ('A' for Active; 'I' for Inactive)
REMARK    1  A    between atoms: N_2  and  C_14
REMARK    2  A    between atoms: C_14  and  C_19
REMARK    3  A    between atoms: C_17  and  C_20
REMARK    4  A    between atoms: C_23  and  C_28
REMARK                            x       y       z     vdW  Elec       q    Type
REMARK                         _______ _______ _______ _____ _____    ______ ____
ROOT
ATOM      1  O   UNL     1      -5.963 -13.175  15.860  0.00  0.00    -0.267 OA
ATOM      2  N   UNL     1     -10.013 -11.754  18.452  0.00  0.00    -0.297 NA
ATOM      3  N   UNL     1      -7.044 -12.771  17.886  0.00  0.00    -0.311 N 
ATOM      7  C   UNL     1      -9.112 -14.086  18.639  0.00  0.00    +0.024 C 
ATOM      8  C   UNL     1      -8.203 -12.323  20.076  0.00  0.00    +0.050 C 
ATOM      9  C   UNL     1      -8.601 -13.797  20.044  0.00  0.00    +0.017 C 
ATOM     10  C   UNL     1     -10.322 -13.183  18.319  0.00  0.00    +0.090 C 
ATOM     11  C   UNL     1      -9.440 -11.448  19.770  0.00  0.00    +0.094 C 
ATOM     12  C   UNL     1      -7.957 -13.897  17.645  0.00  0.00    +0.130 C 
ATOM     13  C   UNL     1      -7.095 -12.044  19.078  0.00  0.00    +0.026 A 
ATOM     15  C   UNL     1      -6.180 -11.093  19.327  0.00  0.00    +0.022 A 
ATOM     16  C   UNL     1      -6.059 -12.532  16.908  0.00  0.00    +0.259 A 
ATOM     17  C   UNL     1      -5.069 -11.437  17.199  0.00  0.00    +0.050 A 
ATOM     18  C   UNL     1      -5.158 -10.784  18.367  0.00  0.00    +0.015 A 
ENDROOT
BRANCH  17  20
ATOM      4  N   UNL     1      -3.391 -10.415  14.004  0.00  0.00    -0.243 NA
ATOM      5  N   UNL     1      -1.707 -10.707  15.704  0.00  0.00    -0.243 NA
ATOM     20  C   UNL     1      -4.023 -11.074  16.226  0.00  0.00    +0.024 A 
ATOM     25  C   UNL     1      -4.321 -10.752  14.921  0.00  0.00    +0.122 A 
ATOM     26  C   UNL     1      -2.689 -11.035  16.567  0.00  0.00    +0.122 A 
ATOM     29  C   UNL     1      -2.122 -10.413  14.456  0.00  0.00    +0.221 A 
ENDBRANCH  17  20
BRANCH   2  14
ATOM     14  C   UNL     1     -11.197 -10.937  18.194  0.00  0.00    +0.119 C 
BRANCH  14  19
ATOM     19  C   UNL     1     -10.830  -9.659  17.491  0.00  0.00    -0.032 A 
ATOM     21  C   UNL     1     -11.831  -8.844  16.981  0.00  0.00    +0.023 A 
ATOM     22  C   UNL     1      -9.491  -9.312  17.359  0.00  0.00    +0.005 A 
ATOM     23  C   UNL     1     -11.489  -7.659  16.329  0.00  0.00    +0.052 A 
ATOM     24  C   UNL     1      -9.149  -8.127  16.708  0.00  0.00    +0.002 A 
ATOM     27  C   UNL     1     -10.148  -7.301  16.192  0.00  0.00    +0.019 A 
BRANCH  23  28
ATOM      6  N   UNL     1     -13.343  -6.123  15.373  0.00  0.00    -0.191 NA
ATOM     28  C   UNL     1     -12.512  -6.812  15.801  0.00  0.00    +0.099 C 
ENDBRANCH  23  28
ENDBRANCH  14  19
ENDBRANCH   2  14
TORSDOF 4
ENDMDL
MODEL 9
REMARK VINA RESULT:      -6.2     26.835     28.734
REMARK  Name = 7144061
REMARK  4 active torsions:
REMARK  status: ('A' for Active; 'I' for Inactive)
REMARK    1  A    between atoms: N_2  and  C_14
REMARK    2  A    between atoms: C_14  and  C_19
REMARK    3  A    between atoms: C_17  and  C_20
REMARK    4  A    between atoms: C_23  and  C_28
REMARK                            x       y       z     vdW  Elec       q    Type
REMARK                         _______ _______ _______ _____ _____    ______ ____
ROOT
ATOM      1  O   UNL     1      -4.591 -10.188  17.503  0.00  0.00    -0.267 OA
ATOM      2  N   UNL     1      -3.211 -10.717  12.712  0.00  0.00    -0.297 NA
ATOM      3  N   UNL     1      -3.806 -11.503  15.745  0.00  0.00    -0.311 N 
ATOM      7  C   UNL     1      -1.568 -11.058  14.575  0.00  0.00    +0.024 C 
ATOM      8  C   UNL     1      -2.970 -12.930  13.847  0.00  0.00    +0.050 C 
ATOM      9  C   UNL     1      -1.569 -12.561  14.327  0.00  0.00    +0.017 C 
ATOM     10  C   UNL     1      -1.918 -10.306  13.274  0.00  0.00    +0.090 C 
ATOM     11  C   UNL     1      -3.280 -12.175  12.534  0.00  0.00    +0.094 C 
ATOM     12  C   UNL     1      -2.547 -10.746  15.717  0.00  0.00    +0.130 C 
ATOM     13  C   UNL     1      -4.006 -12.601  14.905  0.00  0.00    +0.026 A 
ATOM     15  C   UNL     1      -5.116 -13.347  15.025  0.00  0.00    +0.022 A 
ATOM     16  C   UNL     1      -4.748 -11.130  16.724  0.00  0.00    +0.259 A 
ATOM     17  C   UNL     1      -5.998 -11.964  16.810  0.00  0.00    +0.050 A 
ATOM     18  C   UNL     1      -6.127 -13.016  15.989  0.00  0.00    +0.015 A 
ENDROOT
BRANCH  17  20
ATOM      4  N   UNL     1      -8.064 -11.888  19.940  0.00  0.00    -0.243 NA
ATOM      5  N   UNL     1      -9.097 -10.461  18.295  0.00  0.00    -0.243 NA
ATOM     20  C   UNL     1      -7.070 -11.637  17.768  0.00  0.00    +0.024 A 
ATOM     25  C   UNL     1      -7.100 -12.165  19.038  0.00  0.00    +0.122 A 
ATOM     26  C   UNL     1      -8.101 -10.782  17.445  0.00  0.00    +0.122 A 
ATOM     29  C   UNL     1      -9.018 -11.040  19.508  0.00  0.00    +0.221 A 
ENDBRANCH  17  20
BRANCH   2  14
ATOM     14  C   UNL     1      -3.479 -10.024  11.454  0.00  0.00    +0.119 C 
BRANCH  14  19
ATOM     19  C   UNL     1      -4.938  -9.682  11.325  0.00  0.00    -0.032 A 
ATOM     21  C   UNL     1      -5.437  -9.252  10.103  0.00  0.00    +0.023 A 
ATOM     22  C   UNL     1      -5.768  -9.802  12.432  0.00  0.00    +0.005 A 
ATOM     23  C   UNL     1      -6.790  -8.935   9.985  0.00  0.00    +0.052 A 
ATOM     24  C   UNL     1      -7.121  -9.486  12.314  0.00  0.00    +0.002 A 
ATOM     27  C   UNL     1      -7.632  -9.052  11.091  0.00  0.00    +0.019 A 
BRANCH  23  28
ATOM      6  N   UNL     1      -7.742  -8.130   7.714  0.00  0.00    -0.191 NA
ATOM     28  C   UNL     1      -7.315  -8.491   8.732  0.00  0.00    +0.099 C 
ENDBRANCH  23  28
ENDBRANCH  14  19
ENDBRANCH   2  14
TORSDOF 4
ENDMDL
MODEL 10
REMARK VINA RESULT:      -6.1     23.040     26.750
REMARK  Name = 7144061
REMARK  4 active torsions:
REMARK  status: ('A' for Active; 'I' for Inactive)
REMARK    1  A    between atoms: N_2  and  C_14
REMARK    2  A    between atoms: C_14  and  C_19
REMARK    3  A    between atoms: C_17  and  C_20
REMARK    4  A    between atoms: C_23  and  C_28
REMARK                            x       y       z     vdW  Elec       q    Type
REMARK                         _______ _______ _______ _____ _____    ______ ____
ROOT
ATOM      1  O   UNL     1      -5.427   8.583  37.917  0.00  0.00    -0.267 OA
ATOM      2  N   UNL     1      -0.810   7.046  39.126  0.00  0.00    -0.297 NA
ATOM      3  N   UNL     1      -3.227   9.042  38.538  0.00  0.00    -0.311 N 
ATOM      7  C   UNL     1      -1.218   8.424  37.071  0.00  0.00    +0.024 C 
ATOM      8  C   UNL     1      -0.856   9.542  39.220  0.00  0.00    +0.050 C 
ATOM      9  C   UNL     1      -0.557   9.630  37.725  0.00  0.00    +0.017 C 
ATOM     10  C   UNL     1      -0.648   7.120  37.668  0.00  0.00    +0.090 C 
ATOM     11  C   UNL     1      -0.257   8.235  39.789  0.00  0.00    +0.094 C 
ATOM     12  C   UNL     1      -2.738   8.537  37.247  0.00  0.00    +0.130 C 
ATOM     13  C   UNL     1      -2.351   9.595  39.474  0.00  0.00    +0.026 A 
ATOM     15  C   UNL     1      -2.829  10.152  40.598  0.00  0.00    +0.022 A 
ATOM     16  C   UNL     1      -4.622   9.032  38.735  0.00  0.00    +0.259 A 
ATOM     17  C   UNL     1      -5.126   9.633  40.019  0.00  0.00    +0.050 A 
ATOM     18  C   UNL     1      -4.238  10.163  40.874  0.00  0.00    +0.015 A 
ENDROOT
BRANCH  17  20
ATOM      4  N   UNL     1      -8.431   8.671  41.510  0.00  0.00    -0.243 NA
ATOM      5  N   UNL     1      -8.746  10.611  40.115  0.00  0.00    -0.243 NA
ATOM     20  C   UNL     1      -6.563   9.636  40.349  0.00  0.00    +0.024 A 
ATOM     25  C   UNL     1      -7.122   8.699  41.188  0.00  0.00    +0.122 A 
ATOM     26  C   UNL     1      -7.428  10.578  39.835  0.00  0.00    +0.122 A 
ATOM     29  C   UNL     1      -9.176   9.643  40.947  0.00  0.00    +0.221 A 
ENDBRANCH  17  20
BRANCH   2  14
ATOM     14  C   UNL     1      -0.211   5.824  39.658  0.00  0.00    +0.119 C 
BRANCH  14  19
ATOM     19  C   UNL     1      -0.821   5.454  40.982  0.00  0.00    -0.032 A 
ATOM     21  C   UNL     1      -2.203   5.436  41.119  0.00  0.00    +0.023 A 
ATOM     22  C   UNL     1       0.006   5.137  42.051  0.00  0.00    +0.005 A 
ATOM     23  C   UNL     1      -2.768   5.093  42.347  0.00  0.00    +0.052 A 
ATOM     24  C   UNL     1      -0.559   4.794  43.279  0.00  0.00    +0.002 A 
ATOM     27  C   UNL     1      -1.945   4.772  43.428  0.00  0.00    +0.019 A 
BRANCH  23  28
ATOM      6  N   UNL     1      -5.343   5.050  42.624  0.00  0.00    -0.191 NA
ATOM     28  C   UNL     1      -4.188   5.070  42.500  0.00  0.00    +0.099 C 
ENDBRANCH  23  28
ENDBRANCH  14  19
ENDBRANCH   2  14
TORSDOF 4
ENDMDL
