MODEL 1
REMARK VINA RESULT:      -6.5      0.000      0.000
REMARK  Name = 7113396
REMARK  9 active torsions:
REMARK  status: ('A' for Active; 'I' for Inactive)
REMARK    1  A    between atoms: O_6  and  C_23
REMARK    2  A    between atoms: O_6  and  C_36
REMARK    3  A    between atoms: N_10  and  C_19
REMARK    4  A    between atoms: C_12  and  C_16
REMARK    5  A    between atoms: C_17  and  C_21
REMARK    6  A    between atoms: C_18  and  C_22
REMARK    7  A    between atoms: C_19  and  C_20
REMARK    8  A    between atoms: C_19  and  C_23
REMARK    9  A    between atoms: C_20  and  C_24
REMARK                            x       y       z     vdW  Elec       q    Type
REMARK                         _______ _______ _______ _____ _____    ______ ____
ROOT
ATOM      4  O   UNL     1      -5.645 -12.892  10.369  0.00  0.00    -0.269 OA
ATOM      5  O   UNL     1     -11.128 -11.253  14.068  0.00  0.00    -0.270 OA
ATOM      8  N   UNL     1      -6.850 -11.402  11.681  0.00  0.00    -0.283 N 
ATOM      9  N   UNL     1      -9.169 -10.482  13.051  0.00  0.00    -0.294 N 
ATOM     12  C   UNL     1      -6.701 -10.428  12.779  0.00  0.00    +0.179 C 
ATOM     13  C   UNL     1      -7.976  -9.626  13.045  0.00  0.00    +0.140 C 
ATOM     14  C   UNL     1      -8.084 -12.199  11.684  0.00  0.00    +0.128 C 
ATOM     15  C   UNL     1      -9.315 -11.324  11.868  0.00  0.00    +0.127 C 
ATOM     17  C   UNL     1      -5.829 -11.740  10.765  0.00  0.00    +0.254 C 
ATOM     18  C   UNL     1     -10.127 -10.539  14.065  0.00  0.00    +0.247 C 
ENDROOT
BRANCH  18  22
ATOM      2  F   UNL     1     -10.844  -6.337  16.365  0.00  0.00    -0.205 F 
ATOM     22  C   UNL     1      -9.945  -9.673  15.237  0.00  0.00    +0.040 A 
ATOM     26  C   UNL     1     -10.492  -8.392  15.242  0.00  0.00    +0.051 A 
ATOM     27  C   UNL     1      -9.228 -10.137  16.336  0.00  0.00    +0.013 A 
ATOM     31  C   UNL     1     -10.319  -7.569  16.355  0.00  0.00    +0.124 A 
ATOM     32  C   UNL     1      -9.056  -9.314  17.449  0.00  0.00    +0.004 A 
ATOM     34  C   UNL     1      -9.602  -8.030  17.459  0.00  0.00    +0.038 A 
ENDBRANCH  18  22
BRANCH  17  21
ATOM      1  S   UNL     1      -3.420 -10.475  10.976  0.00  0.00    -0.092 S 
ATOM     21  C   UNL     1      -4.975 -10.658  10.292  0.00  0.00    +0.074 A 
ATOM     25  C   UNL     1      -5.239  -9.716   9.328  0.00  0.00    +0.021 A 
ATOM     28  C   UNL     1      -4.144  -8.822   9.148  0.00  0.00    +0.008 A 
ATOM     29  C   UNL     1      -3.089  -9.121   9.981  0.00  0.00    +0.046 A 
ENDBRANCH  17  21
BRANCH  12  16
ATOM      3  O   UNL     1      -6.947 -12.162  14.406  0.00  0.00    -0.274 OA
ATOM     10  N   UNL     1      -5.119 -10.728  14.556  0.00  0.00    -0.301 N 
ATOM     16  C   UNL     1      -6.285 -11.215  13.989  0.00  0.00    +0.236 C 
ATOM     38  H   UNL     1      -4.655  -9.926  14.141  0.00  0.00    +0.150 HD
BRANCH  10  19
ATOM     19  C   UNL     1      -4.522 -11.294  15.743  0.00  0.00    +0.186 C 
BRANCH  19  23
ATOM      7  O   UNL     1      -2.604 -12.424  14.801  0.00  0.00    -0.249 OA
ATOM     23  C   UNL     1      -3.034 -11.564  15.563  0.00  0.00    +0.328 C 
BRANCH  23   6
ATOM      6  O   UNL     1      -2.266 -10.758  16.350  0.00  0.00    -0.467 OA
ATOM     36  C   UNL     1      -1.088 -10.227  15.734  0.00  0.00    +0.280 C 
ENDBRANCH  23   6
ENDBRANCH  19  23
BRANCH  19  20
ATOM     20  C   UNL     1      -4.805 -10.441  16.989  0.00  0.00    +0.070 C 
BRANCH  20  24
ATOM     11  N   UNL     1      -6.815 -10.983  20.131  0.00  0.00    -0.263 NA
ATOM     24  C   UNL     1      -5.758 -11.069  17.981  0.00  0.00    -0.027 A 
ATOM     30  C   UNL     1      -6.411 -12.240  17.667  0.00  0.00    +0.006 A 
ATOM     33  C   UNL     1      -5.977 -10.474  19.199  0.00  0.00    +0.114 A 
ATOM     35  C   UNL     1      -7.280 -12.795  18.600  0.00  0.00    +0.020 A 
ATOM     37  C   UNL     1      -7.446 -12.134  19.806  0.00  0.00    +0.111 A 
ENDBRANCH  20  24
ENDBRANCH  19  20
ENDBRANCH  10  19
ENDBRANCH  12  16
TORSDOF 8
ENDMDL
MODEL 2
REMARK VINA RESULT:      -6.1     25.301     29.186
REMARK  Name = 7113396
REMARK  9 active torsions:
REMARK  status: ('A' for Active; 'I' for Inactive)
REMARK    1  A    between atoms: O_6  and  C_23
REMARK    2  A    between atoms: O_6  and  C_36
REMARK    3  A    between atoms: N_10  and  C_19
REMARK    4  A    between atoms: C_12  and  C_16
REMARK    5  A    between atoms: C_17  and  C_21
REMARK    6  A    between atoms: C_18  and  C_22
REMARK    7  A    between atoms: C_19  and  C_20
REMARK    8  A    between atoms: C_19  and  C_23
REMARK    9  A    between atoms: C_20  and  C_24
REMARK                            x       y       z     vdW  Elec       q    Type
REMARK                         _______ _______ _______ _____ _____    ______ ____
ROOT
ATOM      4  O   UNL     1      16.009  10.661   2.864  0.00  0.00    -0.269 OA
ATOM      5  O   UNL     1       9.902   9.123   5.467  0.00  0.00    -0.270 OA
ATOM      8  N   UNL     1      14.615   9.304   4.132  0.00  0.00    -0.283 N 
ATOM      9  N   UNL     1      12.194   8.661   5.484  0.00  0.00    -0.294 N 
ATOM     12  C   UNL     1      14.295   7.890   4.406  0.00  0.00    +0.179 C 
ATOM     13  C   UNL     1      13.313   7.713   5.566  0.00  0.00    +0.140 C 
ATOM     14  C   UNL     1      13.478  10.235   4.118  0.00  0.00    +0.128 C 
ATOM     15  C   UNL     1      12.594  10.057   5.343  0.00  0.00    +0.127 C 
ATOM     17  C   UNL     1      15.878   9.773   3.707  0.00  0.00    +0.254 C 
ATOM     18  C   UNL     1      10.839   8.329   5.532  0.00  0.00    +0.247 C 
ENDROOT
BRANCH  18  22
ATOM      2  F   UNL     1       9.461   4.582   8.274  0.00  0.00    -0.205 F 
ATOM     22  C   UNL     1      10.479   6.913   5.678  0.00  0.00    +0.040 A 
ATOM     26  C   UNL     1      10.135   6.412   6.931  0.00  0.00    +0.051 A 
ATOM     27  C   UNL     1      10.483   6.078   4.564  0.00  0.00    +0.013 A 
ATOM     31  C   UNL     1       9.793   5.067   7.071  0.00  0.00    +0.124 A 
ATOM     32  C   UNL     1      10.141   4.734   4.703  0.00  0.00    +0.004 A 
ATOM     34  C   UNL     1       9.795   4.228   5.957  0.00  0.00    +0.038 A 
ENDBRANCH  18  22
BRANCH  17  21
ATOM      1  S   UNL     1      17.389   9.457   5.958  0.00  0.00    -0.092 S 
ATOM     21  C   UNL     1      17.053   9.157   4.309  0.00  0.00    +0.074 A 
ATOM     25  C   UNL     1      17.980   8.327   3.727  0.00  0.00    +0.021 A 
ATOM     28  C   UNL     1      18.988   7.929   4.651  0.00  0.00    +0.008 A 
ATOM     29  C   UNL     1      18.789   8.472   5.901  0.00  0.00    +0.046 A 
ENDBRANCH  17  21
BRANCH  12  16
ATOM      3  O   UNL     1      12.917   7.932   2.454  0.00  0.00    -0.274 OA
ATOM     10  N   UNL     1      14.258   6.070   2.846  0.00  0.00    -0.301 N 
ATOM     16  C   UNL     1      13.744   7.325   3.129  0.00  0.00    +0.236 C 
ATOM     38  H   UNL     1      14.928   5.647   3.481  0.00  0.00    +0.150 HD
BRANCH  10  19
ATOM     19  C   UNL     1      13.870   5.301   1.687  0.00  0.00    +0.186 C 
BRANCH  19  23
ATOM      7  O   UNL     1      15.072   3.204   1.712  0.00  0.00    -0.249 OA
ATOM     23  C   UNL     1      14.963   4.334   1.249  0.00  0.00    +0.328 C 
BRANCH  23   6
ATOM      6  O   UNL     1      15.791   4.883   0.316  0.00  0.00    -0.467 OA
ATOM     36  C   UNL     1      16.470   3.954  -0.536  0.00  0.00    +0.280 C 
ENDBRANCH  23   6
ENDBRANCH  19  23
BRANCH  19  20
ATOM     20  C   UNL     1      12.525   4.590   1.895  0.00  0.00    +0.070 C 
BRANCH  20  24
ATOM     11  N   UNL     1      10.604   4.016  -1.297  0.00  0.00    -0.263 NA
ATOM     24  C   UNL     1      11.526   4.788   0.777  0.00  0.00    -0.027 A 
ATOM     30  C   UNL     1      10.667   5.864   0.799  0.00  0.00    +0.006 A 
ATOM     33  C   UNL     1      11.471   3.896  -0.266  0.00  0.00    +0.114 A 
ATOM     35  C   UNL     1       9.760   6.021  -0.244  0.00  0.00    +0.020 A 
ATOM     37  C   UNL     1       9.769   5.078  -1.259  0.00  0.00    +0.111 A 
ENDBRANCH  20  24
ENDBRANCH  19  20
ENDBRANCH  10  19
ENDBRANCH  12  16
TORSDOF 8
ENDMDL
MODEL 3
REMARK VINA RESULT:      -6.0      3.175      8.083
REMARK  Name = 7113396
REMARK  9 active torsions:
REMARK  status: ('A' for Active; 'I' for Inactive)
REMARK    1  A    between atoms: O_6  and  C_23
REMARK    2  A    between atoms: O_6  and  C_36
REMARK    3  A    between atoms: N_10  and  C_19
REMARK    4  A    between atoms: C_12  and  C_16
REMARK    5  A    between atoms: C_17  and  C_21
REMARK    6  A    between atoms: C_18  and  C_22
REMARK    7  A    between atoms: C_19  and  C_20
REMARK    8  A    between atoms: C_19  and  C_23
REMARK    9  A    between atoms: C_20  and  C_24
REMARK                            x       y       z     vdW  Elec       q    Type
REMARK                         _______ _______ _______ _____ _____    ______ ____
ROOT
ATOM      4  O   UNL     1      -6.943 -14.463  17.025  0.00  0.00    -0.269 OA
ATOM      5  O   UNL     1      -2.263 -13.867  12.108  0.00  0.00    -0.270 OA
ATOM      8  N   UNL     1      -5.391 -13.219  15.825  0.00  0.00    -0.283 N 
ATOM      9  N   UNL     1      -3.251 -12.875  13.980  0.00  0.00    -0.294 N 
ATOM     12  C   UNL     1      -5.186 -11.901  15.195  0.00  0.00    +0.179 C 
ATOM     13  C   UNL     1      -3.757 -11.694  14.691  0.00  0.00    +0.140 C 
ATOM     14  C   UNL     1      -4.819 -14.372  15.117  0.00  0.00    +0.128 C 
ATOM     15  C   UNL     1      -3.370 -14.125  14.724  0.00  0.00    +0.127 C 
ATOM     17  C   UNL     1      -6.238 -13.457  16.931  0.00  0.00    +0.254 C 
ATOM     18  C   UNL     1      -2.689 -12.879  12.702  0.00  0.00    +0.247 C 
ENDROOT
BRANCH  18  22
ATOM      2  F   UNL     1      -0.335  -8.754  11.751  0.00  0.00    -0.205 F 
ATOM     22  C   UNL     1      -2.584 -11.599  11.990  0.00  0.00    +0.040 A 
ATOM     26  C   UNL     1      -1.488 -10.770  12.215  0.00  0.00    +0.051 A 
ATOM     27  C   UNL     1      -3.580 -11.221  11.094  0.00  0.00    +0.013 A 
ATOM     31  C   UNL     1      -1.387  -9.554  11.538  0.00  0.00    +0.124 A 
ATOM     32  C   UNL     1      -3.479 -10.006  10.417  0.00  0.00    +0.004 A 
ATOM     34  C   UNL     1      -2.383  -9.172  10.639  0.00  0.00    +0.038 A 
ENDBRANCH  18  22
BRANCH  17  21
ATOM      1  S   UNL     1      -7.625 -11.438  18.134  0.00  0.00    -0.092 S 
ATOM     21  C   UNL     1      -6.256 -12.449  17.983  0.00  0.00    +0.074 A 
ATOM     25  C   UNL     1      -5.294 -12.174  18.924  0.00  0.00    +0.021 A 
ATOM     28  C   UNL     1      -5.686 -11.110  19.786  0.00  0.00    +0.008 A 
ATOM     29  C   UNL     1      -6.933 -10.618  19.469  0.00  0.00    +0.046 A 
ENDBRANCH  17  21
BRANCH  12  16
ATOM      3  O   UNL     1      -6.410 -12.759  13.330  0.00  0.00    -0.274 OA
ATOM     10  N   UNL     1      -6.758 -10.553  13.987  0.00  0.00    -0.301 N 
ATOM     16  C   UNL     1      -6.181 -11.808  14.074  0.00  0.00    +0.236 C 
ATOM     38  H   UNL     1      -6.487  -9.828  14.645  0.00  0.00    +0.150 HD
BRANCH  10  19
ATOM     19  C   UNL     1      -7.730 -10.197  12.979  0.00  0.00    +0.186 C 
BRANCH  19  23
ATOM      7  O   UNL     1     -10.065  -9.579  12.909  0.00  0.00    -0.249 OA
ATOM     23  C   UNL     1      -9.067  -9.796  13.588  0.00  0.00    +0.328 C 
BRANCH  23   6
ATOM      6  O   UNL     1      -9.004  -9.696  14.946  0.00  0.00    -0.467 OA
ATOM     36  C   UNL     1      -9.677  -8.568  15.518  0.00  0.00    +0.280 C 
ENDBRANCH  23   6
ENDBRANCH  19  23
BRANCH  19  20
ATOM     20  C   UNL     1      -7.192  -9.127  12.018  0.00  0.00    +0.070 C 
BRANCH  20  24
ATOM     11  N   UNL     1      -6.695  -8.996   8.284  0.00  0.00    -0.263 NA
ATOM     24  C   UNL     1      -7.060  -9.578  10.581  0.00  0.00    -0.027 A 
ATOM     30  C   UNL     1      -7.176 -10.913  10.261  0.00  0.00    +0.006 A 
ATOM     33  C   UNL     1      -6.823  -8.660   9.587  0.00  0.00    +0.114 A 
ATOM     35  C   UNL     1      -7.051 -11.298   8.930  0.00  0.00    +0.020 A 
ATOM     37  C   UNL     1      -6.814 -10.310   7.988  0.00  0.00    +0.111 A 
ENDBRANCH  20  24
ENDBRANCH  19  20
ENDBRANCH  10  19
ENDBRANCH  12  16
TORSDOF 8
ENDMDL
MODEL 4
REMARK VINA RESULT:      -5.9     24.724     28.557
REMARK  Name = 7113396
REMARK  9 active torsions:
REMARK  status: ('A' for Active; 'I' for Inactive)
REMARK    1  A    between atoms: O_6  and  C_23
REMARK    2  A    between atoms: O_6  and  C_36
REMARK    3  A    between atoms: N_10  and  C_19
REMARK    4  A    between atoms: C_12  and  C_16
REMARK    5  A    between atoms: C_17  and  C_21
REMARK    6  A    between atoms: C_18  and  C_22
REMARK    7  A    between atoms: C_19  and  C_20
REMARK    8  A    between atoms: C_19  and  C_23
REMARK    9  A    between atoms: C_20  and  C_24
REMARK                            x       y       z     vdW  Elec       q    Type
REMARK                         _______ _______ _______ _____ _____    ______ ____
ROOT
ATOM      4  O   UNL     1      15.106  11.177   4.135  0.00  0.00    -0.269 OA
ATOM      5  O   UNL     1       9.820   8.883   7.771  0.00  0.00    -0.270 OA
ATOM      8  N   UNL     1      14.035   9.514   5.351  0.00  0.00    -0.283 N 
ATOM      9  N   UNL     1      12.021   8.493   7.084  0.00  0.00    -0.294 N 
ATOM     12  C   UNL     1      13.745   8.067   5.348  0.00  0.00    +0.179 C 
ATOM     13  C   UNL     1      13.086   7.586   6.642  0.00  0.00    +0.140 C 
ATOM     14  C   UNL     1      12.969  10.388   5.857  0.00  0.00    +0.128 C 
ATOM     15  C   UNL     1      12.422   9.893   7.188  0.00  0.00    +0.127 C 
ATOM     17  C   UNL     1      15.164  10.106   4.743  0.00  0.00    +0.254 C 
ATOM     18  C   UNL     1      10.711   8.123   7.398  0.00  0.00    +0.247 C 
ENDROOT
BRANCH  18  22
ATOM      2  F   UNL     1       9.758   3.830   9.428  0.00  0.00    -0.205 F 
ATOM     22  C   UNL     1      10.349   6.704   7.284  0.00  0.00    +0.040 A 
ATOM     26  C   UNL     1      10.224   5.928   8.433  0.00  0.00    +0.051 A 
ATOM     27  C   UNL     1      10.132   6.144   6.028  0.00  0.00    +0.013 A 
ATOM     31  C   UNL     1       9.879   4.581   8.325  0.00  0.00    +0.124 A 
ATOM     32  C   UNL     1       9.787   4.797   5.921  0.00  0.00    +0.004 A 
ATOM     34  C   UNL     1       9.660   4.015   7.069  0.00  0.00    +0.038 A 
ENDBRANCH  18  22
BRANCH  17  21
ATOM      1  S   UNL     1      17.054   8.599   3.476  0.00  0.00    -0.092 S 
ATOM     21  C   UNL     1      16.430   9.395   4.853  0.00  0.00    +0.074 A 
ATOM     25  C   UNL     1      17.245   9.260   5.951  0.00  0.00    +0.021 A 
ATOM     28  C   UNL     1      18.405   8.486   5.657  0.00  0.00    +0.008 A 
ATOM     29  C   UNL     1      18.427   8.063   4.346  0.00  0.00    +0.046 A 
ENDBRANCH  17  21
BRANCH  12  16
ATOM      3  O   UNL     1      12.121   8.683   3.706  0.00  0.00    -0.274 OA
ATOM     10  N   UNL     1      12.984   6.521   3.681  0.00  0.00    -0.301 N 
ATOM     16  C   UNL     1      12.864   7.815   4.158  0.00  0.00    +0.236 C 
ATOM     38  H   UNL     1      13.618   5.873   4.139  0.00  0.00    +0.150 HD
BRANCH  10  19
ATOM     19  C   UNL     1      12.226   6.018   2.559  0.00  0.00    +0.186 C 
BRANCH  19  23
ATOM      7  O   UNL     1      12.096   3.652   2.086  0.00  0.00    -0.249 OA
ATOM     23  C   UNL     1      12.760   4.682   2.059  0.00  0.00    +0.328 C 
BRANCH  23   6
ATOM      6  O   UNL     1      14.043   4.778   1.607  0.00  0.00    -0.467 OA
ATOM     36  C   UNL     1      14.809   3.570   1.653  0.00  0.00    +0.280 C 
ENDBRANCH  23   6
ENDBRANCH  19  23
BRANCH  19  20
ATOM     20  C   UNL     1      10.722   5.958   2.865  0.00  0.00    +0.070 C 
BRANCH  20  24
ATOM     11  N   UNL     1       9.384   8.174   0.126  0.00  0.00    -0.263 NA
ATOM     24  C   UNL     1       9.890   7.001   2.154  0.00  0.00    -0.027 A 
ATOM     30  C   UNL     1       8.925   7.703   2.842  0.00  0.00    +0.006 A 
ATOM     33  C   UNL     1      10.092   7.254   0.820  0.00  0.00    +0.114 A 
ATOM     35  C   UNL     1       8.176   8.658   2.163  0.00  0.00    +0.020 A 
ATOM     37  C   UNL     1       8.443   8.854   0.818  0.00  0.00    +0.111 A 
ENDBRANCH  20  24
ENDBRANCH  19  20
ENDBRANCH  10  19
ENDBRANCH  12  16
TORSDOF 8
ENDMDL
MODEL 5
REMARK VINA RESULT:      -5.8     25.552     28.936
REMARK  Name = 7113396
REMARK  9 active torsions:
REMARK  status: ('A' for Active; 'I' for Inactive)
REMARK    1  A    between atoms: O_6  and  C_23
REMARK    2  A    between atoms: O_6  and  C_36
REMARK    3  A    between atoms: N_10  and  C_19
REMARK    4  A    between atoms: C_12  and  C_16
REMARK    5  A    between atoms: C_17  and  C_21
REMARK    6  A    between atoms: C_18  and  C_22
REMARK    7  A    between atoms: C_19  and  C_20
REMARK    8  A    between atoms: C_19  and  C_23
REMARK    9  A    between atoms: C_20  and  C_24
REMARK                            x       y       z     vdW  Elec       q    Type
REMARK                         _______ _______ _______ _____ _____    ______ ____
ROOT
ATOM      4  O   UNL     1      19.034  -5.048  31.326  0.00  0.00    -0.269 OA
ATOM      5  O   UNL     1      20.834  -1.381  25.873  0.00  0.00    -0.270 OA
ATOM      8  N   UNL     1      18.510  -3.894  29.381  0.00  0.00    -0.283 N 
ATOM      9  N   UNL     1      19.069  -2.158  27.196  0.00  0.00    -0.294 N 
ATOM     12  C   UNL     1      17.675  -3.969  28.167  0.00  0.00    +0.179 C 
ATOM     13  C   UNL     1      17.706  -2.683  27.338  0.00  0.00    +0.140 C 
ATOM     14  C   UNL     1      19.846  -3.306  29.214  0.00  0.00    +0.128 C 
ATOM     15  C   UNL     1      19.787  -1.989  28.455  0.00  0.00    +0.127 C 
ATOM     17  C   UNL     1      18.189  -4.504  30.614  0.00  0.00    +0.254 C 
ATOM     18  C   UNL     1      19.693  -1.824  25.992  0.00  0.00    +0.247 C 
ENDROOT
BRANCH  18  22
ATOM      2  F   UNL     1      16.329  -0.338  22.840  0.00  0.00    -0.205 F 
ATOM     22  C   UNL     1      18.934  -2.006  24.748  0.00  0.00    +0.040 A 
ATOM     26  C   UNL     1      17.974  -1.067  24.379  0.00  0.00    +0.051 A 
ATOM     27  C   UNL     1      19.180  -3.115  23.942  0.00  0.00    +0.013 A 
ATOM     31  C   UNL     1      17.254  -1.239  23.198  0.00  0.00    +0.124 A 
ATOM     32  C   UNL     1      18.460  -3.286  22.760  0.00  0.00    +0.004 A 
ATOM     34  C   UNL     1      17.497  -2.348  22.387  0.00  0.00    +0.038 A 
ENDBRANCH  18  22
BRANCH  17  21
ATOM      1  S   UNL     1      15.866  -5.905  30.915  0.00  0.00    -0.092 S 
ATOM     21  C   UNL     1      16.792  -4.474  31.028  0.00  0.00    +0.074 A 
ATOM     25  C   UNL     1      16.068  -3.418  31.525  0.00  0.00    +0.021 A 
ATOM     28  C   UNL     1      14.724  -3.789  31.817  0.00  0.00    +0.008 A 
ATOM     29  C   UNL     1      14.478  -5.114  31.532  0.00  0.00    +0.046 A 
ENDBRANCH  17  21
BRANCH  12  16
ATOM      3  O   UNL     1      19.373  -5.430  27.334  0.00  0.00    -0.274 OA
ATOM     10  N   UNL     1      17.160  -5.808  26.718  0.00  0.00    -0.301 N 
ATOM     16  C   UNL     1      18.180  -5.143  27.378  0.00  0.00    +0.236 C 
ATOM     38  H   UNL     1      16.204  -5.479  26.808  0.00  0.00    +0.150 HD
BRANCH  10  19
ATOM     19  C   UNL     1      17.385  -6.957  25.872  0.00  0.00    +0.186 C 
BRANCH  19  23
ATOM      7  O   UNL     1      16.030  -8.230  27.416  0.00  0.00    -0.249 OA
ATOM     23  C   UNL     1      16.570  -8.165  26.316  0.00  0.00    +0.328 C 
BRANCH  23   6
ATOM      6  O   UNL     1      16.536  -9.141  25.366  0.00  0.00    -0.467 OA
ATOM     36  C   UNL     1      15.408 -10.020  25.418  0.00  0.00    +0.280 C 
ENDBRANCH  23   6
ENDBRANCH  19  23
BRANCH  19  20
ATOM     20  C   UNL     1      17.162  -6.628  24.388  0.00  0.00    +0.070 C 
BRANCH  20  24
ATOM     11  N   UNL     1      20.691  -7.421  23.327  0.00  0.00    -0.263 NA
ATOM     24  C   UNL     1      18.381  -6.809  23.511  0.00  0.00    -0.027 A 
ATOM     30  C   UNL     1      18.308  -6.540  22.162  0.00  0.00    +0.006 A 
ATOM     33  C   UNL     1      19.565  -7.241  24.055  0.00  0.00    +0.114 A 
ATOM     35  C   UNL     1      19.445  -6.714  21.381  0.00  0.00    +0.020 A 
ATOM     37  C   UNL     1      20.602  -7.152  22.006  0.00  0.00    +0.111 A 
ENDBRANCH  20  24
ENDBRANCH  19  20
ENDBRANCH  10  19
ENDBRANCH  12  16
TORSDOF 8
ENDMDL
MODEL 6
REMARK VINA RESULT:      -5.6      3.015      7.706
REMARK  Name = 7113396
REMARK  9 active torsions:
REMARK  status: ('A' for Active; 'I' for Inactive)
REMARK    1  A    between atoms: O_6  and  C_23
REMARK    2  A    between atoms: O_6  and  C_36
REMARK    3  A    between atoms: N_10  and  C_19
REMARK    4  A    between atoms: C_12  and  C_16
REMARK    5  A    between atoms: C_17  and  C_21
REMARK    6  A    between atoms: C_18  and  C_22
REMARK    7  A    between atoms: C_19  and  C_20
REMARK    8  A    between atoms: C_19  and  C_23
REMARK    9  A    between atoms: C_20  and  C_24
REMARK                            x       y       z     vdW  Elec       q    Type
REMARK                         _______ _______ _______ _____ _____    ______ ____
ROOT
ATOM      4  O   UNL     1     -11.399 -10.766  16.261  0.00  0.00    -0.269 OA
ATOM      5  O   UNL     1      -4.994 -12.829  17.330  0.00  0.00    -0.270 OA
ATOM      8  N   UNL     1      -9.107 -10.394  16.247  0.00  0.00    -0.283 N 
ATOM      9  N   UNL     1      -6.401 -11.019  16.869  0.00  0.00    -0.294 N 
ATOM     12  C   UNL     1      -8.025  -9.799  15.440  0.00  0.00    +0.179 C 
ATOM     13  C   UNL     1      -6.684  -9.757  16.174  0.00  0.00    +0.140 C 
ATOM     14  C   UNL     1      -8.771 -11.623  16.978  0.00  0.00    +0.128 C 
ATOM     15  C   UNL     1      -7.469 -11.477  17.752  0.00  0.00    +0.127 C 
ATOM     17  C   UNL     1     -10.456  -9.975  16.214  0.00  0.00    +0.254 C 
ATOM     18  C   UNL     1      -5.231 -11.773  16.746  0.00  0.00    +0.247 C 
ENDROOT
BRANCH  18  22
ATOM      2  F   UNL     1      -0.833  -9.871  16.042  0.00  0.00    -0.205 F 
ATOM     22  C   UNL     1      -4.180 -11.276  15.850  0.00  0.00    +0.040 A 
ATOM     26  C   UNL     1      -2.984 -10.801  16.383  0.00  0.00    +0.051 A 
ATOM     27  C   UNL     1      -4.383 -11.283  14.473  0.00  0.00    +0.013 A 
ATOM     31  C   UNL     1      -1.985 -10.329  15.533  0.00  0.00    +0.124 A 
ATOM     32  C   UNL     1      -3.383 -10.811  13.623  0.00  0.00    +0.004 A 
ATOM     34  C   UNL     1      -2.183 -10.335  14.153  0.00  0.00    +0.038 A 
ENDBRANCH  18  22
BRANCH  17  21
ATOM      1  S   UNL     1     -11.339  -7.914  14.657  0.00  0.00    -0.092 S 
ATOM     21  C   UNL     1     -10.706  -8.543  16.115  0.00  0.00    +0.074 A 
ATOM     25  C   UNL     1     -10.503  -7.569  17.062  0.00  0.00    +0.021 A 
ATOM     28  C   UNL     1     -10.873  -6.280  16.583  0.00  0.00    +0.008 A 
ATOM     29  C   UNL     1     -11.344  -6.323  15.290  0.00  0.00    +0.046 A 
ENDBRANCH  17  21
BRANCH  12  16
ATOM      3  O   UNL     1      -7.696 -11.821  14.208  0.00  0.00    -0.274 OA
ATOM     10  N   UNL     1      -8.131  -9.852  13.045  0.00  0.00    -0.301 N 
ATOM     16  C   UNL     1      -7.937 -10.617  14.183  0.00  0.00    +0.236 C 
ATOM     38  H   UNL     1      -8.309  -8.856  13.133  0.00  0.00    +0.150 HD
BRANCH  10  19
ATOM     19  C   UNL     1      -8.072 -10.395  11.708  0.00  0.00    +0.186 C 
BRANCH  19  23
ATOM      7  O   UNL     1      -9.959 -11.901  11.585  0.00  0.00    -0.249 OA
ATOM     23  C   UNL     1      -9.439 -10.853  11.216  0.00  0.00    +0.328 C 
BRANCH  23   6
ATOM      6  O   UNL     1      -9.984  -9.979  10.323  0.00  0.00    -0.467 OA
ATOM     36  C   UNL     1     -11.332  -9.579  10.588  0.00  0.00    +0.280 C 
ENDBRANCH  23   6
ENDBRANCH  19  23
BRANCH  19  20
ATOM     20  C   UNL     1      -7.403  -9.425  10.724  0.00  0.00    +0.070 C 
BRANCH  20  24
ATOM     11  N   UNL     1      -3.708  -8.791  10.329  0.00  0.00    -0.263 NA
ATOM     24  C   UNL     1      -5.930  -9.676  10.492  0.00  0.00    -0.027 A 
ATOM     30  C   UNL     1      -5.477 -10.953  10.243  0.00  0.00    +0.006 A 
ATOM     33  C   UNL     1      -5.037  -8.634  10.529  0.00  0.00    +0.114 A 
ATOM     35  C   UNL     1      -4.118 -11.154  10.032  0.00  0.00    +0.020 A 
ATOM     37  C   UNL     1      -3.282 -10.050  10.085  0.00  0.00    +0.111 A 
ENDBRANCH  20  24
ENDBRANCH  19  20
ENDBRANCH  10  19
ENDBRANCH  12  16
TORSDOF 8
ENDMDL
MODEL 7
REMARK VINA RESULT:      -5.5     24.361     28.451
REMARK  Name = 7113396
REMARK  9 active torsions:
REMARK  status: ('A' for Active; 'I' for Inactive)
REMARK    1  A    between atoms: O_6  and  C_23
REMARK    2  A    between atoms: O_6  and  C_36
REMARK    3  A    between atoms: N_10  and  C_19
REMARK    4  A    between atoms: C_12  and  C_16
REMARK    5  A    between atoms: C_17  and  C_21
REMARK    6  A    between atoms: C_18  and  C_22
REMARK    7  A    between atoms: C_19  and  C_20
REMARK    8  A    between atoms: C_19  and  C_23
REMARK    9  A    between atoms: C_20  and  C_24
REMARK                            x       y       z     vdW  Elec       q    Type
REMARK                         _______ _______ _______ _____ _____    ______ ____
ROOT
ATOM      4  O   UNL     1      14.453  10.667   3.167  0.00  0.00    -0.269 OA
ATOM      5  O   UNL     1       9.222   8.702   7.066  0.00  0.00    -0.270 OA
ATOM      8  N   UNL     1      13.485   9.221   4.704  0.00  0.00    -0.283 N 
ATOM      9  N   UNL     1      11.486   8.410   6.562  0.00  0.00    -0.294 N 
ATOM     12  C   UNL     1      13.341   7.789   5.031  0.00  0.00    +0.179 C 
ATOM     13  C   UNL     1      12.661   7.549   6.380  0.00  0.00    +0.140 C 
ATOM     14  C   UNL     1      12.309  10.065   4.956  0.00  0.00    +0.128 C 
ATOM     15  C   UNL     1      11.740   9.831   6.347  0.00  0.00    +0.127 C 
ATOM     17  C   UNL     1      14.581   9.778   4.010  0.00  0.00    +0.254 C 
ATOM     18  C   UNL     1      10.204   7.979   6.911  0.00  0.00    +0.247 C 
ENDROOT
BRANCH  18  22
ATOM      2  F   UNL     1       9.653   4.178   9.861  0.00  0.00    -0.205 F 
ATOM     22  C   UNL     1       9.993   6.542   7.121  0.00  0.00    +0.040 A 
ATOM     26  C   UNL     1       9.923   6.035   8.416  0.00  0.00    +0.051 A 
ATOM     27  C   UNL     1       9.862   5.693   6.025  0.00  0.00    +0.013 A 
ATOM     31  C   UNL     1       9.721   4.670   8.617  0.00  0.00    +0.124 A 
ATOM     32  C   UNL     1       9.660   4.328   6.226  0.00  0.00    +0.004 A 
ATOM     34  C   UNL     1       9.589   3.816   7.522  0.00  0.00    +0.038 A 
ENDBRANCH  18  22
BRANCH  17  21
ATOM      1  S   UNL     1      16.747   8.367   3.134  0.00  0.00    -0.092 S 
ATOM     21  C   UNL     1      15.904   9.255   4.326  0.00  0.00    +0.074 A 
ATOM     25  C   UNL     1      16.617   9.375   5.494  0.00  0.00    +0.021 A 
ATOM     28  C   UNL     1      17.881   8.723   5.411  0.00  0.00    +0.008 A 
ATOM     29  C   UNL     1      18.081   8.133   4.182  0.00  0.00    +0.046 A 
ENDBRANCH  17  21
BRANCH  12  16
ATOM      3  O   UNL     1      11.362   7.400   3.749  0.00  0.00    -0.274 OA
ATOM     10  N   UNL     1      13.337   6.339   3.122  0.00  0.00    -0.301 N 
ATOM     16  C   UNL     1      12.559   7.174   3.905  0.00  0.00    +0.236 C 
ATOM     38  H   UNL     1      14.318   6.208   3.347  0.00  0.00    +0.150 HD
BRANCH  10  19
ATOM     19  C   UNL     1      12.817   5.607   1.990  0.00  0.00    +0.186 C 
BRANCH  19  23
ATOM      7  O   UNL     1      11.171   4.231   3.103  0.00  0.00    -0.249 OA
ATOM     23  C   UNL     1      12.178   4.288   2.404  0.00  0.00    +0.328 C 
BRANCH  23   6
ATOM      6  O   UNL     1      12.863   3.212   1.925  0.00  0.00    -0.467 OA
ATOM     36  C   UNL     1      14.177   3.483   1.426  0.00  0.00    +0.280 C 
ENDBRANCH  23   6
ENDBRANCH  19  23
BRANCH  19  20
ATOM     20  C   UNL     1      11.866   6.465   1.141  0.00  0.00    +0.070 C 
BRANCH  20  24
ATOM     11  N   UNL     1       9.532   4.854  -1.340  0.00  0.00    -0.263 NA
ATOM     24  C   UNL     1      11.367   5.796  -0.119  0.00  0.00    -0.027 A 
ATOM     30  C   UNL     1      12.238   5.524  -1.151  0.00  0.00    +0.006 A 
ATOM     33  C   UNL     1      10.042   5.455  -0.242  0.00  0.00    +0.114 A 
ATOM     35  C   UNL     1      11.751   4.907  -2.297  0.00  0.00    +0.020 A 
ATOM     37  C   UNL     1      10.402   4.595  -2.342  0.00  0.00    +0.111 A 
ENDBRANCH  20  24
ENDBRANCH  19  20
ENDBRANCH  10  19
ENDBRANCH  12  16
TORSDOF 8
ENDMDL
MODEL 8
REMARK VINA RESULT:      -5.3     24.234     27.518
REMARK  Name = 7113396
REMARK  9 active torsions:
REMARK  status: ('A' for Active; 'I' for Inactive)
REMARK    1  A    between atoms: O_6  and  C_23
REMARK    2  A    between atoms: O_6  and  C_36
REMARK    3  A    between atoms: N_10  and  C_19
REMARK    4  A    between atoms: C_12  and  C_16
REMARK    5  A    between atoms: C_17  and  C_21
REMARK    6  A    between atoms: C_18  and  C_22
REMARK    7  A    between atoms: C_19  and  C_20
REMARK    8  A    between atoms: C_19  and  C_23
REMARK    9  A    between atoms: C_20  and  C_24
REMARK                            x       y       z     vdW  Elec       q    Type
REMARK                         _______ _______ _______ _____ _____    ______ ____
ROOT
ATOM      4  O   UNL     1      12.366   7.280   6.775  0.00  0.00    -0.269 OA
ATOM      5  O   UNL     1       8.565  12.111   3.835  0.00  0.00    -0.270 OA
ATOM      8  N   UNL     1      10.330   8.083   5.999  0.00  0.00    -0.283 N 
ATOM      9  N   UNL     1       8.570  10.090   5.011  0.00  0.00    -0.294 N 
ATOM     12  C   UNL     1       9.125   7.681   5.249  0.00  0.00    +0.179 C 
ATOM     13  C   UNL     1       8.029   8.748   5.261  0.00  0.00    +0.140 C 
ATOM     14  C   UNL     1      10.808   9.453   5.771  0.00  0.00    +0.128 C 
ATOM     15  C   UNL     1       9.679  10.466   5.882  0.00  0.00    +0.127 C 
ATOM     17  C   UNL     1      11.137   7.202   6.753  0.00  0.00    +0.254 C 
ATOM     18  C   UNL     1       8.113  10.986   4.042  0.00  0.00    +0.247 C 
ENDROOT
BRANCH  18  22
ATOM      2  F   UNL     1       6.416   9.200  -0.128  0.00  0.00    -0.205 F 
ATOM     22  C   UNL     1       6.993  10.570   3.189  0.00  0.00    +0.040 A 
ATOM     26  C   UNL     1       7.243  10.074   1.912  0.00  0.00    +0.051 A 
ATOM     27  C   UNL     1       5.687  10.672   3.661  0.00  0.00    +0.013 A 
ATOM     31  C   UNL     1       6.180   9.678   1.101  0.00  0.00    +0.124 A 
ATOM     32  C   UNL     1       4.624  10.276   2.851  0.00  0.00    +0.004 A 
ATOM     34  C   UNL     1       4.870   9.778   1.571  0.00  0.00    +0.038 A 
ENDBRANCH  18  22
BRANCH  17  21
ATOM      1  S   UNL     1      10.248   4.623   6.825  0.00  0.00    -0.092 S 
ATOM     21  C   UNL     1      10.455   6.169   7.522  0.00  0.00    +0.074 A 
ATOM     25  C   UNL     1       9.929   6.249   8.787  0.00  0.00    +0.021 A 
ATOM     28  C   UNL     1       9.341   5.017   9.195  0.00  0.00    +0.008 A 
ATOM     29  C   UNL     1       9.444   4.047   8.223  0.00  0.00    +0.046 A 
ENDBRANCH  17  21
BRANCH  12  16
ATOM      3  O   UNL     1       8.856   7.573   2.877  0.00  0.00    -0.274 OA
ATOM     10  N   UNL     1      10.855   6.841   3.819  0.00  0.00    -0.301 N 
ATOM     16  C   UNL     1       9.578   7.375   3.851  0.00  0.00    +0.236 C 
ATOM     38  H   UNL     1      11.364   6.703   4.686  0.00  0.00    +0.150 HD
BRANCH  10  19
ATOM     19  C   UNL     1      11.513   6.439   2.597  0.00  0.00    +0.186 C 
BRANCH  19  23
ATOM      7  O   UNL     1      12.847   8.274   1.762  0.00  0.00    -0.249 OA
ATOM     23  C   UNL     1      12.809   7.206   2.365  0.00  0.00    +0.328 C 
BRANCH  23   6
ATOM      6  O   UNL     1      13.890   6.559   2.886  0.00  0.00    -0.467 OA
ATOM     36  C   UNL     1      14.619   7.276   3.888  0.00  0.00    +0.280 C 
ENDBRANCH  23   6
ENDBRANCH  19  23
BRANCH  19  20
ATOM     20  C   UNL     1      11.726   4.919   2.535  0.00  0.00    +0.070 C 
BRANCH  20  24
ATOM     11  N   UNL     1      10.636   3.977  -0.948  0.00  0.00    -0.263 NA
ATOM     24  C   UNL     1      11.760   4.343   1.137  0.00  0.00    -0.027 A 
ATOM     30  C   UNL     1      12.886   3.689   0.685  0.00  0.00    +0.006 A 
ATOM     33  C   UNL     1      10.671   4.469   0.311  0.00  0.00    +0.114 A 
ATOM     35  C   UNL     1      12.888   3.169  -0.604  0.00  0.00    +0.020 A 
ATOM     37  C   UNL     1      11.748   3.337  -1.374  0.00  0.00    +0.111 A 
ENDBRANCH  20  24
ENDBRANCH  19  20
ENDBRANCH  10  19
ENDBRANCH  12  16
TORSDOF 8
ENDMDL
MODEL 9
REMARK VINA RESULT:      -5.1     22.676     26.170
REMARK  Name = 7113396
REMARK  9 active torsions:
REMARK  status: ('A' for Active; 'I' for Inactive)
REMARK    1  A    between atoms: O_6  and  C_23
REMARK    2  A    between atoms: O_6  and  C_36
REMARK    3  A    between atoms: N_10  and  C_19
REMARK    4  A    between atoms: C_12  and  C_16
REMARK    5  A    between atoms: C_17  and  C_21
REMARK    6  A    between atoms: C_18  and  C_22
REMARK    7  A    between atoms: C_19  and  C_20
REMARK    8  A    between atoms: C_19  and  C_23
REMARK    9  A    between atoms: C_20  and  C_24
REMARK                            x       y       z     vdW  Elec       q    Type
REMARK                         _______ _______ _______ _____ _____    ______ ____
ROOT
ATOM      4  O   UNL     1       2.202  13.313   1.955  0.00  0.00    -0.269 OA
ATOM      5  O   UNL     1      -2.559  11.370   6.425  0.00  0.00    -0.270 OA
ATOM      8  N   UNL     1       0.815  11.700   2.886  0.00  0.00    -0.283 N 
ATOM      9  N   UNL     1      -0.984  10.679   4.841  0.00  0.00    -0.294 N 
ATOM     12  C   UNL     1      -0.080  10.582   2.530  0.00  0.00    +0.179 C 
ATOM     13  C   UNL     1      -0.566   9.794   3.747  0.00  0.00    +0.140 C 
ATOM     14  C   UNL     1       0.396  12.529   4.024  0.00  0.00    +0.128 C 
ATOM     15  C   UNL     1       0.009  11.678   5.224  0.00  0.00    +0.127 C 
ATOM     17  C   UNL     1       1.916  12.125   2.109  0.00  0.00    +0.254 C 
ATOM     18  C   UNL     1      -2.211  10.629   5.507  0.00  0.00    +0.247 C 
ENDROOT
BRANCH  18  22
ATOM      2  F   UNL     1      -3.810   6.058   5.554  0.00  0.00    -0.205 F 
ATOM     22  C   UNL     1      -3.180   9.608   5.093  0.00  0.00    +0.040 A 
ATOM     26  C   UNL     1      -3.030   8.294   5.529  0.00  0.00    +0.051 A 
ATOM     27  C   UNL     1      -4.246   9.958   4.267  0.00  0.00    +0.013 A 
ATOM     31  C   UNL     1      -3.951   7.323   5.137  0.00  0.00    +0.124 A 
ATOM     32  C   UNL     1      -5.167   8.987   3.875  0.00  0.00    +0.004 A 
ATOM     34  C   UNL     1      -5.020   7.669   4.310  0.00  0.00    +0.038 A 
ENDBRANCH  18  22
BRANCH  17  21
ATOM      1  S   UNL     1       2.487  10.761  -0.185  0.00  0.00    -0.092 S 
ATOM     21  C   UNL     1       2.722  11.090   1.475  0.00  0.00    +0.074 A 
ATOM     25  C   UNL     1       3.696  10.298   2.034  0.00  0.00    +0.021 A 
ATOM     28  C   UNL     1       4.260   9.401   1.082  0.00  0.00    +0.008 A 
ATOM     29  C   UNL     1       3.694   9.546  -0.165  0.00  0.00    +0.046 A 
ENDBRANCH  17  21
BRANCH  12  16
ATOM      3  O   UNL     1      -2.066  11.895   2.320  0.00  0.00    -0.274 OA
ATOM     10  N   UNL     1      -1.221  10.821   0.436  0.00  0.00    -0.301 N 
ATOM     16  C   UNL     1      -1.228  11.184   1.772  0.00  0.00    +0.236 C 
ATOM     38  H   UNL     1      -0.489  10.213   0.083  0.00  0.00    +0.150 HD
BRANCH  10  19
ATOM     19  C   UNL     1      -2.232  11.248  -0.504  0.00  0.00    +0.186 C 
BRANCH  19  23
ATOM      7  O   UNL     1      -0.927  12.806  -1.813  0.00  0.00    -0.249 OA
ATOM     23  C   UNL     1      -1.913  12.609  -1.110  0.00  0.00    +0.328 C 
BRANCH  23   6
ATOM      6  O   UNL     1      -2.831  13.555  -0.762  0.00  0.00    -0.467 OA
ATOM     36  C   UNL     1      -2.342  14.626   0.051  0.00  0.00    +0.280 C 
ENDBRANCH  23   6
ENDBRANCH  19  23
BRANCH  19  20
ATOM     20  C   UNL     1      -2.497  10.187  -1.583  0.00  0.00    +0.070 C 
BRANCH  20  24
ATOM     11  N   UNL     1      -6.188   9.614  -2.087  0.00  0.00    -0.263 NA
ATOM     24  C   UNL     1      -3.876  10.242  -2.198  0.00  0.00    -0.027 A 
ATOM     30  C   UNL     1      -4.084  10.930  -3.373  0.00  0.00    +0.006 A 
ATOM     33  C   UNL     1      -4.930   9.605  -1.589  0.00  0.00    +0.114 A 
ATOM     35  C   UNL     1      -5.363  10.963  -3.916  0.00  0.00    +0.020 A 
ATOM     37  C   UNL     1      -6.372  10.295  -3.240  0.00  0.00    +0.111 A 
ENDBRANCH  20  24
ENDBRANCH  19  20
ENDBRANCH  10  19
ENDBRANCH  12  16
TORSDOF 8
ENDMDL
MODEL 10
REMARK VINA RESULT:      -5.1      3.568      7.701
REMARK  Name = 7113396
REMARK  9 active torsions:
REMARK  status: ('A' for Active; 'I' for Inactive)
REMARK    1  A    between atoms: O_6  and  C_23
REMARK    2  A    between atoms: O_6  and  C_36
REMARK    3  A    between atoms: N_10  and  C_19
REMARK    4  A    between atoms: C_12  and  C_16
REMARK    5  A    between atoms: C_17  and  C_21
REMARK    6  A    between atoms: C_18  and  C_22
REMARK    7  A    between atoms: C_19  and  C_20
REMARK    8  A    between atoms: C_19  and  C_23
REMARK    9  A    between atoms: C_20  and  C_24
REMARK                            x       y       z     vdW  Elec       q    Type
REMARK                         _______ _______ _______ _____ _____    ______ ____
ROOT
ATOM      4  O   UNL     1     -10.681 -10.756  18.783  0.00  0.00    -0.269 OA
ATOM      5  O   UNL     1      -3.951 -11.804  18.955  0.00  0.00    -0.270 OA
ATOM      8  N   UNL     1      -8.546 -10.448  17.924  0.00  0.00    -0.283 N 
ATOM      9  N   UNL     1      -5.704 -10.591  17.995  0.00  0.00    -0.294 N 
ATOM     12  C   UNL     1      -7.790 -10.417  16.657  0.00  0.00    +0.179 C 
ATOM     13  C   UNL     1      -6.342  -9.955  16.836  0.00  0.00    +0.140 C 
ATOM     14  C   UNL     1      -7.854 -11.037  19.078  0.00  0.00    +0.128 C 
ATOM     15  C   UNL     1      -6.453 -10.467  19.242  0.00  0.00    +0.127 C 
ATOM     17  C   UNL     1      -9.917 -10.130  18.047  0.00  0.00    +0.254 C 
ATOM     18  C   UNL     1      -4.486 -11.274  17.983  0.00  0.00    +0.247 C 
ENDROOT
BRANCH  18  22
ATOM      2  F   UNL     1      -0.992  -9.777  14.981  0.00  0.00    -0.205 F 
ATOM     22  C   UNL     1      -3.763 -11.373  16.709  0.00  0.00    +0.040 A 
ATOM     26  C   UNL     1      -2.702 -10.511  16.446  0.00  0.00    +0.051 A 
ATOM     27  C   UNL     1      -4.141 -12.330  15.770  0.00  0.00    +0.013 A 
ATOM     31  C   UNL     1      -2.014 -10.605  15.237  0.00  0.00    +0.124 A 
ATOM     32  C   UNL     1      -3.453 -12.424  14.561  0.00  0.00    +0.004 A 
ATOM     34  C   UNL     1      -2.389 -11.562  14.294  0.00  0.00    +0.038 A 
ENDBRANCH  18  22
BRANCH  17  21
ATOM      1  S   UNL     1     -11.749  -9.269  16.217  0.00  0.00    -0.092 S 
ATOM     21  C   UNL     1     -10.416  -9.014  17.255  0.00  0.00    +0.074 A 
ATOM     25  C   UNL     1      -9.958  -7.720  17.213  0.00  0.00    +0.021 A 
ATOM     28  C   UNL     1     -10.714  -6.919  16.310  0.00  0.00    +0.008 A 
ATOM     29  C   UNL     1     -11.720  -7.636  15.699  0.00  0.00    +0.046 A 
ENDBRANCH  17  21
BRANCH  12  16
ATOM      3  O   UNL     1      -7.746 -12.802  16.800  0.00  0.00    -0.274 OA
ATOM     10  N   UNL     1      -8.028 -11.803  14.716  0.00  0.00    -0.301 N 
ATOM     16  C   UNL     1      -7.856 -11.806  16.090  0.00  0.00    +0.236 C 
ATOM     38  H   UNL     1      -8.092 -10.920  14.219  0.00  0.00    +0.150 HD
BRANCH  10  19
ATOM     19  C   UNL     1      -8.099 -13.011  13.927  0.00  0.00    +0.186 C 
BRANCH  19  23
ATOM      7  O   UNL     1     -10.008 -14.476  14.151  0.00  0.00    -0.249 OA
ATOM     23  C   UNL     1      -9.536 -13.448  13.677  0.00  0.00    +0.328 C 
BRANCH  23   6
ATOM      6  O   UNL     1     -10.204 -12.580  12.864  0.00  0.00    -0.467 OA
ATOM     36  C   UNL     1     -11.040 -13.179  11.869  0.00  0.00    +0.280 C 
ENDBRANCH  23   6
ENDBRANCH  19  23
BRANCH  19  20
ATOM     20  C   UNL     1      -7.299 -12.889  12.621  0.00  0.00    +0.070 C 
BRANCH  20  24
ATOM     11  N   UNL     1      -4.121 -14.472  11.355  0.00  0.00    -0.263 NA
ATOM     24  C   UNL     1      -6.121 -13.830  12.512  0.00  0.00    -0.027 A 
ATOM     30  C   UNL     1      -5.968 -14.856  13.418  0.00  0.00    +0.006 A 
ATOM     33  C   UNL     1      -5.196 -13.666  11.510  0.00  0.00    +0.114 A 
ATOM     35  C   UNL     1      -4.875 -15.706  13.292  0.00  0.00    +0.020 A 
ATOM     37  C   UNL     1      -3.988 -15.474  12.253  0.00  0.00    +0.111 A 
ENDBRANCH  20  24
ENDBRANCH  19  20
ENDBRANCH  10  19
ENDBRANCH  12  16
TORSDOF 8
ENDMDL
