MODEL 1
REMARK VINA RESULT:      -7.7      0.000      0.000
REMARK  Name = 28990957
REMARK  10 active torsions:
REMARK  status: ('A' for Active; 'I' for Inactive)
REMARK    1  A    between atoms: N_3  and  C_19
REMARK    2  A    between atoms: N_4  and  C_14
REMARK    3  A    between atoms: N_4  and  C_18
REMARK    4  A    between atoms: N_6  and  C_29
REMARK    5  A    between atoms: N_6  and  C_30
REMARK    6  A    between atoms: N_6  and  C_31
REMARK    7  A    between atoms: C_8  and  C_15
REMARK    8  A    between atoms: C_9  and  C_14
REMARK    9  A    between atoms: C_17  and  C_20
REMARK   10  A    between atoms: C_18  and  C_21
REMARK                            x       y       z     vdW  Elec       q    Type
REMARK                         _______ _______ _______ _____ _____    ______ ____
ROOT
ATOM      2  N   UNL     1      12.723   6.658  20.856  0.00  0.00    -0.298 NA
ATOM      7  C   UNL     1      11.605   8.950  20.328  0.00  0.00    +0.002 C 
ATOM      8  C   UNL     1      11.981   8.213  19.013  0.00  0.00    +0.055 C 
ATOM      9  C   UNL     1      13.375   7.736  21.646  0.00  0.00    +0.071 C 
ATOM     10  C   UNL     1      12.869   9.124  21.196  0.00  0.00    +0.024 C 
ATOM     11  C   UNL     1      10.647   8.019  21.102  0.00  0.00    +0.019 C 
ATOM     12  C   UNL     1      12.818   6.962  19.407  0.00  0.00    +0.094 C 
ATOM     13  C   UNL     1      11.288   6.626  21.229  0.00  0.00    +0.085 C 
ENDROOT
BRANCH   8  15
ATOM      3  N   UNL     1      12.057   9.210  16.681  0.00  0.00    -0.270 N 
ATOM      5  N   UNL     1      12.797   9.949  15.837  0.00  0.00    -0.171 NA
ATOM     15  C   UNL     1      12.636   9.019  17.900  0.00  0.00    +0.044 A 
ATOM     16  C   UNL     1      13.839   9.679  17.851  0.00  0.00    +0.053 A 
ATOM     17  C   UNL     1      13.885  10.233  16.558  0.00  0.00    +0.100 A 
ATOM     19  C   UNL     1      10.774   8.710  16.240  0.00  0.00    +0.172 C 
BRANCH  17  20
ATOM      1  S   UNL     1      15.489  10.980  14.376  0.00  0.00    -0.095 S 
ATOM     20  C   UNL     1      14.988  11.045  16.012  0.00  0.00    +0.039 A 
ATOM     22  C   UNL     1      15.734  11.938  16.747  0.00  0.00    +0.018 A 
ATOM     25  C   UNL     1      16.731  12.580  15.956  0.00  0.00    +0.008 A 
ATOM     26  C   UNL     1      16.709  12.151  14.648  0.00  0.00    +0.046 A 
ENDBRANCH  17  20
ENDBRANCH   8  15
BRANCH   9  14
ATOM     14  C   UNL     1      14.902   7.645  21.605  0.00  0.00    +0.100 C 
BRANCH  14   4
ATOM      4  N   UNL     1      15.328   6.375  21.039  0.00  0.00    -0.311 NA
ATOM     32  H   UNL     1      14.512   5.858  20.712  0.00  0.00    +0.122 HD
BRANCH   4  18
ATOM     18  C   UNL     1      16.255   6.579  19.934  0.00  0.00    +0.116 C 
BRANCH  18  21
ATOM     21  C   UNL     1      17.681   6.325  20.343  0.00  0.00    -0.033 A 
ATOM     23  C   UNL     1      18.263   7.091  21.354  0.00  0.00    +0.007 A 
ATOM     24  C   UNL     1      18.422   5.324  19.714  0.00  0.00    +0.007 A 
ATOM     27  C   UNL     1      19.584   6.856  21.736  0.00  0.00    +0.023 A 
ATOM     28  C   UNL     1      19.743   5.089  20.094  0.00  0.00    +0.023 A 
ATOM     29  C   UNL     1      20.323   5.855  21.105  0.00  0.00    +0.029 A 
BRANCH  29   6
ATOM      6  N   UNL     1      21.659   5.617  21.489  0.00  0.00    -0.336 N 
ATOM     30  C   UNL     1      22.094   5.894  22.844  0.00  0.00    +0.129 C 
ATOM     31  C   UNL     1      22.614   5.085  20.536  0.00  0.00    +0.129 C 
ENDBRANCH  29   6
ENDBRANCH  18  21
ENDBRANCH   4  18
ENDBRANCH  14   4
ENDBRANCH   9  14
TORSDOF 7
ENDMDL
MODEL 2
REMARK VINA RESULT:      -7.3     25.933     29.954
REMARK  Name = 28990957
REMARK  10 active torsions:
REMARK  status: ('A' for Active; 'I' for Inactive)
REMARK    1  A    between atoms: N_3  and  C_19
REMARK    2  A    between atoms: N_4  and  C_14
REMARK    3  A    between atoms: N_4  and  C_18
REMARK    4  A    between atoms: N_6  and  C_29
REMARK    5  A    between atoms: N_6  and  C_30
REMARK    6  A    between atoms: N_6  and  C_31
REMARK    7  A    between atoms: C_8  and  C_15
REMARK    8  A    between atoms: C_9  and  C_14
REMARK    9  A    between atoms: C_17  and  C_20
REMARK   10  A    between atoms: C_18  and  C_21
REMARK                            x       y       z     vdW  Elec       q    Type
REMARK                         _______ _______ _______ _____ _____    ______ ____
ROOT
ATOM      2  N   UNL     1      -5.763 -10.370  18.069  0.00  0.00    -0.298 NA
ATOM      7  C   UNL     1      -4.884 -12.422  16.728  0.00  0.00    +0.002 C 
ATOM      8  C   UNL     1      -4.007 -11.171  16.444  0.00  0.00    +0.055 C 
ATOM      9  C   UNL     1      -6.884 -11.019  17.340  0.00  0.00    +0.071 C 
ATOM     10  C   UNL     1      -6.353 -12.106  16.380  0.00  0.00    +0.024 C 
ATOM     11  C   UNL     1      -4.822 -12.673  18.251  0.00  0.00    +0.019 C 
ATOM     12  C   UNL     1      -4.708  -9.954  17.112  0.00  0.00    +0.094 C 
ATOM     13  C   UNL     1      -5.180 -11.373  18.993  0.00  0.00    +0.085 C 
ENDROOT
BRANCH   8  15
ATOM      3  N   UNL     1      -2.328 -10.590  14.632  0.00  0.00    -0.270 N 
ATOM      5  N   UNL     1      -2.181 -10.371  13.315  0.00  0.00    -0.171 NA
ATOM     15  C   UNL     1      -3.606 -10.887  15.003  0.00  0.00    +0.044 A 
ATOM     16  C   UNL     1      -4.347 -10.862  13.848  0.00  0.00    +0.053 A 
ATOM     17  C   UNL     1      -3.418 -10.539  12.840  0.00  0.00    +0.100 A 
ATOM     19  C   UNL     1      -1.172 -10.496  15.495  0.00  0.00    +0.172 C 
BRANCH  17  20
ATOM      1  S   UNL     1      -4.189 -11.697  10.399  0.00  0.00    -0.095 S 
ATOM     20  C   UNL     1      -3.727 -10.392  11.407  0.00  0.00    +0.039 A 
ATOM     22  C   UNL     1      -3.679  -9.199  10.719  0.00  0.00    +0.018 A 
ATOM     25  C   UNL     1      -4.027  -9.359   9.347  0.00  0.00    +0.008 A 
ATOM     26  C   UNL     1      -4.327 -10.667   9.038  0.00  0.00    +0.046 A 
ENDBRANCH  17  20
ENDBRANCH   8  15
BRANCH   9  14
ATOM     14  C   UNL     1      -7.773 -10.005  16.617  0.00  0.00    +0.100 C 
BRANCH  14   4
ATOM      4  N   UNL     1      -8.319  -9.037  17.555  0.00  0.00    -0.311 NA
ATOM     32  H   UNL     1      -8.222  -8.098  17.171  0.00  0.00    +0.122 HD
BRANCH   4  18
ATOM     18  C   UNL     1      -9.724  -9.312  17.831  0.00  0.00    +0.116 C 
BRANCH  18  21
ATOM     21  C   UNL     1     -10.637  -8.445  17.007  0.00  0.00    -0.033 A 
ATOM     23  C   UNL     1     -10.140  -7.295  16.392  0.00  0.00    +0.007 A 
ATOM     24  C   UNL     1     -11.981  -8.789  16.858  0.00  0.00    +0.007 A 
ATOM     27  C   UNL     1     -10.986  -6.491  15.628  0.00  0.00    +0.023 A 
ATOM     28  C   UNL     1     -12.827  -7.985  16.094  0.00  0.00    +0.023 A 
ATOM     29  C   UNL     1     -12.329  -6.837  15.480  0.00  0.00    +0.029 A 
BRANCH  29   6
ATOM      6  N   UNL     1     -13.185  -6.024  14.707  0.00  0.00    -0.336 N 
ATOM     30  C   UNL     1     -12.644  -4.950  13.897  0.00  0.00    +0.129 C 
ATOM     31  C   UNL     1     -14.616  -6.255  14.708  0.00  0.00    +0.129 C 
ENDBRANCH  29   6
ENDBRANCH  18  21
ENDBRANCH   4  18
ENDBRANCH  14   4
ENDBRANCH   9  14
TORSDOF 7
ENDMDL
MODEL 3
REMARK VINA RESULT:      -7.1      3.751      5.594
REMARK  Name = 28990957
REMARK  10 active torsions:
REMARK  status: ('A' for Active; 'I' for Inactive)
REMARK    1  A    between atoms: N_3  and  C_19
REMARK    2  A    between atoms: N_4  and  C_14
REMARK    3  A    between atoms: N_4  and  C_18
REMARK    4  A    between atoms: N_6  and  C_29
REMARK    5  A    between atoms: N_6  and  C_30
REMARK    6  A    between atoms: N_6  and  C_31
REMARK    7  A    between atoms: C_8  and  C_15
REMARK    8  A    between atoms: C_9  and  C_14
REMARK    9  A    between atoms: C_17  and  C_20
REMARK   10  A    between atoms: C_18  and  C_21
REMARK                            x       y       z     vdW  Elec       q    Type
REMARK                         _______ _______ _______ _____ _____    ______ ____
ROOT
ATOM      2  N   UNL     1      12.324  12.842  24.721  0.00  0.00    -0.298 NA
ATOM      7  C   UNL     1      10.798  13.080  22.625  0.00  0.00    +0.002 C 
ATOM      8  C   UNL     1      11.193  11.593  22.845  0.00  0.00    +0.055 C 
ATOM      9  C   UNL     1      12.843  13.916  23.834  0.00  0.00    +0.071 C 
ATOM     10  C   UNL     1      12.077  13.933  22.494  0.00  0.00    +0.024 C 
ATOM     11  C   UNL     1      10.073  13.542  23.907  0.00  0.00    +0.019 C 
ATOM     12  C   UNL     1      12.255  11.559  23.980  0.00  0.00    +0.094 C 
ATOM     13  C   UNL     1      10.948  13.215  25.130  0.00  0.00    +0.085 C 
ENDROOT
BRANCH   8  15
ATOM      3  N   UNL     1      11.312   9.453  21.485  0.00  0.00    -0.270 N 
ATOM      5  N   UNL     1      11.777   8.913  20.346  0.00  0.00    -0.171 NA
ATOM     15  C   UNL     1      11.615  10.775  21.633  0.00  0.00    +0.044 A 
ATOM     16  C   UNL     1      12.328  11.123  20.513  0.00  0.00    +0.053 A 
ATOM     17  C   UNL     1      12.397   9.938  19.755  0.00  0.00    +0.100 A 
ATOM     19  C   UNL     1      10.567   8.625  22.405  0.00  0.00    +0.172 C 
BRANCH  17  20
ATOM      1  S   UNL     1      12.947   8.390  17.476  0.00  0.00    -0.095 S 
ATOM     20  C   UNL     1      13.067   9.793  18.450  0.00  0.00    +0.039 A 
ATOM     22  C   UNL     1      13.858  10.760  17.870  0.00  0.00    +0.018 A 
ATOM     25  C   UNL     1      14.372  10.342  16.609  0.00  0.00    +0.008 A 
ATOM     26  C   UNL     1      13.955   9.074  16.273  0.00  0.00    +0.046 A 
ENDBRANCH  17  20
ENDBRANCH   8  15
BRANCH   9  14
ATOM     14  C   UNL     1      14.356  13.819  23.626  0.00  0.00    +0.100 C 
BRANCH  14   4
ATOM      4  N   UNL     1      14.661  13.305  22.300  0.00  0.00    -0.311 NA
ATOM     32  H   UNL     1      14.659  14.073  21.629  0.00  0.00    +0.122 HD
BRANCH   4  18
ATOM     18  C   UNL     1      15.958  12.641  22.282  0.00  0.00    +0.116 C 
BRANCH  18  21
ATOM     21  C   UNL     1      15.841  11.194  21.883  0.00  0.00    -0.033 A 
ATOM     23  C   UNL     1      16.432  10.747  20.701  0.00  0.00    +0.007 A 
ATOM     24  C   UNL     1      15.142  10.299  22.695  0.00  0.00    +0.007 A 
ATOM     27  C   UNL     1      16.325   9.406  20.330  0.00  0.00    +0.023 A 
ATOM     28  C   UNL     1      15.034   8.959  22.324  0.00  0.00    +0.023 A 
ATOM     29  C   UNL     1      15.626   8.513  21.143  0.00  0.00    +0.029 A 
BRANCH  29   6
ATOM      6  N   UNL     1      15.517   7.158  20.768  0.00  0.00    -0.336 N 
ATOM     30  C   UNL     1      14.222   6.583  20.458  0.00  0.00    +0.129 C 
ATOM     31  C   UNL     1      16.699   6.322  20.681  0.00  0.00    +0.129 C 
ENDBRANCH  29   6
ENDBRANCH  18  21
ENDBRANCH   4  18
ENDBRANCH  14   4
ENDBRANCH   9  14
TORSDOF 7
ENDMDL
MODEL 4
REMARK VINA RESULT:      -6.9     27.137     30.596
REMARK  Name = 28990957
REMARK  10 active torsions:
REMARK  status: ('A' for Active; 'I' for Inactive)
REMARK    1  A    between atoms: N_3  and  C_19
REMARK    2  A    between atoms: N_4  and  C_14
REMARK    3  A    between atoms: N_4  and  C_18
REMARK    4  A    between atoms: N_6  and  C_29
REMARK    5  A    between atoms: N_6  and  C_30
REMARK    6  A    between atoms: N_6  and  C_31
REMARK    7  A    between atoms: C_8  and  C_15
REMARK    8  A    between atoms: C_9  and  C_14
REMARK    9  A    between atoms: C_17  and  C_20
REMARK   10  A    between atoms: C_18  and  C_21
REMARK                            x       y       z     vdW  Elec       q    Type
REMARK                         _______ _______ _______ _____ _____    ______ ____
ROOT
ATOM      2  N   UNL     1      -5.994 -10.290   9.369  0.00  0.00    -0.298 NA
ATOM      7  C   UNL     1      -4.170  -8.965  10.671  0.00  0.00    +0.002 C 
ATOM      8  C   UNL     1      -4.443 -10.332  11.358  0.00  0.00    +0.055 C 
ATOM      9  C   UNL     1      -6.462  -8.903   9.630  0.00  0.00    +0.071 C 
ATOM     10  C   UNL     1      -5.488  -8.168  10.576  0.00  0.00    +0.024 C 
ATOM     11  C   UNL     1      -3.721  -9.274   9.227  0.00  0.00    +0.019 C 
ATOM     12  C   UNL     1      -5.673 -10.968  10.648  0.00  0.00    +0.094 C 
ATOM     13  C   UNL     1      -4.751 -10.206   8.564  0.00  0.00    +0.085 C 
ENDROOT
BRANCH   8  15
ATOM      3  N   UNL     1      -3.517 -10.598  13.705  0.00  0.00    -0.270 N 
ATOM      5  N   UNL     1      -3.839 -10.583  15.010  0.00  0.00    -0.171 NA
ATOM     15  C   UNL     1      -4.572 -10.361  12.874  0.00  0.00    +0.044 A 
ATOM     16  C   UNL     1      -5.660 -10.179  13.691  0.00  0.00    +0.053 A 
ATOM     17  C   UNL     1      -5.150 -10.327  14.995  0.00  0.00    +0.100 A 
ATOM     19  C   UNL     1      -2.147 -10.850  13.320  0.00  0.00    +0.172 C 
BRANCH  17  20
ATOM      1  S   UNL     1      -5.402 -10.829  17.748  0.00  0.00    -0.095 S 
ATOM     20  C   UNL     1      -5.933 -10.219  16.239  0.00  0.00    +0.039 A 
ATOM     22  C   UNL     1      -7.171  -9.620  16.330  0.00  0.00    +0.018 A 
ATOM     25  C   UNL     1      -7.689  -9.663  17.656  0.00  0.00    +0.008 A 
ATOM     26  C   UNL     1      -6.829 -10.293  18.528  0.00  0.00    +0.046 A 
ENDBRANCH  17  20
ENDBRANCH   8  15
BRANCH   9  14
ATOM     14  C   UNL     1      -7.901  -8.863  10.150  0.00  0.00    +0.100 C 
BRANCH  14   4
ATOM      4  N   UNL     1      -8.848  -8.878   9.047  0.00  0.00    -0.311 NA
ATOM     32  H   UNL     1      -9.790  -9.028   9.409  0.00  0.00    +0.122 HD
BRANCH   4  18
ATOM     18  C   UNL     1      -8.802  -7.629   8.299  0.00  0.00    +0.116 C 
BRANCH  18  21
ATOM     21  C   UNL     1      -9.803  -6.629   8.814  0.00  0.00    -0.033 A 
ATOM     23  C   UNL     1     -10.929  -7.067   9.511  0.00  0.00    +0.007 A 
ATOM     24  C   UNL     1      -9.605  -5.265   8.594  0.00  0.00    +0.007 A 
ATOM     27  C   UNL     1     -11.858  -6.142   9.989  0.00  0.00    +0.023 A 
ATOM     28  C   UNL     1     -10.533  -4.340   9.071  0.00  0.00    +0.023 A 
ATOM     29  C   UNL     1     -11.659  -4.778   9.769  0.00  0.00    +0.029 A 
BRANCH  29   6
ATOM      6  N   UNL     1     -12.597  -3.843  10.251  0.00  0.00    -0.336 N 
ATOM     30  C   UNL     1     -12.543  -3.391  11.628  0.00  0.00    +0.129 C 
ATOM     31  C   UNL     1     -13.624  -3.314   9.375  0.00  0.00    +0.129 C 
ENDBRANCH  29   6
ENDBRANCH  18  21
ENDBRANCH   4  18
ENDBRANCH  14   4
ENDBRANCH   9  14
TORSDOF 7
ENDMDL
MODEL 5
REMARK VINA RESULT:      -6.9     12.937     16.974
REMARK  Name = 28990957
REMARK  10 active torsions:
REMARK  status: ('A' for Active; 'I' for Inactive)
REMARK    1  A    between atoms: N_3  and  C_19
REMARK    2  A    between atoms: N_4  and  C_14
REMARK    3  A    between atoms: N_4  and  C_18
REMARK    4  A    between atoms: N_6  and  C_29
REMARK    5  A    between atoms: N_6  and  C_30
REMARK    6  A    between atoms: N_6  and  C_31
REMARK    7  A    between atoms: C_8  and  C_15
REMARK    8  A    between atoms: C_9  and  C_14
REMARK    9  A    between atoms: C_17  and  C_20
REMARK   10  A    between atoms: C_18  and  C_21
REMARK                            x       y       z     vdW  Elec       q    Type
REMARK                         _______ _______ _______ _____ _____    ______ ____
ROOT
ATOM      2  N   UNL     1      12.165   6.704   0.260  0.00  0.00    -0.298 NA
ATOM      7  C   UNL     1      10.683   4.777   1.194  0.00  0.00    +0.002 C 
ATOM      8  C   UNL     1      10.163   6.154   1.693  0.00  0.00    +0.055 C 
ATOM      9  C   UNL     1      13.022   5.653   0.871  0.00  0.00    +0.071 C 
ATOM     10  C   UNL     1      12.159   4.608   1.610  0.00  0.00    +0.024 C 
ATOM     11  C   UNL     1      10.648   4.820  -0.348  0.00  0.00    +0.019 C 
ATOM     12  C   UNL     1      11.206   7.226   1.265  0.00  0.00    +0.094 C 
ATOM     13  C   UNL     1      11.389   6.077  -0.837  0.00  0.00    +0.085 C 
ENDROOT
BRANCH   8  15
ATOM      3  N   UNL     1       8.941   7.268   3.618  0.00  0.00    -0.270 N 
ATOM      5  N   UNL     1       8.716   7.211   4.942  0.00  0.00    -0.171 NA
ATOM     15  C   UNL     1       9.766   6.286   3.157  0.00  0.00    +0.044 A 
ATOM     16  C   UNL     1      10.104   5.533   4.254  0.00  0.00    +0.053 A 
ATOM     17  C   UNL     1       9.428   6.148   5.325  0.00  0.00    +0.100 A 
ATOM     19  C   UNL     1       8.318   8.315   2.842  0.00  0.00    +0.172 C 
BRANCH  17  20
ATOM      1  S   UNL     1       9.029   6.707   8.049  0.00  0.00    -0.095 S 
ATOM     20  C   UNL     1       9.470   5.707   6.731  0.00  0.00    +0.039 A 
ATOM     22  C   UNL     1       9.865   4.454   7.142  0.00  0.00    +0.018 A 
ATOM     25  C   UNL     1       9.804   4.312   8.558  0.00  0.00    +0.008 A 
ATOM     26  C   UNL     1       9.365   5.462   9.175  0.00  0.00    +0.046 A 
ENDBRANCH  17  20
ENDBRANCH   8  15
BRANCH   9  14
ATOM     14  C   UNL     1      14.107   6.241   1.776  0.00  0.00    +0.100 C 
BRANCH  14   4
ATOM      4  N   UNL     1      13.760   6.066   3.177  0.00  0.00    -0.311 NA
ATOM     32  H   UNL     1      14.089   5.155   3.498  0.00  0.00    +0.122 HD
BRANCH   4  18
ATOM     18  C   UNL     1      14.347   7.117   3.997  0.00  0.00    +0.116 C 
BRANCH  18  21
ATOM     21  C   UNL     1      13.302   7.874   4.771  0.00  0.00    -0.033 A 
ATOM     23  C   UNL     1      13.129   7.629   6.134  0.00  0.00    +0.007 A 
ATOM     24  C   UNL     1      12.504   8.821   4.127  0.00  0.00    +0.007 A 
ATOM     27  C   UNL     1      12.161   8.331   6.852  0.00  0.00    +0.023 A 
ATOM     28  C   UNL     1      11.535   9.522   4.845  0.00  0.00    +0.023 A 
ATOM     29  C   UNL     1      11.364   9.277   6.207  0.00  0.00    +0.029 A 
BRANCH  29   6
ATOM      6  N   UNL     1      10.385   9.986   6.933  0.00  0.00    -0.336 N 
ATOM     30  C   UNL     1      10.541  10.205   8.357  0.00  0.00    +0.129 C 
ATOM     31  C   UNL     1       9.211  10.511   6.263  0.00  0.00    +0.129 C 
ENDBRANCH  29   6
ENDBRANCH  18  21
ENDBRANCH   4  18
ENDBRANCH  14   4
ENDBRANCH   9  14
TORSDOF 7
ENDMDL
MODEL 6
REMARK VINA RESULT:      -6.8     27.209     32.075
REMARK  Name = 28990957
REMARK  10 active torsions:
REMARK  status: ('A' for Active; 'I' for Inactive)
REMARK    1  A    between atoms: N_3  and  C_19
REMARK    2  A    between atoms: N_4  and  C_14
REMARK    3  A    between atoms: N_4  and  C_18
REMARK    4  A    between atoms: N_6  and  C_29
REMARK    5  A    between atoms: N_6  and  C_30
REMARK    6  A    between atoms: N_6  and  C_31
REMARK    7  A    between atoms: C_8  and  C_15
REMARK    8  A    between atoms: C_9  and  C_14
REMARK    9  A    between atoms: C_17  and  C_20
REMARK   10  A    between atoms: C_18  and  C_21
REMARK                            x       y       z     vdW  Elec       q    Type
REMARK                         _______ _______ _______ _____ _____    ______ ____
ROOT
ATOM      2  N   UNL     1     -17.307   4.735  24.084  0.00  0.00    -0.298 NA
ATOM      7  C   UNL     1     -17.515   2.313  25.018  0.00  0.00    +0.002 C 
ATOM      8  C   UNL     1     -17.740   3.354  26.150  0.00  0.00    +0.055 C 
ATOM      9  C   UNL     1     -16.135   3.923  23.659  0.00  0.00    +0.071 C 
ATOM     10  C   UNL     1     -16.135   2.553  24.370  0.00  0.00    +0.024 C 
ATOM     11  C   UNL     1     -18.580   2.595  23.936  0.00  0.00    +0.019 C 
ATOM     12  C   UNL     1     -17.402   4.754  25.564  0.00  0.00    +0.094 C 
ATOM     13  C   UNL     1     -18.528   4.083  23.550  0.00  0.00    +0.085 C 
ENDROOT
BRANCH   8  15
ATOM      3  N   UNL     1     -17.360   2.045  28.290  0.00  0.00    -0.270 N 
ATOM      5  N   UNL     1     -16.658   2.012  29.435  0.00  0.00    -0.171 NA
ATOM     15  C   UNL     1     -17.066   3.111  27.493  0.00  0.00    +0.044 A 
ATOM     16  C   UNL     1     -16.103   3.826  28.162  0.00  0.00    +0.053 A 
ATOM     17  C   UNL     1     -15.890   3.103  29.351  0.00  0.00    +0.100 A 
ATOM     19  C   UNL     1     -18.318   0.997  28.021  0.00  0.00    +0.172 C 
BRANCH  17  20
ATOM      1  S   UNL     1     -15.191   4.759  31.510  0.00  0.00    -0.095 S 
ATOM     20  C   UNL     1     -14.938   3.466  30.416  0.00  0.00    +0.039 A 
ATOM     22  C   UNL     1     -13.748   2.815  30.650  0.00  0.00    +0.018 A 
ATOM     25  C   UNL     1     -13.034   3.385  31.744  0.00  0.00    +0.008 A 
ATOM     26  C   UNL     1     -13.706   4.449  32.303  0.00  0.00    +0.046 A 
ENDBRANCH  17  20
ENDBRANCH   8  15
BRANCH   9  14
ATOM     14  C   UNL     1     -14.812   4.667  23.853  0.00  0.00    +0.100 C 
BRANCH  14   4
ATOM      4  N   UNL     1     -14.130   4.846  22.581  0.00  0.00    -0.311 NA
ATOM     32  H   UNL     1     -14.168   3.977  22.049  0.00  0.00    +0.122 HD
BRANCH   4  18
ATOM     18  C   UNL     1     -14.737   5.922  21.809  0.00  0.00    +0.116 C 
BRANCH  18  21
ATOM     21  C   UNL     1     -13.730   6.627  20.941  0.00  0.00    -0.033 A 
ATOM     23  C   UNL     1     -12.369   6.537  21.238  0.00  0.00    +0.007 A 
ATOM     24  C   UNL     1     -14.155   7.370  19.839  0.00  0.00    +0.007 A 
ATOM     27  C   UNL     1     -11.435   7.189  20.433  0.00  0.00    +0.023 A 
ATOM     28  C   UNL     1     -13.221   8.023  19.035  0.00  0.00    +0.023 A 
ATOM     29  C   UNL     1     -11.861   7.932  19.332  0.00  0.00    +0.029 A 
BRANCH  29   6
ATOM      6  N   UNL     1     -10.917   8.592  18.519  0.00  0.00    -0.336 N 
ATOM     30  C   UNL     1     -10.783   8.244  17.118  0.00  0.00    +0.129 C 
ATOM     31  C   UNL     1     -10.071   9.632  19.071  0.00  0.00    +0.129 C 
ENDBRANCH  29   6
ENDBRANCH  18  21
ENDBRANCH   4  18
ENDBRANCH  14   4
ENDBRANCH   9  14
TORSDOF 7
ENDMDL
MODEL 7
REMARK VINA RESULT:      -6.8     27.657     29.908
REMARK  Name = 28990957
REMARK  10 active torsions:
REMARK  status: ('A' for Active; 'I' for Inactive)
REMARK    1  A    between atoms: N_3  and  C_19
REMARK    2  A    between atoms: N_4  and  C_14
REMARK    3  A    between atoms: N_4  and  C_18
REMARK    4  A    between atoms: N_6  and  C_29
REMARK    5  A    between atoms: N_6  and  C_30
REMARK    6  A    between atoms: N_6  and  C_31
REMARK    7  A    between atoms: C_8  and  C_15
REMARK    8  A    between atoms: C_9  and  C_14
REMARK    9  A    between atoms: C_17  and  C_20
REMARK   10  A    between atoms: C_18  and  C_21
REMARK                            x       y       z     vdW  Elec       q    Type
REMARK                         _______ _______ _______ _____ _____    ______ ____
ROOT
ATOM      2  N   UNL     1      -5.473 -12.730  16.981  0.00  0.00    -0.298 NA
ATOM      7  C   UNL     1      -5.805 -10.733  18.620  0.00  0.00    +0.002 C 
ATOM      8  C   UNL     1      -7.170 -11.398  18.288  0.00  0.00    +0.055 C 
ATOM      9  C   UNL     1      -4.770 -11.526  16.464  0.00  0.00    +0.071 C 
ATOM     10  C   UNL     1      -5.125 -10.283  17.310  0.00  0.00    +0.024 C 
ATOM     11  C   UNL     1      -4.914 -11.831  19.240  0.00  0.00    +0.019 C 
ATOM     12  C   UNL     1      -6.917 -12.438  17.160  0.00  0.00    +0.094 C 
ATOM     13  C   UNL     1      -4.898 -13.056  18.308  0.00  0.00    +0.085 C 
ENDROOT
BRANCH   8  15
ATOM      3  N   UNL     1      -9.470 -10.437  18.766  0.00  0.00    -0.270 N 
ATOM      5  N   UNL     1     -10.403  -9.577  18.325  0.00  0.00    -0.171 NA
ATOM     15  C   UNL     1      -8.355 -10.492  17.984  0.00  0.00    +0.044 A 
ATOM     16  C   UNL     1      -8.572  -9.605  16.958  0.00  0.00    +0.053 A 
ATOM     17  C   UNL     1      -9.848  -9.070  17.220  0.00  0.00    +0.100 A 
ATOM     19  C   UNL     1      -9.721 -11.191  19.974  0.00  0.00    +0.172 C 
BRANCH  17  20
ATOM      1  S   UNL     1     -11.101  -8.361  14.807  0.00  0.00    -0.095 S 
ATOM     20  C   UNL     1     -10.540  -8.062  16.397  0.00  0.00    +0.039 A 
ATOM     22  C   UNL     1     -10.811  -6.775  16.808  0.00  0.00    +0.018 A 
ATOM     25  C   UNL     1     -11.489  -6.026  15.804  0.00  0.00    +0.008 A 
ATOM     26  C   UNL     1     -11.710  -6.767  14.665  0.00  0.00    +0.046 A 
ENDBRANCH  17  20
ENDBRANCH   8  15
BRANCH   9  14
ATOM     14  C   UNL     1      -5.031 -11.295  14.974  0.00  0.00    +0.100 C 
BRANCH  14   4
ATOM      4  N   UNL     1      -4.195 -10.219  14.465  0.00  0.00    -0.311 NA
ATOM     32  H   UNL     1      -3.803  -9.694  15.247  0.00  0.00    +0.122 HD
BRANCH   4  18
ATOM     18  C   UNL     1      -3.119 -10.740  13.634  0.00  0.00    +0.116 C 
BRANCH  18  21
ATOM     21  C   UNL     1      -3.532 -10.859  12.191  0.00  0.00    -0.033 A 
ATOM     23  C   UNL     1      -3.221 -12.012  11.469  0.00  0.00    +0.007 A 
ATOM     24  C   UNL     1      -4.225  -9.817  11.574  0.00  0.00    +0.007 A 
ATOM     27  C   UNL     1      -3.604 -12.124  10.132  0.00  0.00    +0.023 A 
ATOM     28  C   UNL     1      -4.607  -9.927  10.237  0.00  0.00    +0.023 A 
ATOM     29  C   UNL     1      -4.296 -11.080   9.517  0.00  0.00    +0.029 A 
BRANCH  29   6
ATOM      6  N   UNL     1      -4.683 -11.192   8.166  0.00  0.00    -0.336 N 
ATOM     30  C   UNL     1      -4.452 -12.423   7.435  0.00  0.00    +0.129 C 
ATOM     31  C   UNL     1      -5.323 -10.080   7.490  0.00  0.00    +0.129 C 
ENDBRANCH  29   6
ENDBRANCH  18  21
ENDBRANCH   4  18
ENDBRANCH  14   4
ENDBRANCH   9  14
TORSDOF 7
ENDMDL
MODEL 8
REMARK VINA RESULT:      -6.7     26.983     30.490
REMARK  Name = 28990957
REMARK  10 active torsions:
REMARK  status: ('A' for Active; 'I' for Inactive)
REMARK    1  A    between atoms: N_3  and  C_19
REMARK    2  A    between atoms: N_4  and  C_14
REMARK    3  A    between atoms: N_4  and  C_18
REMARK    4  A    between atoms: N_6  and  C_29
REMARK    5  A    between atoms: N_6  and  C_30
REMARK    6  A    between atoms: N_6  and  C_31
REMARK    7  A    between atoms: C_8  and  C_15
REMARK    8  A    between atoms: C_9  and  C_14
REMARK    9  A    between atoms: C_17  and  C_20
REMARK   10  A    between atoms: C_18  and  C_21
REMARK                            x       y       z     vdW  Elec       q    Type
REMARK                         _______ _______ _______ _____ _____    ______ ____
ROOT
ATOM      2  N   UNL     1      -5.317 -10.625  18.177  0.00  0.00    -0.298 NA
ATOM      7  C   UNL     1      -5.187 -12.543  16.420  0.00  0.00    +0.002 C 
ATOM      8  C   UNL     1      -4.063 -11.499  16.171  0.00  0.00    +0.055 C 
ATOM      9  C   UNL     1      -6.656 -10.851  17.570  0.00  0.00    +0.071 C 
ATOM     10  C   UNL     1      -6.558 -11.836  16.385  0.00  0.00    +0.024 C 
ATOM     11  C   UNL     1      -4.988 -13.077  17.855  0.00  0.00    +0.019 C 
ATOM     12  C   UNL     1      -4.329 -10.297  17.120  0.00  0.00    +0.094 C 
ATOM     13  C   UNL     1      -4.896 -11.888  18.829  0.00  0.00    +0.085 C 
ENDROOT
BRANCH   8  15
ATOM      3  N   UNL     1      -2.590 -11.210  14.124  0.00  0.00    -0.270 N 
ATOM      5  N   UNL     1      -2.562 -10.754  12.861  0.00  0.00    -0.171 NA
ATOM     15  C   UNL     1      -3.798 -11.057  14.738  0.00  0.00    +0.044 A 
ATOM     16  C   UNL     1      -4.617 -10.460  13.812  0.00  0.00    +0.053 A 
ATOM     17  C   UNL     1      -3.804 -10.297  12.675  0.00  0.00    +0.100 A 
ATOM     19  C   UNL     1      -1.395 -11.793  14.690  0.00  0.00    +0.172 C 
BRANCH  17  20
ATOM      1  S   UNL     1      -5.817  -9.137  11.096  0.00  0.00    -0.095 S 
ATOM     20  C   UNL     1      -4.227  -9.696  11.398  0.00  0.00    +0.039 A 
ATOM     22  C   UNL     1      -3.401  -9.517  10.310  0.00  0.00    +0.018 A 
ATOM     25  C   UNL     1      -4.083  -8.912   9.215  0.00  0.00    +0.008 A 
ATOM     26  C   UNL     1      -5.403  -8.652   9.507  0.00  0.00    +0.046 A 
ENDBRANCH  17  20
ENDBRANCH   8  15
BRANCH   9  14
ATOM     14  C   UNL     1      -7.341  -9.542  17.169  0.00  0.00    +0.100 C 
BRANCH  14   4
ATOM      4  N   UNL     1      -8.722  -9.781  16.783  0.00  0.00    -0.311 NA
ATOM     32  H   UNL     1      -9.062 -10.627  17.241  0.00  0.00    +0.122 HD
BRANCH   4  18
ATOM     18  C   UNL     1      -9.569  -8.652  17.146  0.00  0.00    +0.116 C 
BRANCH  18  21
ATOM     21  C   UNL     1     -10.835  -9.097  17.828  0.00  0.00    -0.033 A 
ATOM     23  C   UNL     1     -10.769  -9.786  19.040  0.00  0.00    +0.007 A 
ATOM     24  C   UNL     1     -12.075  -8.822  17.250  0.00  0.00    +0.007 A 
ATOM     27  C   UNL     1     -11.942 -10.198  19.673  0.00  0.00    +0.023 A 
ATOM     28  C   UNL     1     -13.248  -9.234  17.882  0.00  0.00    +0.023 A 
ATOM     29  C   UNL     1     -13.181  -9.922  19.094  0.00  0.00    +0.029 A 
BRANCH  29   6
ATOM      6  N   UNL     1     -14.366 -10.339  19.733  0.00  0.00    -0.336 N 
ATOM     30  C   UNL     1     -15.050 -11.543  19.301  0.00  0.00    +0.129 C 
ATOM     31  C   UNL     1     -14.914  -9.574  20.836  0.00  0.00    +0.129 C 
ENDBRANCH  29   6
ENDBRANCH  18  21
ENDBRANCH   4  18
ENDBRANCH  14   4
ENDBRANCH   9  14
TORSDOF 7
ENDMDL
MODEL 9
REMARK VINA RESULT:      -6.7     14.517     19.435
REMARK  Name = 28990957
REMARK  10 active torsions:
REMARK  status: ('A' for Active; 'I' for Inactive)
REMARK    1  A    between atoms: N_3  and  C_19
REMARK    2  A    between atoms: N_4  and  C_14
REMARK    3  A    between atoms: N_4  and  C_18
REMARK    4  A    between atoms: N_6  and  C_29
REMARK    5  A    between atoms: N_6  and  C_30
REMARK    6  A    between atoms: N_6  and  C_31
REMARK    7  A    between atoms: C_8  and  C_15
REMARK    8  A    between atoms: C_9  and  C_14
REMARK    9  A    between atoms: C_17  and  C_20
REMARK   10  A    between atoms: C_18  and  C_21
REMARK                            x       y       z     vdW  Elec       q    Type
REMARK                         _______ _______ _______ _____ _____    ______ ____
ROOT
ATOM      2  N   UNL     1      10.259   7.076   6.715  0.00  0.00    -0.298 NA
ATOM      7  C   UNL     1       9.268   5.074   5.378  0.00  0.00    +0.002 C 
ATOM      8  C   UNL     1      10.502   5.663   4.639  0.00  0.00    +0.055 C 
ATOM      9  C   UNL     1       8.792   7.251   6.552  0.00  0.00    +0.071 C 
ATOM     10  C   UNL     1       8.220   6.187   5.590  0.00  0.00    +0.024 C 
ATOM     11  C   UNL     1       9.754   4.635   6.776  0.00  0.00    +0.019 C 
ATOM     12  C   UNL     1      10.909   6.966   5.385  0.00  0.00    +0.094 C 
ATOM     13  C   UNL     1      10.488   5.808   7.448  0.00  0.00    +0.085 C 
ENDROOT
BRANCH   8  15
ATOM      3  N   UNL     1      10.809   4.923   2.231  0.00  0.00    -0.270 N 
ATOM      5  N   UNL     1      10.646   5.295   0.950  0.00  0.00    -0.171 NA
ATOM     15  C   UNL     1      10.410   5.865   3.133  0.00  0.00    +0.044 A 
ATOM     16  C   UNL     1       9.954   6.926   2.391  0.00  0.00    +0.053 A 
ATOM     17  C   UNL     1      10.123   6.520   1.054  0.00  0.00    +0.100 A 
ATOM     19  C   UNL     1      11.364   3.622   2.523  0.00  0.00    +0.172 C 
BRANCH  17  20
ATOM      1  S   UNL     1       9.471   6.639  -1.676  0.00  0.00    -0.095 S 
ATOM     20  C   UNL     1       9.777   7.319  -0.135  0.00  0.00    +0.039 A 
ATOM     22  C   UNL     1       9.661   8.691  -0.143  0.00  0.00    +0.018 A 
ATOM     25  C   UNL     1       9.315   9.191  -1.432  0.00  0.00    +0.008 A 
ATOM     26  C   UNL     1       9.181   8.182  -2.359  0.00  0.00    +0.046 A 
ENDBRANCH  17  20
ENDBRANCH   8  15
BRANCH   9  14
ATOM     14  C   UNL     1       8.419   8.670   6.120  0.00  0.00    +0.100 C 
BRANCH  14   4
ATOM      4  N   UNL     1       7.493   8.641   4.999  0.00  0.00    -0.311 NA
ATOM     32  H   UNL     1       6.601   8.252   5.304  0.00  0.00    +0.122 HD
BRANCH   4  18
ATOM     18  C   UNL     1       7.286   9.977   4.456  0.00  0.00    +0.116 C 
BRANCH  18  21
ATOM     21  C   UNL     1       6.404   9.956   3.236  0.00  0.00    -0.033 A 
ATOM     23  C   UNL     1       5.072  10.359   3.332  0.00  0.00    +0.007 A 
ATOM     24  C   UNL     1       6.919   9.535   2.009  0.00  0.00    +0.007 A 
ATOM     27  C   UNL     1       4.254  10.341   2.202  0.00  0.00    +0.023 A 
ATOM     28  C   UNL     1       6.101   9.516   0.879  0.00  0.00    +0.023 A 
ATOM     29  C   UNL     1       4.770   9.919   0.976  0.00  0.00    +0.029 A 
BRANCH  29   6
ATOM      6  N   UNL     1       3.943   9.900  -0.167  0.00  0.00    -0.336 N 
ATOM     30  C   UNL     1       4.442   9.382  -1.426  0.00  0.00    +0.129 C 
ATOM     31  C   UNL     1       2.581  10.392  -0.097  0.00  0.00    +0.129 C 
ENDBRANCH  29   6
ENDBRANCH  18  21
ENDBRANCH   4  18
ENDBRANCH  14   4
ENDBRANCH   9  14
TORSDOF 7
ENDMDL
MODEL 10
REMARK VINA RESULT:      -6.5     34.908     37.602
REMARK  Name = 28990957
REMARK  10 active torsions:
REMARK  status: ('A' for Active; 'I' for Inactive)
REMARK    1  A    between atoms: N_3  and  C_19
REMARK    2  A    between atoms: N_4  and  C_14
REMARK    3  A    between atoms: N_4  and  C_18
REMARK    4  A    between atoms: N_6  and  C_29
REMARK    5  A    between atoms: N_6  and  C_30
REMARK    6  A    between atoms: N_6  and  C_31
REMARK    7  A    between atoms: C_8  and  C_15
REMARK    8  A    between atoms: C_9  and  C_14
REMARK    9  A    between atoms: C_17  and  C_20
REMARK   10  A    between atoms: C_18  and  C_21
REMARK                            x       y       z     vdW  Elec       q    Type
REMARK                         _______ _______ _______ _____ _____    ______ ____
ROOT
ATOM      2  N   UNL     1      -6.920 -13.870  36.801  0.00  0.00    -0.298 NA
ATOM      7  C   UNL     1      -7.507 -11.400  36.223  0.00  0.00    +0.002 C 
ATOM      8  C   UNL     1      -8.632 -12.040  37.084  0.00  0.00    +0.055 C 
ATOM      9  C   UNL     1      -6.757 -13.637  35.342  0.00  0.00    +0.071 C 
ATOM     10  C   UNL     1      -7.297 -12.245  34.949  0.00  0.00    +0.024 C 
ATOM     11  C   UNL     1      -6.207 -11.493  37.050  0.00  0.00    +0.019 C 
ATOM     12  C   UNL     1      -8.309 -13.556  37.215  0.00  0.00    +0.094 C 
ATOM     13  C   UNL     1      -6.004 -12.946  37.514  0.00  0.00    +0.085 C 
ENDROOT
BRANCH   8  15
ATOM      3  N   UNL     1     -10.745 -10.638  36.975  0.00  0.00    -0.270 N 
ATOM      5  N   UNL     1     -12.012 -10.614  36.530  0.00  0.00    -0.171 NA
ATOM     15  C   UNL     1     -10.078 -11.790  36.679  0.00  0.00    +0.044 A 
ATOM     16  C   UNL     1     -10.970 -12.574  35.991  0.00  0.00    +0.053 A 
ATOM     17  C   UNL     1     -12.145 -11.800  35.929  0.00  0.00    +0.100 A 
ATOM     19  C   UNL     1     -10.228  -9.495  37.693  0.00  0.00    +0.172 C 
BRANCH  17  20
ATOM      1  S   UNL     1     -14.701 -12.950  36.122  0.00  0.00    -0.095 S 
ATOM     20  C   UNL     1     -13.406 -12.206  35.283  0.00  0.00    +0.039 A 
ATOM     22  C   UNL     1     -13.685 -12.036  33.946  0.00  0.00    +0.018 A 
ATOM     25  C   UNL     1     -14.980 -12.523  33.605  0.00  0.00    +0.008 A 
ATOM     26  C   UNL     1     -15.640 -13.046  34.694  0.00  0.00    +0.046 A 
ENDBRANCH  17  20
ENDBRANCH   8  15
BRANCH   9  14
ATOM     14  C   UNL     1      -7.386 -14.751  34.501  0.00  0.00    +0.100 C 
BRANCH  14   4
ATOM      4  N   UNL     1      -7.739 -14.261  33.179  0.00  0.00    -0.311 NA
ATOM     32  H   UNL     1      -6.928 -13.812  32.754  0.00  0.00    +0.122 HD
BRANCH   4  18
ATOM     18  C   UNL     1      -8.202 -15.347  32.325  0.00  0.00    +0.116 C 
BRANCH  18  21
ATOM     21  C   UNL     1      -9.635 -15.158  31.904  0.00  0.00    -0.033 A 
ATOM     23  C   UNL     1     -10.644 -15.105  32.867  0.00  0.00    +0.007 A 
ATOM     24  C   UNL     1      -9.956 -15.035  30.551  0.00  0.00    +0.007 A 
ATOM     27  C   UNL     1     -11.972 -14.928  32.477  0.00  0.00    +0.023 A 
ATOM     28  C   UNL     1     -11.283 -14.860  30.162  0.00  0.00    +0.023 A 
ATOM     29  C   UNL     1     -12.291 -14.806  31.125  0.00  0.00    +0.029 A 
BRANCH  29   6
ATOM      6  N   UNL     1     -13.633 -14.628  30.731  0.00  0.00    -0.336 N 
ATOM     30  C   UNL     1     -14.064 -13.380  30.133  0.00  0.00    +0.129 C 
ATOM     31  C   UNL     1     -14.599 -15.695  30.912  0.00  0.00    +0.129 C 
ENDBRANCH  29   6
ENDBRANCH  18  21
ENDBRANCH   4  18
ENDBRANCH  14   4
ENDBRANCH   9  14
TORSDOF 7
ENDMDL
