MODEL 1
REMARK VINA RESULT:      -6.0      0.000      0.000
REMARK  Name = 25338953
REMARK  7 active torsions:
REMARK  status: ('A' for Active; 'I' for Inactive)
REMARK    1  A    between atoms: S_1  and  N_7
REMARK    2  A    between atoms: S_1  and  C_18
REMARK    3  A    between atoms: O_5  and  C_15
REMARK    4  A    between atoms: O_5  and  C_25
REMARK    5  A    between atoms: N_8  and  C_16
REMARK    6  A    between atoms: C_10  and  C_15
REMARK    7  A    between atoms: C_16  and  C_19
REMARK                            x       y       z     vdW  Elec       q    Type
REMARK                         _______ _______ _______ _____ _____    ______ ____
ROOT
ATOM      7  N   UNL     1      -9.170 -10.060  17.169  0.00  0.00    -0.156 NA
ATOM      8  N   UNL     1      -5.714 -11.466  17.512  0.00  0.00    -0.328 N 
ATOM      9  N   UNL     1      -6.764 -13.438  17.580  0.00  0.00    -0.240 NA
ATOM     10  C   UNL     1      -9.840 -11.228  17.851  0.00  0.00    +0.194 C 
ATOM     11  C   UNL     1      -9.144 -12.572  17.556  0.00  0.00    +0.089 C 
ATOM     12  C   UNL     1      -7.702  -9.870  17.486  0.00  0.00    +0.165 C 
ATOM     13  C   UNL     1      -7.049 -11.193  17.509  0.00  0.00    +0.057 A 
ATOM     14  C   UNL     1      -7.671 -12.416  17.556  0.00  0.00    +0.066 A 
ATOM     17  C   UNL     1      -5.592 -12.832  17.554  0.00  0.00    +0.200 A 
ENDROOT
BRANCH   7   1
ATOM      1  S   UNL     1      -9.618  -9.800  15.532  0.00  0.00    +0.068 S 
ATOM      3  O   UNL     1     -10.583 -10.803  15.141  0.00  0.00    -0.152 OA
ATOM      4  O   UNL     1      -8.422  -9.570  14.751  0.00  0.00    -0.152 OA
BRANCH   1  18
ATOM      2  S   UNL     1     -11.583  -7.928  14.431  0.00  0.00    -0.077 S 
ATOM     18  C   UNL     1     -10.469  -8.262  15.687  0.00  0.00    +0.143 A 
ATOM     20  C   UNL     1     -10.428  -7.251  16.623  0.00  0.00    +0.036 A 
ATOM     23  C   UNL     1     -11.322  -6.190  16.303  0.00  0.00    +0.010 A 
ATOM     24  C   UNL     1     -12.013  -6.429  15.136  0.00  0.00    +0.047 A 
ENDBRANCH   1  18
ENDBRANCH   7   1
BRANCH  10  15
ATOM      6  O   UNL     1      -9.314 -11.574  20.173  0.00  0.00    -0.249 OA
ATOM     15  C   UNL     1      -9.876 -10.910  19.313  0.00  0.00    +0.326 C 
BRANCH  15   5
ATOM      5  O   UNL     1     -10.618  -9.784  19.517  0.00  0.00    -0.467 OA
ATOM     25  C   UNL     1     -12.030  -9.991  19.627  0.00  0.00    +0.280 C 
ENDBRANCH  15   5
ENDBRANCH  10  15
BRANCH   8  16
ATOM     16  C   UNL     1      -4.628 -10.518  17.484  0.00  0.00    +0.158 C 
BRANCH  16  19
ATOM     19  C   UNL     1      -3.794 -10.602  16.229  0.00  0.00    -0.028 A 
ATOM     21  C   UNL     1      -4.413 -10.584  14.979  0.00  0.00    +0.005 A 
ATOM     22  C   UNL     1      -2.406 -10.699  16.318  0.00  0.00    +0.005 A 
ATOM     26  C   UNL     1      -3.643 -10.661  13.818  0.00  0.00    +0.000 A 
ATOM     27  C   UNL     1      -1.636 -10.777  15.158  0.00  0.00    +0.000 A 
ATOM     28  C   UNL     1      -2.254 -10.758  13.908  0.00  0.00    +0.000 A 
ENDBRANCH  16  19
ENDBRANCH   8  16
TORSDOF 6
ENDMDL
MODEL 2
REMARK VINA RESULT:      -5.7     26.433     28.689
REMARK  Name = 25338953
REMARK  7 active torsions:
REMARK  status: ('A' for Active; 'I' for Inactive)
REMARK    1  A    between atoms: S_1  and  N_7
REMARK    2  A    between atoms: S_1  and  C_18
REMARK    3  A    between atoms: O_5  and  C_15
REMARK    4  A    between atoms: O_5  and  C_25
REMARK    5  A    between atoms: N_8  and  C_16
REMARK    6  A    between atoms: C_10  and  C_15
REMARK    7  A    between atoms: C_16  and  C_19
REMARK                            x       y       z     vdW  Elec       q    Type
REMARK                         _______ _______ _______ _____ _____    ______ ____
ROOT
ATOM      7  N   UNL     1      11.056   8.630   5.944  0.00  0.00    -0.156 NA
ATOM      8  N   UNL     1      10.344   5.389   4.205  0.00  0.00    -0.328 N 
ATOM      9  N   UNL     1       9.946   4.626   6.267  0.00  0.00    -0.240 NA
ATOM     10  C   UNL     1      11.427   7.981   7.255  0.00  0.00    +0.194 C 
ATOM     11  C   UNL     1      10.602   6.711   7.547  0.00  0.00    +0.089 C 
ATOM     12  C   UNL     1      11.167   7.747   4.720  0.00  0.00    +0.165 C 
ATOM     13  C   UNL     1      10.653   6.406   5.058  0.00  0.00    +0.057 A 
ATOM     14  C   UNL     1      10.406   5.912   6.315  0.00  0.00    +0.066 A 
ATOM     17  C   UNL     1       9.922   4.339   4.980  0.00  0.00    +0.200 A 
ENDROOT
BRANCH   7   1
ATOM      1  S   UNL     1       9.690   9.669   5.991  0.00  0.00    +0.068 S 
ATOM      3  O   UNL     1       8.496   8.872   6.165  0.00  0.00    -0.152 OA
ATOM      4  O   UNL     1       9.796  10.630   4.914  0.00  0.00    -0.152 OA
BRANCH   1  18
ATOM      2  S   UNL     1      11.221  11.714   7.424  0.00  0.00    -0.077 S 
ATOM     18  C   UNL     1      10.000  10.517   7.508  0.00  0.00    +0.143 A 
ATOM     20  C   UNL     1       9.458  10.419   8.771  0.00  0.00    +0.036 A 
ATOM     23  C   UNL     1      10.053  11.339   9.680  0.00  0.00    +0.010 A 
ATOM     24  C   UNL     1      11.027  12.105   9.079  0.00  0.00    +0.047 A 
ENDBRANCH   1  18
ENDBRANCH   7   1
BRANCH  10  15
ATOM      6  O   UNL     1      13.395   6.599   7.333  0.00  0.00    -0.249 OA
ATOM     15  C   UNL     1      12.898   7.709   7.200  0.00  0.00    +0.326 C 
BRANCH  15   5
ATOM      5  O   UNL     1      13.569   8.875   6.980  0.00  0.00    -0.467 OA
ATOM     25  C   UNL     1      14.785   8.753   6.235  0.00  0.00    +0.280 C 
ENDBRANCH  15   5
ENDBRANCH  10  15
BRANCH   8  16
ATOM     16  C   UNL     1      10.442   5.396   2.765  0.00  0.00    +0.158 C 
BRANCH  16  19
ATOM     19  C   UNL     1      11.764   4.875   2.255  0.00  0.00    -0.028 A 
ATOM     21  C   UNL     1      11.915   3.518   1.972  0.00  0.00    +0.005 A 
ATOM     22  C   UNL     1      12.833   5.750   2.067  0.00  0.00    +0.005 A 
ATOM     26  C   UNL     1      13.135   3.035   1.499  0.00  0.00    +0.000 A 
ATOM     27  C   UNL     1      14.054   5.268   1.595  0.00  0.00    +0.000 A 
ATOM     28  C   UNL     1      14.205   3.911   1.312  0.00  0.00    +0.000 A 
ENDBRANCH  16  19
ENDBRANCH   8  16
TORSDOF 6
ENDMDL
MODEL 3
REMARK VINA RESULT:      -5.7      3.969      7.231
REMARK  Name = 25338953
REMARK  7 active torsions:
REMARK  status: ('A' for Active; 'I' for Inactive)
REMARK    1  A    between atoms: S_1  and  N_7
REMARK    2  A    between atoms: S_1  and  C_18
REMARK    3  A    between atoms: O_5  and  C_15
REMARK    4  A    between atoms: O_5  and  C_25
REMARK    5  A    between atoms: N_8  and  C_16
REMARK    6  A    between atoms: C_10  and  C_15
REMARK    7  A    between atoms: C_16  and  C_19
REMARK                            x       y       z     vdW  Elec       q    Type
REMARK                         _______ _______ _______ _____ _____    ______ ____
ROOT
ATOM      7  N   UNL     1      -5.104 -10.647  12.995  0.00  0.00    -0.156 NA
ATOM      8  N   UNL     1      -7.945 -10.008  15.353  0.00  0.00    -0.328 N 
ATOM      9  N   UNL     1      -9.155 -11.131  13.847  0.00  0.00    -0.240 NA
ATOM     10  C   UNL     1      -5.988 -10.782  11.780  0.00  0.00    +0.194 C 
ATOM     11  C   UNL     1      -7.347 -11.437  12.099  0.00  0.00    +0.089 C 
ATOM     12  C   UNL     1      -5.697  -9.877  14.156  0.00  0.00    +0.165 C 
ATOM     13  C   UNL     1      -7.113 -10.265  14.305  0.00  0.00    +0.057 A 
ATOM     14  C   UNL     1      -7.878 -10.950  13.393  0.00  0.00    +0.066 A 
ATOM     17  C   UNL     1      -9.163 -10.550  15.031  0.00  0.00    +0.200 A 
ENDROOT
BRANCH   7   1
ATOM      1  S   UNL     1      -4.200 -12.045  13.414  0.00  0.00    +0.068 S 
ATOM      3  O   UNL     1      -3.512 -12.532  12.239  0.00  0.00    -0.152 OA
ATOM      4  O   UNL     1      -5.034 -12.921  14.209  0.00  0.00    -0.152 OA
BRANCH   1  18
ATOM      2  S   UNL     1      -1.875 -10.288  13.708  0.00  0.00    -0.077 S 
ATOM     18  C   UNL     1      -2.996 -11.323  14.485  0.00  0.00    +0.143 A 
ATOM     20  C   UNL     1      -2.761 -11.416  15.839  0.00  0.00    +0.036 A 
ATOM     23  C   UNL     1      -1.646 -10.628  16.244  0.00  0.00    +0.010 A 
ATOM     24  C   UNL     1      -1.071  -9.962  15.184  0.00  0.00    +0.047 A 
ENDBRANCH   1  18
ENDBRANCH   7   1
BRANCH  10  15
ATOM      6  O   UNL     1      -7.211  -8.888  10.939  0.00  0.00    -0.249 OA
ATOM     15  C   UNL     1      -6.136  -9.410  11.201  0.00  0.00    +0.326 C 
BRANCH  15   5
ATOM      5  O   UNL     1      -4.903  -8.855  11.021  0.00  0.00    -0.467 OA
ATOM     25  C   UNL     1      -4.371  -8.954   9.697  0.00  0.00    +0.280 C 
ENDBRANCH  15   5
ENDBRANCH  10  15
BRANCH   8  16
ATOM     16  C   UNL     1      -7.626  -9.298  16.568  0.00  0.00    +0.158 C 
BRANCH  16  19
ATOM     19  C   UNL     1      -7.041 -10.184  17.641  0.00  0.00    -0.028 A 
ATOM     21  C   UNL     1      -7.884 -10.871  18.513  0.00  0.00    +0.005 A 
ATOM     22  C   UNL     1      -5.658 -10.315  17.760  0.00  0.00    +0.005 A 
ATOM     26  C   UNL     1      -7.345 -11.690  19.505  0.00  0.00    +0.000 A 
ATOM     27  C   UNL     1      -5.117 -11.133  18.752  0.00  0.00    +0.000 A 
ATOM     28  C   UNL     1      -5.961 -11.821  19.625  0.00  0.00    +0.000 A 
ENDBRANCH  16  19
ENDBRANCH   8  16
TORSDOF 6
ENDMDL
MODEL 4
REMARK VINA RESULT:      -5.7      3.037      4.561
REMARK  Name = 25338953
REMARK  7 active torsions:
REMARK  status: ('A' for Active; 'I' for Inactive)
REMARK    1  A    between atoms: S_1  and  N_7
REMARK    2  A    between atoms: S_1  and  C_18
REMARK    3  A    between atoms: O_5  and  C_15
REMARK    4  A    between atoms: O_5  and  C_25
REMARK    5  A    between atoms: N_8  and  C_16
REMARK    6  A    between atoms: C_10  and  C_15
REMARK    7  A    between atoms: C_16  and  C_19
REMARK                            x       y       z     vdW  Elec       q    Type
REMARK                         _______ _______ _______ _____ _____    ______ ____
ROOT
ATOM      7  N   UNL     1      -5.781 -10.952  15.558  0.00  0.00    -0.156 NA
ATOM      8  N   UNL     1      -2.716 -11.775  13.567  0.00  0.00    -0.328 N 
ATOM      9  N   UNL     1      -2.904 -13.785  14.526  0.00  0.00    -0.240 NA
ATOM     10  C   UNL     1      -5.512 -11.988  16.622  0.00  0.00    +0.194 C 
ATOM     11  C   UNL     1      -4.851 -13.263  16.061  0.00  0.00    +0.089 C 
ATOM     12  C   UNL     1      -4.576 -10.503  14.760  0.00  0.00    +0.165 C 
ATOM     13  C   UNL     1      -3.745 -11.683  14.456  0.00  0.00    +0.057 A 
ATOM     14  C   UNL     1      -3.838 -12.925  15.034  0.00  0.00    +0.066 A 
ATOM     17  C   UNL     1      -2.243 -13.061  13.645  0.00  0.00    +0.200 A 
ENDROOT
BRANCH   7   1
ATOM      1  S   UNL     1      -7.229 -11.168  14.662  0.00  0.00    +0.068 S 
ATOM      3  O   UNL     1      -7.810 -12.448  15.002  0.00  0.00    -0.152 OA
ATOM      4  O   UNL     1      -6.985 -10.802  13.283  0.00  0.00    -0.152 OA
BRANCH   1  18
ATOM      2  S   UNL     1      -9.537  -9.381  14.415  0.00  0.00    -0.077 S 
ATOM     18  C   UNL     1      -8.231  -9.909  15.388  0.00  0.00    +0.143 A 
ATOM     20  C   UNL     1      -8.185  -9.247  16.595  0.00  0.00    +0.036 A 
ATOM     23  C   UNL     1      -9.236  -8.294  16.723  0.00  0.00    +0.010 A 
ATOM     24  C   UNL     1     -10.045  -8.264  15.609  0.00  0.00    +0.047 A 
ENDBRANCH   1  18
ENDBRANCH   7   1
BRANCH  10  15
ATOM      6  O   UNL     1      -3.540 -11.670  17.964  0.00  0.00    -0.249 OA
ATOM     15  C   UNL     1      -4.675 -11.321  17.669  0.00  0.00    +0.326 C 
BRANCH  15   5
ATOM      5  O   UNL     1      -5.373 -10.289  18.222  0.00  0.00    -0.467 OA
ATOM     25  C   UNL     1      -6.078 -10.598  19.428  0.00  0.00    +0.280 C 
ENDBRANCH  15   5
ENDBRANCH  10  15
BRANCH   8  16
ATOM     16  C   UNL     1      -2.206 -10.734  12.709  0.00  0.00    +0.158 C 
BRANCH  16  19
ATOM     19  C   UNL     1      -2.948 -10.622  11.400  0.00  0.00    -0.028 A 
ATOM     21  C   UNL     1      -3.051  -9.386  10.761  0.00  0.00    +0.005 A 
ATOM     22  C   UNL     1      -3.532 -11.752  10.830  0.00  0.00    +0.005 A 
ATOM     26  C   UNL     1      -3.736  -9.282   9.551  0.00  0.00    +0.000 A 
ATOM     27  C   UNL     1      -4.218 -11.648   9.619  0.00  0.00    +0.000 A 
ATOM     28  C   UNL     1      -4.320 -10.413   8.980  0.00  0.00    +0.000 A 
ENDBRANCH  16  19
ENDBRANCH   8  16
TORSDOF 6
ENDMDL
MODEL 5
REMARK VINA RESULT:      -5.7      5.079      7.766
REMARK  Name = 25338953
REMARK  7 active torsions:
REMARK  status: ('A' for Active; 'I' for Inactive)
REMARK    1  A    between atoms: S_1  and  N_7
REMARK    2  A    between atoms: S_1  and  C_18
REMARK    3  A    between atoms: O_5  and  C_15
REMARK    4  A    between atoms: O_5  and  C_25
REMARK    5  A    between atoms: N_8  and  C_16
REMARK    6  A    between atoms: C_10  and  C_15
REMARK    7  A    between atoms: C_16  and  C_19
REMARK                            x       y       z     vdW  Elec       q    Type
REMARK                         _______ _______ _______ _____ _____    ______ ____
ROOT
ATOM      7  N   UNL     1      -3.965 -11.549  12.166  0.00  0.00    -0.156 NA
ATOM      8  N   UNL     1      -3.855 -10.531  15.770  0.00  0.00    -0.328 N 
ATOM      9  N   UNL     1      -1.723 -11.189  15.661  0.00  0.00    -0.240 NA
ATOM     10  C   UNL     1      -2.833 -12.541  12.290  0.00  0.00    +0.194 C 
ATOM     11  C   UNL     1      -1.752 -12.091  13.294  0.00  0.00    +0.089 C 
ATOM     12  C   UNL     1      -4.682 -11.209  13.455  0.00  0.00    +0.165 C 
ATOM     13  C   UNL     1      -3.680 -11.064  14.528  0.00  0.00    +0.057 A 
ATOM     14  C   UNL     1      -2.367 -11.464  14.487  0.00  0.00    +0.066 A 
ATOM     17  C   UNL     1      -2.648 -10.628  16.414  0.00  0.00    +0.200 A 
ENDROOT
BRANCH   7   1
ATOM      1  S   UNL     1      -3.686 -10.234  11.099  0.00  0.00    +0.068 S 
ATOM      3  O   UNL     1      -2.265  -9.973  11.031  0.00  0.00    -0.152 OA
ATOM      4  O   UNL     1      -4.625  -9.177  11.405  0.00  0.00    -0.152 OA
BRANCH   1  18
ATOM      2  S   UNL     1      -4.857  -9.883   8.437  0.00  0.00    -0.077 S 
ATOM     18  C   UNL     1      -4.174 -10.969   9.570  0.00  0.00    +0.143 A 
ATOM     20  C   UNL     1      -4.122 -12.258   9.085  0.00  0.00    +0.036 A 
ATOM     23  C   UNL     1      -4.650 -12.353   7.765  0.00  0.00    +0.010 A 
ATOM     24  C   UNL     1      -5.085 -11.134   7.292  0.00  0.00    +0.047 A 
ENDBRANCH   1  18
ENDBRANCH   7   1
BRANCH  10  15
ATOM      6  O   UNL     1      -4.444 -14.320  12.123  0.00  0.00    -0.249 OA
ATOM     15  C   UNL     1      -3.450 -13.853  12.660  0.00  0.00    +0.326 C 
BRANCH  15   5
ATOM      5  O   UNL     1      -2.733 -14.425  13.670  0.00  0.00    -0.467 OA
ATOM     25  C   UNL     1      -3.505 -15.094  14.671  0.00  0.00    +0.280 C 
ENDBRANCH  15   5
ENDBRANCH  10  15
BRANCH   8  16
ATOM     16  C   UNL     1      -5.068  -9.976  16.319  0.00  0.00    +0.158 C 
BRANCH  16  19
ATOM     19  C   UNL     1      -5.696 -10.846  17.381  0.00  0.00    -0.028 A 
ATOM     21  C   UNL     1      -6.491 -11.931  17.012  0.00  0.00    +0.005 A 
ATOM     22  C   UNL     1      -5.483 -10.565  18.729  0.00  0.00    +0.005 A 
ATOM     26  C   UNL     1      -7.071 -12.736  17.992  0.00  0.00    +0.000 A 
ATOM     27  C   UNL     1      -6.064 -11.369  19.710  0.00  0.00    +0.000 A 
ATOM     28  C   UNL     1      -6.858 -12.455  19.341  0.00  0.00    +0.000 A 
ENDBRANCH  16  19
ENDBRANCH   8  16
TORSDOF 6
ENDMDL
MODEL 6
REMARK VINA RESULT:      -5.6      5.124      7.887
REMARK  Name = 25338953
REMARK  7 active torsions:
REMARK  status: ('A' for Active; 'I' for Inactive)
REMARK    1  A    between atoms: S_1  and  N_7
REMARK    2  A    between atoms: S_1  and  C_18
REMARK    3  A    between atoms: O_5  and  C_15
REMARK    4  A    between atoms: O_5  and  C_25
REMARK    5  A    between atoms: N_8  and  C_16
REMARK    6  A    between atoms: C_10  and  C_15
REMARK    7  A    between atoms: C_16  and  C_19
REMARK                            x       y       z     vdW  Elec       q    Type
REMARK                         _______ _______ _______ _____ _____    ______ ____
ROOT
ATOM      7  N   UNL     1      -4.459 -10.834  11.192  0.00  0.00    -0.156 NA
ATOM      8  N   UNL     1      -4.254 -10.461  14.914  0.00  0.00    -0.328 N 
ATOM      9  N   UNL     1      -2.104 -11.000  14.626  0.00  0.00    -0.240 NA
ATOM     10  C   UNL     1      -3.289 -11.784  11.104  0.00  0.00    +0.194 C 
ATOM     11  C   UNL     1      -2.189 -11.473  12.139  0.00  0.00    +0.089 C 
ATOM     12  C   UNL     1      -5.140 -10.755  12.541  0.00  0.00    +0.165 C 
ATOM     13  C   UNL     1      -4.105 -10.759  13.592  0.00  0.00    +0.057 A 
ATOM     14  C   UNL     1      -2.781 -11.091  13.442  0.00  0.00    +0.066 A 
ATOM     17  C   UNL     1      -3.021 -10.619  15.495  0.00  0.00    +0.200 A 
ENDROOT
BRANCH   7   1
ATOM      1  S   UNL     1      -4.267  -9.341  10.366  0.00  0.00    +0.068 S 
ATOM      3  O   UNL     1      -2.859  -9.110  10.129  0.00  0.00    -0.152 OA
ATOM      4  O   UNL     1      -5.089  -8.341  11.011  0.00  0.00    -0.152 OA
BRANCH   1  18
ATOM      2  S   UNL     1      -6.503  -8.954   8.515  0.00  0.00    -0.077 S 
ATOM     18  C   UNL     1      -5.016  -9.746   8.820  0.00  0.00    +0.143 A 
ATOM     20  C   UNL     1      -4.653 -10.581   7.786  0.00  0.00    +0.036 A 
ATOM     23  C   UNL     1      -5.608 -10.569   6.729  0.00  0.00    +0.010 A 
ATOM     24  C   UNL     1      -6.664  -9.726   6.995  0.00  0.00    +0.047 A 
ENDBRANCH   1  18
ENDBRANCH   7   1
BRANCH  10  15
ATOM      6  O   UNL     1      -4.932 -13.519  10.821  0.00  0.00    -0.249 OA
ATOM     15  C   UNL     1      -3.844 -13.166  11.255  0.00  0.00    +0.326 C 
BRANCH  15   5
ATOM      5  O   UNL     1      -2.955 -13.942  11.938  0.00  0.00    -0.467 OA
ATOM     25  C   UNL     1      -2.765 -15.261  11.418  0.00  0.00    +0.280 C 
ENDBRANCH  15   5
ENDBRANCH  10  15
BRANCH   8  16
ATOM     16  C   UNL     1      -5.465 -10.062  15.588  0.00  0.00    +0.158 C 
BRANCH  16  19
ATOM     19  C   UNL     1      -5.777 -10.903  16.802  0.00  0.00    -0.028 A 
ATOM     21  C   UNL     1      -6.236 -12.210  16.643  0.00  0.00    +0.005 A 
ATOM     22  C   UNL     1      -5.608 -10.373  18.080  0.00  0.00    +0.005 A 
ATOM     26  C   UNL     1      -6.525 -12.989  17.764  0.00  0.00    +0.000 A 
ATOM     27  C   UNL     1      -5.898 -11.151  19.202  0.00  0.00    +0.000 A 
ATOM     28  C   UNL     1      -6.356 -12.459  19.043  0.00  0.00    +0.000 A 
ENDBRANCH  16  19
ENDBRANCH   8  16
TORSDOF 6
ENDMDL
MODEL 7
REMARK VINA RESULT:      -5.5     27.147     29.681
REMARK  Name = 25338953
REMARK  7 active torsions:
REMARK  status: ('A' for Active; 'I' for Inactive)
REMARK    1  A    between atoms: S_1  and  N_7
REMARK    2  A    between atoms: S_1  and  C_18
REMARK    3  A    between atoms: O_5  and  C_15
REMARK    4  A    between atoms: O_5  and  C_25
REMARK    5  A    between atoms: N_8  and  C_16
REMARK    6  A    between atoms: C_10  and  C_15
REMARK    7  A    between atoms: C_16  and  C_19
REMARK                            x       y       z     vdW  Elec       q    Type
REMARK                         _______ _______ _______ _____ _____    ______ ____
ROOT
ATOM      7  N   UNL     1      11.153   6.357   2.798  0.00  0.00    -0.156 NA
ATOM      8  N   UNL     1      11.471   6.795   6.505  0.00  0.00    -0.328 N 
ATOM      9  N   UNL     1       9.261   7.121   6.431  0.00  0.00    -0.240 NA
ATOM     10  C   UNL     1       9.899   7.189   2.688  0.00  0.00    +0.194 C 
ATOM     11  C   UNL     1       8.977   7.043   3.915  0.00  0.00    +0.089 C 
ATOM     12  C   UNL     1      12.009   6.619   4.019  0.00  0.00    +0.165 C 
ATOM     13  C   UNL     1      11.124   6.787   5.187  0.00  0.00    +0.057 A 
ATOM     14  C   UNL     1       9.766   6.994   5.168  0.00  0.00    +0.066 A 
ATOM     17  C   UNL     1      10.315   6.998   7.215  0.00  0.00    +0.200 A 
ENDROOT
BRANCH   7   1
ATOM      1  S   UNL     1      10.996   4.711   2.338  0.00  0.00    +0.068 S 
ATOM      3  O   UNL     1       9.991   4.604   1.303  0.00  0.00    -0.152 OA
ATOM      4  O   UNL     1      10.928   3.896   3.532  0.00  0.00    -0.152 OA
BRANCH   1  18
ATOM      2  S   UNL     1      13.097   5.710   0.559  0.00  0.00    -0.077 S 
ATOM     18  C   UNL     1      12.573   4.448   1.590  0.00  0.00    +0.143 A 
ATOM     20  C   UNL     1      13.490   3.422   1.660  0.00  0.00    +0.036 A 
ATOM     23  C   UNL     1      14.639   3.677   0.857  0.00  0.00    +0.010 A 
ATOM     24  C   UNL     1      14.555   4.887   0.203  0.00  0.00    +0.047 A 
ENDBRANCH   1  18
ENDBRANCH   7   1
BRANCH  10  15
ATOM      6  O   UNL     1      10.013   9.541   3.179  0.00  0.00    -0.249 OA
ATOM     15  C   UNL     1      10.337   8.602   2.465  0.00  0.00    +0.326 C 
BRANCH  15   5
ATOM      5  O   UNL     1      11.138   8.663   1.363  0.00  0.00    -0.467 OA
ATOM     25  C   UNL     1      12.230   9.584   1.446  0.00  0.00    +0.280 C 
ENDBRANCH  15   5
ENDBRANCH  10  15
BRANCH   8  16
ATOM     16  C   UNL     1      12.791   6.631   7.062  0.00  0.00    +0.158 C 
BRANCH  16  19
ATOM     19  C   UNL     1      13.714   7.787   6.762  0.00  0.00    -0.028 A 
ATOM     21  C   UNL     1      13.256   9.097   6.897  0.00  0.00    +0.005 A 
ATOM     22  C   UNL     1      15.024   7.545   6.349  0.00  0.00    +0.005 A 
ATOM     26  C   UNL     1      14.107  10.166   6.621  0.00  0.00    +0.000 A 
ATOM     27  C   UNL     1      15.876   8.614   6.072  0.00  0.00    +0.000 A 
ATOM     28  C   UNL     1      15.418   9.925   6.207  0.00  0.00    +0.000 A 
ENDBRANCH  16  19
ENDBRANCH   8  16
TORSDOF 6
ENDMDL
MODEL 8
REMARK VINA RESULT:      -5.4      3.450      5.971
REMARK  Name = 25338953
REMARK  7 active torsions:
REMARK  status: ('A' for Active; 'I' for Inactive)
REMARK    1  A    between atoms: S_1  and  N_7
REMARK    2  A    between atoms: S_1  and  C_18
REMARK    3  A    between atoms: O_5  and  C_15
REMARK    4  A    between atoms: O_5  and  C_25
REMARK    5  A    between atoms: N_8  and  C_16
REMARK    6  A    between atoms: C_10  and  C_15
REMARK    7  A    between atoms: C_16  and  C_19
REMARK                            x       y       z     vdW  Elec       q    Type
REMARK                         _______ _______ _______ _____ _____    ______ ____
ROOT
ATOM      7  N   UNL     1      -5.924 -12.507  15.876  0.00  0.00    -0.156 NA
ATOM      8  N   UNL     1      -2.523 -11.819  14.462  0.00  0.00    -0.328 N 
ATOM      9  N   UNL     1      -2.132 -10.876  16.450  0.00  0.00    -0.240 NA
ATOM     10  C   UNL     1      -5.876 -11.363  16.859  0.00  0.00    +0.194 C 
ATOM     11  C   UNL     1      -4.461 -11.114  17.418  0.00  0.00    +0.089 C 
ATOM     12  C   UNL     1      -4.999 -12.387  14.684  0.00  0.00    +0.165 C 
ATOM     13  C   UNL     1      -3.702 -11.855  15.145  0.00  0.00    +0.057 A 
ATOM     14  C   UNL     1      -3.439 -11.267  16.357  0.00  0.00    +0.066 A 
ATOM     17  C   UNL     1      -1.607 -11.221  15.291  0.00  0.00    +0.200 A 
ENDROOT
BRANCH   7   1
ATOM      1  S   UNL     1      -6.048 -14.074  16.567  0.00  0.00    +0.068 S 
ATOM      3  O   UNL     1      -7.162 -14.097  17.489  0.00  0.00    -0.152 OA
ATOM      4  O   UNL     1      -4.730 -14.510  16.976  0.00  0.00    -0.152 OA
BRANCH   1  18
ATOM      2  S   UNL     1      -8.094 -14.703  14.567  0.00  0.00    -0.077 S 
ATOM     18  C   UNL     1      -6.508 -15.004  15.139  0.00  0.00    +0.143 A 
ATOM     20  C   UNL     1      -5.851 -15.940  14.371  0.00  0.00    +0.036 A 
ATOM     23  C   UNL     1      -6.660 -16.415  13.299  0.00  0.00    +0.010 A 
ATOM     24  C   UNL     1      -7.904 -15.825  13.288  0.00  0.00    +0.047 A 
ENDBRANCH   1  18
ENDBRANCH   7   1
BRANCH  10  15
ATOM      6  O   UNL     1      -5.805  -9.135  15.953  0.00  0.00    -0.249 OA
ATOM     15  C   UNL     1      -6.432 -10.166  16.152  0.00  0.00    +0.326 C 
BRANCH  15   5
ATOM      5  O   UNL     1      -7.720 -10.414  15.779  0.00  0.00    -0.467 OA
ATOM     25  C   UNL     1      -8.663  -9.388  16.103  0.00  0.00    +0.280 C 
ENDBRANCH  15   5
ENDBRANCH  10  15
BRANCH   8  16
ATOM     16  C   UNL     1      -2.271 -12.304  13.127  0.00  0.00    +0.158 C 
BRANCH  16  19
ATOM     19  C   UNL     1      -2.614 -11.301  12.053  0.00  0.00    -0.028 A 
ATOM     21  C   UNL     1      -3.743 -11.492  11.257  0.00  0.00    +0.005 A 
ATOM     22  C   UNL     1      -1.803 -10.185  11.856  0.00  0.00    +0.005 A 
ATOM     26  C   UNL     1      -4.062 -10.566  10.264  0.00  0.00    +0.000 A 
ATOM     27  C   UNL     1      -2.120  -9.258  10.862  0.00  0.00    +0.000 A 
ATOM     28  C   UNL     1      -3.250  -9.449  10.066  0.00  0.00    +0.000 A 
ENDBRANCH  16  19
ENDBRANCH   8  16
TORSDOF 6
ENDMDL
MODEL 9
REMARK VINA RESULT:      -5.3     25.470     28.354
REMARK  Name = 25338953
REMARK  7 active torsions:
REMARK  status: ('A' for Active; 'I' for Inactive)
REMARK    1  A    between atoms: S_1  and  N_7
REMARK    2  A    between atoms: S_1  and  C_18
REMARK    3  A    between atoms: O_5  and  C_15
REMARK    4  A    between atoms: O_5  and  C_25
REMARK    5  A    between atoms: N_8  and  C_16
REMARK    6  A    between atoms: C_10  and  C_15
REMARK    7  A    between atoms: C_16  and  C_19
REMARK                            x       y       z     vdW  Elec       q    Type
REMARK                         _______ _______ _______ _____ _____    ______ ____
ROOT
ATOM      7  N   UNL     1      10.393   7.500   6.271  0.00  0.00    -0.156 NA
ATOM      8  N   UNL     1      11.965   5.835   3.306  0.00  0.00    -0.328 N 
ATOM      9  N   UNL     1      10.178   4.495   3.391  0.00  0.00    -0.240 NA
ATOM     10  C   UNL     1       9.624   6.274   6.701  0.00  0.00    +0.194 C 
ATOM     11  C   UNL     1       9.142   5.423   5.508  0.00  0.00    +0.089 C 
ATOM     12  C   UNL     1      11.605   7.243   5.401  0.00  0.00    +0.165 C 
ATOM     13  C   UNL     1      11.266   6.195   4.419  0.00  0.00    +0.057 A 
ATOM     14  C   UNL     1      10.179   5.357   4.452  0.00  0.00    +0.066 A 
ATOM     17  C   UNL     1      11.270   4.808   2.720  0.00  0.00    +0.200 A 
ENDROOT
BRANCH   7   1
ATOM      1  S   UNL     1       9.440   8.860   5.837  0.00  0.00    +0.068 S 
ATOM      3  O   UNL     1       8.041   8.504   5.926  0.00  0.00    -0.152 OA
ATOM      4  O   UNL     1       9.985   9.448   4.632  0.00  0.00    -0.152 OA
BRANCH   1  18
ATOM      2  S   UNL     1      10.719  11.327   6.763  0.00  0.00    -0.077 S 
ATOM     18  C   UNL     1       9.810   9.938   7.184  0.00  0.00    +0.143 A 
ATOM     20  C   UNL     1       9.518   9.900   8.530  0.00  0.00    +0.036 A 
ATOM     23  C   UNL     1      10.048  11.026   9.223  0.00  0.00    +0.010 A 
ATOM     24  C   UNL     1      10.724  11.881   8.382  0.00  0.00    +0.047 A 
ENDBRANCH   1  18
ENDBRANCH   7   1
BRANCH  10  15
ATOM      6  O   UNL     1      11.606   5.909   8.016  0.00  0.00    -0.249 OA
ATOM     15  C   UNL     1      10.517   5.509   7.627  0.00  0.00    +0.326 C 
BRANCH  15   5
ATOM      5  O   UNL     1       9.926   4.325   7.955  0.00  0.00    -0.467 OA
ATOM     25  C   UNL     1       9.372   4.259   9.273  0.00  0.00    +0.280 C 
ENDBRANCH  15   5
ENDBRANCH  10  15
BRANCH   8  16
ATOM     16  C   UNL     1      13.201   6.405   2.827  0.00  0.00    +0.158 C 
BRANCH  16  19
ATOM     19  C   UNL     1      13.803   5.641   1.673  0.00  0.00    -0.028 A 
ATOM     21  C   UNL     1      14.660   4.569   1.920  0.00  0.00    +0.005 A 
ATOM     22  C   UNL     1      13.505   6.009   0.362  0.00  0.00    +0.005 A 
ATOM     26  C   UNL     1      15.217   3.862   0.854  0.00  0.00    +0.000 A 
ATOM     27  C   UNL     1      14.063   5.303  -0.704  0.00  0.00    +0.000 A 
ATOM     28  C   UNL     1      14.919   4.230  -0.458  0.00  0.00    +0.000 A 
ENDBRANCH  16  19
ENDBRANCH   8  16
TORSDOF 6
ENDMDL
MODEL 10
REMARK VINA RESULT:      -5.3     21.061     23.471
REMARK  Name = 25338953
REMARK  7 active torsions:
REMARK  status: ('A' for Active; 'I' for Inactive)
REMARK    1  A    between atoms: S_1  and  N_7
REMARK    2  A    between atoms: S_1  and  C_18
REMARK    3  A    between atoms: O_5  and  C_15
REMARK    4  A    between atoms: O_5  and  C_25
REMARK    5  A    between atoms: N_8  and  C_16
REMARK    6  A    between atoms: C_10  and  C_15
REMARK    7  A    between atoms: C_16  and  C_19
REMARK                            x       y       z     vdW  Elec       q    Type
REMARK                         _______ _______ _______ _____ _____    ______ ____
ROOT
ATOM      7  N   UNL     1       7.544  -9.687  33.566  0.00  0.00    -0.156 NA
ATOM      8  N   UNL     1       9.399  -6.454  33.940  0.00  0.00    -0.328 N 
ATOM      9  N   UNL     1       7.398  -5.522  33.593  0.00  0.00    -0.240 NA
ATOM     10  C   UNL     1       6.442  -9.093  32.723  0.00  0.00    +0.194 C 
ATOM     11  C   UNL     1       6.097  -7.645  33.124  0.00  0.00    +0.089 C 
ATOM     12  C   UNL     1       8.847  -8.917  33.579  0.00  0.00    +0.165 C 
ATOM     13  C   UNL     1       8.542  -7.476  33.662  0.00  0.00    +0.057 A 
ATOM     14  C   UNL     1       7.323  -6.879  33.447  0.00  0.00    +0.066 A 
ATOM     17  C   UNL     1       8.663  -5.297  33.888  0.00  0.00    +0.200 A 
ENDROOT
BRANCH   7   1
ATOM      1  S   UNL     1       7.053 -10.345  35.073  0.00  0.00    +0.068 S 
ATOM      3  O   UNL     1       6.514  -9.287  35.898  0.00  0.00    -0.152 OA
ATOM      4  O   UNL     1       8.098 -11.217  35.565  0.00  0.00    -0.152 OA
BRANCH   1  18
ATOM      2  S   UNL     1       4.193 -10.958  35.237  0.00  0.00    -0.077 S 
ATOM     18  C   UNL     1       5.707 -11.357  34.543  0.00  0.00    +0.143 A 
ATOM     20  C   UNL     1       5.612 -12.421  33.673  0.00  0.00    +0.036 A 
ATOM     23  C   UNL     1       4.280 -12.914  33.574  0.00  0.00    +0.010 A 
ATOM     24  C   UNL     1       3.407 -12.209  34.373  0.00  0.00    +0.047 A 
ENDBRANCH   1  18
ENDBRANCH   7   1
BRANCH  10  15
ATOM      6  O   UNL     1       6.781  -8.302  30.476  0.00  0.00    -0.249 OA
ATOM     15  C   UNL     1       6.884  -9.203  31.297  0.00  0.00    +0.326 C 
BRANCH  15   5
ATOM      5  O   UNL     1       7.408 -10.442  31.076  0.00  0.00    -0.467 OA
ATOM     25  C   UNL     1       6.626 -11.301  30.241  0.00  0.00    +0.280 C 
ENDBRANCH  15   5
ENDBRANCH  10  15
BRANCH   8  16
ATOM     16  C   UNL     1      10.809  -6.550  34.229  0.00  0.00    +0.158 C 
BRANCH  16  19
ATOM     19  C   UNL     1      11.684  -6.282  33.029  0.00  0.00    -0.028 A 
ATOM     21  C   UNL     1      11.554  -7.066  31.883  0.00  0.00    +0.005 A 
ATOM     22  C   UNL     1      12.622  -5.251  33.066  0.00  0.00    +0.005 A 
ATOM     26  C   UNL     1      12.361  -6.819  30.773  0.00  0.00    +0.000 A 
ATOM     27  C   UNL     1      13.431  -5.004  31.956  0.00  0.00    +0.000 A 
ATOM     28  C   UNL     1      13.301  -5.788  30.810  0.00  0.00    +0.000 A 
ENDBRANCH  16  19
ENDBRANCH   8  16
TORSDOF 6
ENDMDL
