MODEL 1
REMARK VINA RESULT:      -6.9      0.000      0.000
REMARK  Name = 40779397
REMARK  7 active torsions:
REMARK  status: ('A' for Active; 'I' for Inactive)
REMARK    1  A    between atoms: S_1  and  N_6
REMARK    2  A    between atoms: S_1  and  C_26
REMARK    3  A    between atoms: N_5  and  C_25
REMARK    4  A    between atoms: N_6  and  C_16
REMARK    5  A    between atoms: C_9  and  C_15
REMARK    6  A    between atoms: C_10  and  C_16
REMARK    7  A    between atoms: C_18  and  C_19
REMARK                            x       y       z     vdW  Elec       q    Type
REMARK                         _______ _______ _______ _____ _____    ______ ____
ROOT
ATOM      4  N   UNL     1      12.867   6.882  21.162  0.00  0.00    -0.297 NA
ATOM      8  C   UNL     1      11.331   8.852  20.426  0.00  0.00    +0.002 C 
ATOM      9  C   UNL     1      11.946   8.149  19.184  0.00  0.00    +0.055 C 
ATOM     10  C   UNL     1      13.220   8.112  21.919  0.00  0.00    +0.072 C 
ATOM     11  C   UNL     1      12.465   9.335  21.354  0.00  0.00    +0.024 C 
ATOM     12  C   UNL     1      12.997   7.127  19.703  0.00  0.00    +0.094 C 
ATOM     13  C   UNL     1      10.539   7.776  21.200  0.00  0.00    +0.019 C 
ATOM     14  C   UNL     1      11.449   6.561  21.451  0.00  0.00    +0.085 C 
ENDROOT
BRANCH   9  15
ATOM      5  N   UNL     1      11.872   9.157  16.857  0.00  0.00    -0.271 N 
ATOM      7  N   UNL     1      12.516   9.973  16.003  0.00  0.00    -0.176 NA
ATOM     15  C   UNL     1      12.494   9.021  18.063  0.00  0.00    +0.044 A 
ATOM     17  C   UNL     1      13.622   9.801  17.995  0.00  0.00    +0.048 A 
ATOM     19  C   UNL     1      13.583  10.362  16.704  0.00  0.00    +0.066 A 
ATOM     25  C   UNL     1      10.641   8.528  16.438  0.00  0.00    +0.172 C 
BRANCH  19  18
ATOM     18  C   UNL     1      14.588  11.314  16.080  0.00  0.00    +0.040 C 
ATOM     20  C   UNL     1      15.328  10.668  14.896  0.00  0.00    +0.010 C 
ATOM     21  C   UNL     1      15.584  11.859  17.120  0.00  0.00    +0.010 C 
ATOM     22  C   UNL     1      16.330  11.637  14.269  0.00  0.00    +0.001 C 
ATOM     23  C   UNL     1      16.584  12.822  16.484  0.00  0.00    +0.001 C 
ATOM     24  C   UNL     1      17.310  12.183  15.303  0.00  0.00    +0.000 C 
ENDBRANCH  19  18
ENDBRANCH   9  15
BRANCH  10  16
ATOM     16  C   UNL     1      14.730   8.349  21.974  0.00  0.00    +0.124 C 
BRANCH  16   6
ATOM      6  N   UNL     1      15.424   7.051  21.966  0.00  0.00    -0.193 NA
ATOM     27  H   UNL     1      14.792   6.247  22.068  0.00  0.00    +0.148 HD
BRANCH   6   1
ATOM      1  S   UNL     1      16.769   6.829  20.936  0.00  0.00    +0.027 S 
ATOM      2  O   UNL     1      16.343   6.201  19.701  0.00  0.00    -0.158 OA
ATOM      3  O   UNL     1      17.859   6.273  21.715  0.00  0.00    -0.158 OA
ATOM     26  C   UNL     1      17.184   8.521  20.574  0.00  0.00    +0.214 C 
ENDBRANCH   6   1
ENDBRANCH  16   6
ENDBRANCH  10  16
TORSDOF 5
ENDMDL
MODEL 2
REMARK VINA RESULT:      -6.5     25.957     28.334
REMARK  Name = 40779397
REMARK  7 active torsions:
REMARK  status: ('A' for Active; 'I' for Inactive)
REMARK    1  A    between atoms: S_1  and  N_6
REMARK    2  A    between atoms: S_1  and  C_26
REMARK    3  A    between atoms: N_5  and  C_25
REMARK    4  A    between atoms: N_6  and  C_16
REMARK    5  A    between atoms: C_9  and  C_15
REMARK    6  A    between atoms: C_10  and  C_16
REMARK    7  A    between atoms: C_18  and  C_19
REMARK                            x       y       z     vdW  Elec       q    Type
REMARK                         _______ _______ _______ _____ _____    ______ ____
ROOT
ATOM      4  N   UNL     1      -6.335 -10.485  17.548  0.00  0.00    -0.297 NA
ATOM      8  C   UNL     1      -4.233 -11.968  17.144  0.00  0.00    +0.002 C 
ATOM      9  C   UNL     1      -4.072 -10.593  16.438  0.00  0.00    +0.055 C 
ATOM     10  C   UNL     1      -6.748 -11.834  17.077  0.00  0.00    +0.072 C 
ATOM     11  C   UNL     1      -5.517 -12.656  16.636  0.00  0.00    +0.024 C 
ATOM     12  C   UNL     1      -5.434  -9.852  16.552  0.00  0.00    +0.094 C 
ATOM     13  C   UNL     1      -4.439 -11.676  18.646  0.00  0.00    +0.019 C 
ATOM     14  C   UNL     1      -5.579 -10.657  18.812  0.00  0.00    +0.085 C 
ENDROOT
BRANCH   9  15
ATOM      5  N   UNL     1      -2.191 -10.490  14.739  0.00  0.00    -0.271 N 
ATOM      7  N   UNL     1      -1.910 -10.489  13.424  0.00  0.00    -0.176 NA
ATOM     15  C   UNL     1      -3.523 -10.575  15.018  0.00  0.00    +0.044 A 
ATOM     17  C   UNL     1      -4.159 -10.633  13.803  0.00  0.00    +0.048 A 
ATOM     19  C   UNL     1      -3.117 -10.576  12.858  0.00  0.00    +0.066 A 
ATOM     25  C   UNL     1      -1.107 -10.403  15.690  0.00  0.00    +0.172 C 
BRANCH  19  18
ATOM     18  C   UNL     1      -3.239 -10.605  11.345  0.00  0.00    +0.040 C 
ATOM     20  C   UNL     1      -3.984  -9.371  10.808  0.00  0.00    +0.010 C 
ATOM     21  C   UNL     1      -3.897 -11.905  10.848  0.00  0.00    +0.010 C 
ATOM     22  C   UNL     1      -4.093  -9.404   9.284  0.00  0.00    +0.001 C 
ATOM     23  C   UNL     1      -4.006 -11.928   9.324  0.00  0.00    +0.001 C 
ATOM     24  C   UNL     1      -4.737 -10.698   8.793  0.00  0.00    +0.000 C 
ENDBRANCH  19  18
ENDBRANCH   9  15
BRANCH  10  16
ATOM     16  C   UNL     1      -7.812 -11.768  15.981  0.00  0.00    +0.124 C 
BRANCH  16   6
ATOM      6  N   UNL     1      -9.013 -11.102  16.512  0.00  0.00    -0.193 NA
ATOM     27  H   UNL     1      -9.072 -11.120  17.538  0.00  0.00    +0.148 HD
BRANCH   6   1
ATOM      1  S   UNL     1      -9.591  -9.688  15.747  0.00  0.00    +0.027 S 
ATOM      2  O   UNL     1     -11.017  -9.805  15.513  0.00  0.00    -0.158 OA
ATOM      3  O   UNL     1      -8.687  -9.346  14.665  0.00  0.00    -0.158 OA
ATOM     26  C   UNL     1      -9.345  -8.494  17.041  0.00  0.00    +0.214 C 
ENDBRANCH   6   1
ENDBRANCH  16   6
ENDBRANCH  10  16
TORSDOF 5
ENDMDL
MODEL 3
REMARK VINA RESULT:      -6.4     26.039     28.879
REMARK  Name = 40779397
REMARK  7 active torsions:
REMARK  status: ('A' for Active; 'I' for Inactive)
REMARK    1  A    between atoms: S_1  and  N_6
REMARK    2  A    between atoms: S_1  and  C_26
REMARK    3  A    between atoms: N_5  and  C_25
REMARK    4  A    between atoms: N_6  and  C_16
REMARK    5  A    between atoms: C_9  and  C_15
REMARK    6  A    between atoms: C_10  and  C_16
REMARK    7  A    between atoms: C_18  and  C_19
REMARK                            x       y       z     vdW  Elec       q    Type
REMARK                         _______ _______ _______ _____ _____    ______ ____
ROOT
ATOM      4  N   UNL     1      -5.091 -12.718  17.055  0.00  0.00    -0.297 NA
ATOM      8  C   UNL     1      -5.539 -10.665  18.594  0.00  0.00    +0.002 C 
ATOM      9  C   UNL     1      -6.877 -11.337  18.181  0.00  0.00    +0.055 C 
ATOM     10  C   UNL     1      -4.345 -11.534  16.553  0.00  0.00    +0.072 C 
ATOM     11  C   UNL     1      -4.757 -10.263  17.325  0.00  0.00    +0.024 C 
ATOM     12  C   UNL     1      -6.544 -12.416  17.112  0.00  0.00    +0.094 C 
ATOM     13  C   UNL     1      -4.704 -11.744  19.317  0.00  0.00    +0.019 C 
ATOM     14  C   UNL     1      -4.623 -13.000  18.433  0.00  0.00    +0.085 C 
ENDROOT
BRANCH   9  15
ATOM      5  N   UNL     1      -9.195 -10.340  18.455  0.00  0.00    -0.271 N 
ATOM      7  N   UNL     1     -10.086  -9.492  17.913  0.00  0.00    -0.176 NA
ATOM     15  C   UNL     1      -8.030 -10.439  17.754  0.00  0.00    +0.044 A 
ATOM     17  C   UNL     1      -8.168  -9.597  16.677  0.00  0.00    +0.048 A 
ATOM     19  C   UNL     1      -9.453  -9.043  16.827  0.00  0.00    +0.066 A 
ATOM     25  C   UNL     1      -9.537 -11.038  19.674  0.00  0.00    +0.172 C 
BRANCH  19  18
ATOM     18  C   UNL     1     -10.138  -8.039  15.917  0.00  0.00    +0.040 C 
ATOM     20  C   UNL     1     -10.777  -6.889  16.714  0.00  0.00    +0.010 C 
ATOM     21  C   UNL     1     -11.171  -8.711  14.995  0.00  0.00    +0.010 C 
ATOM     22  C   UNL     1     -11.455  -5.878  15.789  0.00  0.00    +0.001 C 
ATOM     23  C   UNL     1     -11.846  -7.693  14.078  0.00  0.00    +0.001 C 
ATOM     24  C   UNL     1     -12.472  -6.548  14.870  0.00  0.00    +0.000 C 
ENDBRANCH  19  18
ENDBRANCH   9  15
BRANCH  10  16
ATOM     16  C   UNL     1      -4.487 -11.354  15.041  0.00  0.00    +0.124 C 
BRANCH  16   6
ATOM      6  N   UNL     1      -3.568 -10.296  14.590  0.00  0.00    -0.193 NA
ATOM     27  H   UNL     1      -3.690  -9.406  15.092  0.00  0.00    +0.148 HD
BRANCH   6   1
ATOM      1  S   UNL     1      -1.968 -10.707  14.160  0.00  0.00    +0.027 S 
ATOM      2  O   UNL     1      -1.550  -9.922  13.015  0.00  0.00    -0.158 OA
ATOM      3  O   UNL     1      -1.849 -12.153  14.152  0.00  0.00    -0.158 OA
ATOM     26  C   UNL     1      -1.084 -10.110  15.583  0.00  0.00    +0.214 C 
ENDBRANCH   6   1
ENDBRANCH  16   6
ENDBRANCH  10  16
TORSDOF 5
ENDMDL
MODEL 4
REMARK VINA RESULT:      -6.3      2.739      2.974
REMARK  Name = 40779397
REMARK  7 active torsions:
REMARK  status: ('A' for Active; 'I' for Inactive)
REMARK    1  A    between atoms: S_1  and  N_6
REMARK    2  A    between atoms: S_1  and  C_26
REMARK    3  A    between atoms: N_5  and  C_25
REMARK    4  A    between atoms: N_6  and  C_16
REMARK    5  A    between atoms: C_9  and  C_15
REMARK    6  A    between atoms: C_10  and  C_16
REMARK    7  A    between atoms: C_18  and  C_19
REMARK                            x       y       z     vdW  Elec       q    Type
REMARK                         _______ _______ _______ _____ _____    ______ ____
ROOT
ATOM      4  N   UNL     1      13.094   7.444  21.347  0.00  0.00    -0.297 NA
ATOM      8  C   UNL     1      11.260   8.821  20.113  0.00  0.00    +0.002 C 
ATOM      9  C   UNL     1      12.160   8.075  19.089  0.00  0.00    +0.055 C 
ATOM     10  C   UNL     1      13.073   8.838  21.862  0.00  0.00    +0.072 C 
ATOM     11  C   UNL     1      12.140   9.722  21.005  0.00  0.00    +0.024 C 
ATOM     12  C   UNL     1      13.341   7.446  19.882  0.00  0.00    +0.094 C 
ATOM     13  C   UNL     1      10.639   7.744  21.028  0.00  0.00    +0.019 C 
ATOM     14  C   UNL     1      11.757   6.850  21.589  0.00  0.00    +0.085 C 
ENDROOT
BRANCH   9  15
ATOM      5  N   UNL     1      11.871   8.977  16.735  0.00  0.00    -0.271 N 
ATOM      7  N   UNL     1      12.468   9.685  15.760  0.00  0.00    -0.176 NA
ATOM     15  C   UNL     1      12.631   8.836  17.859  0.00  0.00    +0.044 A 
ATOM     17  C   UNL     1      13.808   9.497  17.601  0.00  0.00    +0.048 A 
ATOM     19  C   UNL     1      13.650   9.999  16.295  0.00  0.00    +0.066 A 
ATOM     25  C   UNL     1      10.543   8.453  16.514  0.00  0.00    +0.172 C 
BRANCH  19  18
ATOM     18  C   UNL     1      14.646  10.817  15.494  0.00  0.00    +0.040 C 
ATOM     20  C   UNL     1      15.577  11.636  16.404  0.00  0.00    +0.010 C 
ATOM     21  C   UNL     1      13.947  11.723  14.464  0.00  0.00    +0.010 C 
ATOM     22  C   UNL     1      16.582  12.448  15.589  0.00  0.00    +0.001 C 
ATOM     23  C   UNL     1      14.959  12.534  13.657  0.00  0.00    +0.001 C 
ATOM     24  C   UNL     1      15.888  13.338  14.562  0.00  0.00    +0.000 C 
ENDBRANCH  19  18
ENDBRANCH   9  15
BRANCH  10  16
ATOM     16  C   UNL     1      14.475   9.437  21.980  0.00  0.00    +0.124 C 
BRANCH  16   6
ATOM      6  N   UNL     1      14.668   9.953  23.345  0.00  0.00    -0.193 NA
ATOM     27  H   UNL     1      15.564   9.675  23.767  0.00  0.00    +0.148 HD
BRANCH   6   1
ATOM      1  S   UNL     1      14.105  11.518  23.733  0.00  0.00    +0.027 S 
ATOM      2  O   UNL     1      12.703  11.459  24.101  0.00  0.00    -0.158 OA
ATOM      3  O   UNL     1      14.566  12.441  22.713  0.00  0.00    -0.158 OA
ATOM     26  C   UNL     1      15.043  11.845  25.209  0.00  0.00    +0.214 C 
ENDBRANCH   6   1
ENDBRANCH  16   6
ENDBRANCH  10  16
TORSDOF 5
ENDMDL
MODEL 5
REMARK VINA RESULT:      -6.1      4.842      6.367
REMARK  Name = 40779397
REMARK  7 active torsions:
REMARK  status: ('A' for Active; 'I' for Inactive)
REMARK    1  A    between atoms: S_1  and  N_6
REMARK    2  A    between atoms: S_1  and  C_26
REMARK    3  A    between atoms: N_5  and  C_25
REMARK    4  A    between atoms: N_6  and  C_16
REMARK    5  A    between atoms: C_9  and  C_15
REMARK    6  A    between atoms: C_10  and  C_16
REMARK    7  A    between atoms: C_18  and  C_19
REMARK                            x       y       z     vdW  Elec       q    Type
REMARK                         _______ _______ _______ _____ _____    ______ ____
ROOT
ATOM      4  N   UNL     1      12.122  12.641  23.794  0.00  0.00    -0.297 NA
ATOM      8  C   UNL     1      12.088  11.936  21.287  0.00  0.00    +0.002 C 
ATOM      9  C   UNL     1      11.820  10.708  22.200  0.00  0.00    +0.055 C 
ATOM     10  C   UNL     1      13.335  13.156  23.104  0.00  0.00    +0.072 C 
ATOM     11  C   UNL     1      13.436  12.578  21.676  0.00  0.00    +0.024 C 
ATOM     12  C   UNL     1      12.056  11.163  23.668  0.00  0.00    +0.094 C 
ATOM     13  C   UNL     1      10.986  12.972  21.599  0.00  0.00    +0.019 C 
ATOM     14  C   UNL     1      10.935  13.216  23.116  0.00  0.00    +0.085 C 
ENDROOT
BRANCH   9  15
ATOM      5  N   UNL     1      11.922   8.187  21.928  0.00  0.00    -0.271 N 
ATOM      7  N   UNL     1      12.726   7.159  21.607  0.00  0.00    -0.176 NA
ATOM     15  C   UNL     1      12.536   9.404  21.878  0.00  0.00    +0.044 A 
ATOM     17  C   UNL     1      13.832   9.155  21.498  0.00  0.00    +0.048 A 
ATOM     19  C   UNL     1      13.891   7.757  21.346  0.00  0.00    +0.066 A 
ATOM     25  C   UNL     1      10.546   7.923  22.281  0.00  0.00    +0.172 C 
BRANCH  19  18
ATOM     18  C   UNL     1      15.091   6.922  20.935  0.00  0.00    +0.040 C 
ATOM     20  C   UNL     1      16.382   7.400  21.621  0.00  0.00    +0.010 C 
ATOM     21  C   UNL     1      15.263   6.879  19.406  0.00  0.00    +0.010 C 
ATOM     22  C   UNL     1      17.581   6.548  21.209  0.00  0.00    +0.001 C 
ATOM     23  C   UNL     1      16.467   6.030  19.004  0.00  0.00    +0.001 C 
ATOM     24  C   UNL     1      17.745   6.500  19.693  0.00  0.00    +0.000 C 
ENDBRANCH  19  18
ENDBRANCH   9  15
BRANCH  10  16
ATOM     16  C   UNL     1      14.611  12.912  23.911  0.00  0.00    +0.124 C 
BRANCH  16   6
ATOM      6  N   UNL     1      14.465  13.518  25.244  0.00  0.00    -0.193 NA
ATOM     27  H   UNL     1      13.680  14.180  25.311  0.00  0.00    +0.148 HD
BRANCH   6   1
ATOM      1  S   UNL     1      14.771  12.569  26.631  0.00  0.00    +0.027 S 
ATOM      2  O   UNL     1      14.395  11.192  26.377  0.00  0.00    -0.158 OA
ATOM      3  O   UNL     1      14.264  13.274  27.793  0.00  0.00    -0.158 OA
ATOM     26  C   UNL     1      16.547  12.647  26.694  0.00  0.00    +0.214 C 
ENDBRANCH   6   1
ENDBRANCH  16   6
ENDBRANCH  10  16
TORSDOF 5
ENDMDL
MODEL 6
REMARK VINA RESULT:      -6.0     25.820     28.359
REMARK  Name = 40779397
REMARK  7 active torsions:
REMARK  status: ('A' for Active; 'I' for Inactive)
REMARK    1  A    between atoms: S_1  and  N_6
REMARK    2  A    between atoms: S_1  and  C_26
REMARK    3  A    between atoms: N_5  and  C_25
REMARK    4  A    between atoms: N_6  and  C_16
REMARK    5  A    between atoms: C_9  and  C_15
REMARK    6  A    between atoms: C_10  and  C_16
REMARK    7  A    between atoms: C_18  and  C_19
REMARK                            x       y       z     vdW  Elec       q    Type
REMARK                         _______ _______ _______ _____ _____    ______ ____
ROOT
ATOM      4  N   UNL     1      -6.194 -10.275  17.560  0.00  0.00    -0.297 NA
ATOM      8  C   UNL     1      -4.541 -12.157  16.849  0.00  0.00    +0.002 C 
ATOM      9  C   UNL     1      -4.035 -10.774  16.354  0.00  0.00    +0.055 C 
ATOM     10  C   UNL     1      -6.938 -11.384  16.908  0.00  0.00    +0.072 C 
ATOM     11  C   UNL     1      -5.959 -12.411  16.296  0.00  0.00    +0.024 C 
ATOM     12  C   UNL     1      -5.162  -9.741  16.635  0.00  0.00    +0.094 C 
ATOM     13  C   UNL     1      -4.663 -12.062  18.385  0.00  0.00    +0.019 C 
ATOM     14  C   UNL     1      -5.505 -10.828  18.751  0.00  0.00    +0.085 C 
ENDROOT
BRANCH   9  15
ATOM      5  N   UNL     1      -2.188 -10.438  14.646  0.00  0.00    -0.271 N 
ATOM      7  N   UNL     1      -1.919 -10.385  13.330  0.00  0.00    -0.176 NA
ATOM     15  C   UNL     1      -3.501 -10.672  14.932  0.00  0.00    +0.044 A 
ATOM     17  C   UNL     1      -4.136 -10.779  13.719  0.00  0.00    +0.048 A 
ATOM     19  C   UNL     1      -3.113 -10.593  12.770  0.00  0.00    +0.066 A 
ATOM     25  C   UNL     1      -1.113 -10.250  15.593  0.00  0.00    +0.172 C 
BRANCH  19  18
ATOM     18  C   UNL     1      -3.242 -10.610  11.257  0.00  0.00    +0.040 C 
ATOM     20  C   UNL     1      -3.991  -9.372  10.733  0.00  0.00    +0.010 C 
ATOM     21  C   UNL     1      -3.901 -11.906  10.752  0.00  0.00    +0.010 C 
ATOM     22  C   UNL     1      -4.107  -9.393   9.210  0.00  0.00    +0.001 C 
ATOM     23  C   UNL     1      -4.018 -11.917   9.229  0.00  0.00    +0.001 C 
ATOM     24  C   UNL     1      -4.752 -10.683   8.711  0.00  0.00    +0.000 C 
ENDBRANCH  19  18
ENDBRANCH   9  15
BRANCH  10  16
ATOM     16  C   UNL     1      -7.952 -10.880  15.879  0.00  0.00    +0.124 C 
BRANCH  16   6
ATOM      6  N   UNL     1      -7.734 -11.579  14.602  0.00  0.00    -0.193 NA
ATOM     27  H   UNL     1      -7.941 -12.586  14.645  0.00  0.00    +0.148 HD
BRANCH   6   1
ATOM      1  S   UNL     1      -8.126 -10.789  13.140  0.00  0.00    +0.027 S 
ATOM      2  O   UNL     1      -7.972 -11.707  12.028  0.00  0.00    -0.158 OA
ATOM      3  O   UNL     1      -7.476  -9.492  13.128  0.00  0.00    -0.158 OA
ATOM     26  C   UNL     1      -9.867 -10.508  13.378  0.00  0.00    +0.214 C 
ENDBRANCH   6   1
ENDBRANCH  16   6
ENDBRANCH  10  16
TORSDOF 5
ENDMDL
MODEL 7
REMARK VINA RESULT:      -5.9     24.632     27.612
REMARK  Name = 40779397
REMARK  7 active torsions:
REMARK  status: ('A' for Active; 'I' for Inactive)
REMARK    1  A    between atoms: S_1  and  N_6
REMARK    2  A    between atoms: S_1  and  C_26
REMARK    3  A    between atoms: N_5  and  C_25
REMARK    4  A    between atoms: N_6  and  C_16
REMARK    5  A    between atoms: C_9  and  C_15
REMARK    6  A    between atoms: C_10  and  C_16
REMARK    7  A    between atoms: C_18  and  C_19
REMARK                            x       y       z     vdW  Elec       q    Type
REMARK                         _______ _______ _______ _____ _____    ______ ____
ROOT
ATOM      4  N   UNL     1      -9.752  10.265  17.296  0.00  0.00    -0.297 NA
ATOM      8  C   UNL     1     -12.056  11.214  18.052  0.00  0.00    +0.002 C 
ATOM      9  C   UNL     1     -11.390  10.420  19.209  0.00  0.00    +0.055 C 
ATOM     10  C   UNL     1     -10.795   9.927  16.292  0.00  0.00    +0.072 C 
ATOM     11  C   UNL     1     -12.198  10.298  16.819  0.00  0.00    +0.024 C 
ATOM     12  C   UNL     1     -10.129   9.721  18.625  0.00  0.00    +0.094 C 
ATOM     13  C   UNL     1     -11.078  12.344  17.667  0.00  0.00    +0.019 C 
ATOM     14  C   UNL     1      -9.687  11.742  17.403  0.00  0.00    +0.085 C 
ENDROOT
BRANCH   9  15
ATOM      5  N   UNL     1     -12.688   9.740  21.281  0.00  0.00    -0.271 N 
ATOM      7  N   UNL     1     -13.443   8.768  21.822  0.00  0.00    -0.176 NA
ATOM     15  C   UNL     1     -12.257   9.464  20.017  0.00  0.00    +0.044 A 
ATOM     17  C   UNL     1     -12.765   8.226  19.709  0.00  0.00    +0.048 A 
ATOM     19  C   UNL     1     -13.485   7.846  20.857  0.00  0.00    +0.066 A 
ATOM     25  C   UNL     1     -12.413  10.931  22.052  0.00  0.00    +0.172 C 
BRANCH  19  18
ATOM     18  C   UNL     1     -14.261   6.560  21.078  0.00  0.00    +0.040 C 
ATOM     20  C   UNL     1     -15.683   6.642  20.497  0.00  0.00    +0.010 C 
ATOM     21  C   UNL     1     -14.295   6.159  22.563  0.00  0.00    +0.010 C 
ATOM     22  C   UNL     1     -16.451   5.339  20.715  0.00  0.00    +0.001 C 
ATOM     23  C   UNL     1     -15.069   4.859  22.773  0.00  0.00    +0.001 C 
ATOM     24  C   UNL     1     -16.476   4.939  22.187  0.00  0.00    +0.000 C 
ENDBRANCH  19  18
ENDBRANCH   9  15
BRANCH  10  16
ATOM     16  C   UNL     1     -10.722   8.465  15.846  0.00  0.00    +0.124 C 
BRANCH  16   6
ATOM      6  N   UNL     1     -12.003   8.082  15.232  0.00  0.00    -0.193 NA
ATOM     27  H   UNL     1     -12.817   8.550  15.653  0.00  0.00    +0.148 HD
BRANCH   6   1
ATOM      1  S   UNL     1     -12.075   7.813  13.547  0.00  0.00    +0.027 S 
ATOM      2  O   UNL     1     -12.366   9.058  12.863  0.00  0.00    -0.158 OA
ATOM      3  O   UNL     1     -12.874   6.628  13.302  0.00  0.00    -0.158 OA
ATOM     26  C   UNL     1     -10.380   7.390  13.212  0.00  0.00    +0.214 C 
ENDBRANCH   6   1
ENDBRANCH  16   6
ENDBRANCH  10  16
TORSDOF 5
ENDMDL
MODEL 8
REMARK VINA RESULT:      -5.8     26.285     28.810
REMARK  Name = 40779397
REMARK  7 active torsions:
REMARK  status: ('A' for Active; 'I' for Inactive)
REMARK    1  A    between atoms: S_1  and  N_6
REMARK    2  A    between atoms: S_1  and  C_26
REMARK    3  A    between atoms: N_5  and  C_25
REMARK    4  A    between atoms: N_6  and  C_16
REMARK    5  A    between atoms: C_9  and  C_15
REMARK    6  A    between atoms: C_10  and  C_16
REMARK    7  A    between atoms: C_18  and  C_19
REMARK                            x       y       z     vdW  Elec       q    Type
REMARK                         _______ _______ _______ _____ _____    ______ ____
ROOT
ATOM      4  N   UNL     1      -6.274 -10.412   9.739  0.00  0.00    -0.297 NA
ATOM      8  C   UNL     1      -4.283  -8.981  10.615  0.00  0.00    +0.002 C 
ATOM      9  C   UNL     1      -4.166 -10.444  11.125  0.00  0.00    +0.055 C 
ATOM     10  C   UNL     1      -6.782  -9.155  10.350  0.00  0.00    +0.072 C 
ATOM     11  C   UNL     1      -5.640  -8.393  11.056  0.00  0.00    +0.024 C 
ATOM     12  C   UNL     1      -5.481 -11.177  10.734  0.00  0.00    +0.094 C 
ATOM     13  C   UNL     1      -4.297  -9.046   9.073  0.00  0.00    +0.019 C 
ATOM     14  C   UNL     1      -5.377 -10.043   8.618  0.00  0.00    +0.085 C 
ENDROOT
BRANCH   9  15
ATOM      5  N   UNL     1      -2.525 -10.497  13.059  0.00  0.00    -0.271 N 
ATOM      7  N   UNL     1      -2.401 -10.744  14.375  0.00  0.00    -0.176 NA
ATOM     15  C   UNL     1      -3.791 -10.669  12.583  0.00  0.00    +0.044 A 
ATOM     17  C   UNL     1      -4.549 -11.056  13.661  0.00  0.00    +0.048 A 
ATOM     19  C   UNL     1      -3.640 -11.086  14.736  0.00  0.00    +0.066 A 
ATOM     25  C   UNL     1      -1.361 -10.091  12.306  0.00  0.00    +0.172 C 
BRANCH  19  18
ATOM     18  C   UNL     1      -3.931 -11.450  16.181  0.00  0.00    +0.040 C 
ATOM     20  C   UNL     1      -4.701 -12.777  16.293  0.00  0.00    +0.010 C 
ATOM     21  C   UNL     1      -4.671 -10.320  16.918  0.00  0.00    +0.010 C 
ATOM     22  C   UNL     1      -4.980 -13.139  17.751  0.00  0.00    +0.001 C 
ATOM     23  C   UNL     1      -4.950 -10.692  18.373  0.00  0.00    +0.001 C 
ATOM     24  C   UNL     1      -5.706 -12.013  18.482  0.00  0.00    +0.000 C 
ENDBRANCH  19  18
ENDBRANCH   9  15
BRANCH  10  16
ATOM     16  C   UNL     1      -7.969  -9.399  11.284  0.00  0.00    +0.124 C 
BRANCH  16   6
ATOM      6  N   UNL     1      -7.545  -9.169  12.674  0.00  0.00    -0.193 NA
ATOM     27  H   UNL     1      -7.240  -8.204  12.856  0.00  0.00    +0.148 HD
BRANCH   6   1
ATOM      1  S   UNL     1      -8.384  -9.947  13.943  0.00  0.00    +0.027 S 
ATOM      2  O   UNL     1      -9.776  -9.540  13.933  0.00  0.00    -0.158 OA
ATOM      3  O   UNL     1      -7.589  -9.845  15.152  0.00  0.00    -0.158 OA
ATOM     26  C   UNL     1      -8.305 -11.638  13.396  0.00  0.00    +0.214 C 
ENDBRANCH   6   1
ENDBRANCH  16   6
ENDBRANCH  10  16
TORSDOF 5
ENDMDL
MODEL 9
REMARK VINA RESULT:      -5.8     13.335     15.720
REMARK  Name = 40779397
REMARK  7 active torsions:
REMARK  status: ('A' for Active; 'I' for Inactive)
REMARK    1  A    between atoms: S_1  and  N_6
REMARK    2  A    between atoms: S_1  and  C_26
REMARK    3  A    between atoms: N_5  and  C_25
REMARK    4  A    between atoms: N_6  and  C_16
REMARK    5  A    between atoms: C_9  and  C_15
REMARK    6  A    between atoms: C_10  and  C_16
REMARK    7  A    between atoms: C_18  and  C_19
REMARK                            x       y       z     vdW  Elec       q    Type
REMARK                         _______ _______ _______ _____ _____    ______ ____
ROOT
ATOM      4  N   UNL     1      10.451   6.292   7.654  0.00  0.00    -0.297 NA
ATOM      8  C   UNL     1       9.487   7.784   5.750  0.00  0.00    +0.002 C 
ATOM      9  C   UNL     1       9.401   6.283   5.360  0.00  0.00    +0.055 C 
ATOM     10  C   UNL     1      11.411   7.380   7.325  0.00  0.00    +0.072 C 
ATOM     11  C   UNL     1      10.954   8.147   6.066  0.00  0.00    +0.024 C 
ATOM     12  C   UNL     1      10.172   5.478   6.445  0.00  0.00    +0.094 C 
ATOM     13  C   UNL     1       8.687   7.951   7.059  0.00  0.00    +0.019 C 
ATOM     14  C   UNL     1       9.182   6.923   8.090  0.00  0.00    +0.085 C 
ENDROOT
BRANCH   9  15
ATOM      5  N   UNL     1       9.453   6.600   2.843  0.00  0.00    -0.271 N 
ATOM      7  N   UNL     1       9.910   6.081   1.690  0.00  0.00    -0.176 NA
ATOM     15  C   UNL     1       9.805   5.883   3.948  0.00  0.00    +0.044 A 
ATOM     17  C   UNL     1      10.543   4.820   3.487  0.00  0.00    +0.048 A 
ATOM     19  C   UNL     1      10.574   4.994   2.090  0.00  0.00    +0.066 A 
ATOM     25  C   UNL     1       8.668   7.812   2.808  0.00  0.00    +0.172 C 
BRANCH  19  18
ATOM     18  C   UNL     1      11.256   4.108   1.064  0.00  0.00    +0.040 C 
ATOM     20  C   UNL     1      12.785   4.106   1.236  0.00  0.00    +0.010 C 
ATOM     21  C   UNL     1      10.865   4.490  -0.375  0.00  0.00    +0.010 C 
ATOM     22  C   UNL     1      13.461   3.203   0.205  0.00  0.00    +0.001 C 
ATOM     23  C   UNL     1      11.549   3.587  -1.399  0.00  0.00    +0.001 C 
ATOM     24  C   UNL     1      13.065   3.579  -1.220  0.00  0.00    +0.000 C 
ENDBRANCH  19  18
ENDBRANCH   9  15
BRANCH  10  16
ATOM     16  C   UNL     1      12.847   6.869   7.193  0.00  0.00    +0.124 C 
BRANCH  16   6
ATOM      6  N   UNL     1      13.255   6.934   5.780  0.00  0.00    -0.193 NA
ATOM     27  H   UNL     1      12.480   7.145   5.138  0.00  0.00    +0.148 HD
BRANCH   6   1
ATOM      1  S   UNL     1      14.773   7.606   5.379  0.00  0.00    +0.027 S 
ATOM      2  O   UNL     1      15.303   6.953   4.198  0.00  0.00    -0.158 OA
ATOM      3  O   UNL     1      15.566   7.709   6.589  0.00  0.00    -0.158 OA
ATOM     26  C   UNL     1      14.288   9.255   4.921  0.00  0.00    +0.214 C 
ENDBRANCH   6   1
ENDBRANCH  16   6
ENDBRANCH  10  16
TORSDOF 5
ENDMDL
MODEL 10
REMARK VINA RESULT:      -5.7     21.234     24.306
REMARK  Name = 40779397
REMARK  7 active torsions:
REMARK  status: ('A' for Active; 'I' for Inactive)
REMARK    1  A    between atoms: S_1  and  N_6
REMARK    2  A    between atoms: S_1  and  C_26
REMARK    3  A    between atoms: N_5  and  C_25
REMARK    4  A    between atoms: N_6  and  C_16
REMARK    5  A    between atoms: C_9  and  C_15
REMARK    6  A    between atoms: C_10  and  C_16
REMARK    7  A    between atoms: C_18  and  C_19
REMARK                            x       y       z     vdW  Elec       q    Type
REMARK                         _______ _______ _______ _____ _____    ______ ____
ROOT
ATOM      4  N   UNL     1      -3.425  10.685   6.041  0.00  0.00    -0.297 NA
ATOM      8  C   UNL     1      -1.835   8.889   5.026  0.00  0.00    +0.002 C 
ATOM      9  C   UNL     1      -1.745  10.213   4.218  0.00  0.00    +0.055 C 
ATOM     10  C   UNL     1      -4.163   9.410   5.836  0.00  0.00    +0.072 C 
ATOM     11  C   UNL     1      -3.299   8.402   5.048  0.00  0.00    +0.024 C 
ATOM     12  C   UNL     1      -2.859  11.158   4.753  0.00  0.00    +0.094 C 
ATOM     13  C   UNL     1      -1.449   9.229   6.482  0.00  0.00    +0.019 C 
ATOM     14  C   UNL     1      -2.300  10.414   6.968  0.00  0.00    +0.085 C 
ENDROOT
BRANCH   9  15
ATOM      5  N   UNL     1      -0.603  10.222   1.952  0.00  0.00    -0.271 N 
ATOM      7  N   UNL     1      -0.812  10.121   0.628  0.00  0.00    -0.176 NA
ATOM     15  C   UNL     1      -1.741  10.127   2.698  0.00  0.00    +0.044 A 
ATOM     17  C   UNL     1      -2.766   9.953   1.801  0.00  0.00    +0.048 A 
ATOM     19  C   UNL     1      -2.134   9.958   0.542  0.00  0.00    +0.066 A 
ATOM     25  C   UNL     1       0.743  10.414   2.441  0.00  0.00    +0.172 C 
BRANCH  19  18
ATOM     18  C   UNL     1      -2.788   9.801  -0.819  0.00  0.00    +0.040 C 
ATOM     20  C   UNL     1      -2.226  10.803  -1.842  0.00  0.00    +0.010 C 
ATOM     21  C   UNL     1      -4.321   9.902  -0.734  0.00  0.00    +0.010 C 
ATOM     22  C   UNL     1      -2.882  10.630  -3.211  0.00  0.00    +0.001 C 
ATOM     23  C   UNL     1      -4.969   9.734  -2.108  0.00  0.00    +0.001 C 
ATOM     24  C   UNL     1      -4.403  10.722  -3.123  0.00  0.00    +0.000 C 
ENDBRANCH  19  18
ENDBRANCH   9  15
BRANCH  10  16
ATOM     16  C   UNL     1      -5.528   9.626   5.180  0.00  0.00    +0.124 C 
BRANCH  16   6
ATOM      6  N   UNL     1      -5.768   8.557   4.198  0.00  0.00    -0.193 NA
ATOM     27  H   UNL     1      -4.905   8.141   3.825  0.00  0.00    +0.148 HD
BRANCH   6   1
ATOM      1  S   UNL     1      -7.081   7.489   4.431  0.00  0.00    +0.027 S 
ATOM      2  O   UNL     1      -6.597   6.216   4.928  0.00  0.00    -0.158 OA
ATOM      3  O   UNL     1      -7.938   7.552   3.262  0.00  0.00    -0.158 OA
ATOM     26  C   UNL     1      -7.934   8.307   5.760  0.00  0.00    +0.214 C 
ENDBRANCH   6   1
ENDBRANCH  16   6
ENDBRANCH  10  16
TORSDOF 5
ENDMDL
