MODEL 1
REMARK VINA RESULT:      -6.3      0.000      0.000
REMARK  Name = 40777119
REMARK  6 active torsions:
REMARK  status: ('A' for Active; 'I' for Inactive)
REMARK    1  A    between atoms: N_4  and  C_14
REMARK    2  A    between atoms: C_8  and  C_15
REMARK    3  A    between atoms: C_9  and  C_14
REMARK    4  A    between atoms: C_17  and  C_20
REMARK    5  A    between atoms: C_18  and  C_21
REMARK    6  A    between atoms: C_19  and  C_22
REMARK                            x       y       z     vdW  Elec       q    Type
REMARK                         _______ _______ _______ _____ _____    ______ ____
ROOT
ATOM      3  N   UNL     1      15.657   9.986   4.469  0.00  0.00    -0.297 NA
ATOM      7  C   UNL     1      16.047   7.426   4.746  0.00  0.00    +0.002 C 
ATOM      8  C   UNL     1      15.305   7.722   3.412  0.00  0.00    +0.055 C 
ATOM      9  C   UNL     1      15.202   9.545   5.814  0.00  0.00    +0.074 C 
ATOM     10  C   UNL     1      15.232   8.006   5.921  0.00  0.00    +0.024 C 
ATOM     11  C   UNL     1      17.381   8.199   4.693  0.00  0.00    +0.019 C 
ATOM     12  C   UNL     1      14.933   9.233   3.415  0.00  0.00    +0.094 C 
ATOM     13  C   UNL     1      17.101   9.673   4.352  0.00  0.00    +0.085 C 
ENDROOT
BRANCH   8  15
ATOM      5  N   UNL     1      14.349   5.905   2.085  0.00  0.00    -0.237 NA
ATOM      6  N   UNL     1      12.048   5.222   2.311  0.00  0.00    -0.232 NA
ATOM     15  C   UNL     1      14.126   6.837   3.033  0.00  0.00    +0.050 A 
ATOM     16  C   UNL     1      12.909   7.021   3.658  0.00  0.00    +0.052 A 
ATOM     17  C   UNL     1      11.896   6.177   3.253  0.00  0.00    +0.076 A 
ATOM     18  C   UNL     1      13.282   5.142   1.777  0.00  0.00    +0.127 A 
ATOM     21  C   UNL     1      13.488   4.100   0.731  0.00  0.00    +0.088 C 
BRANCH  17  20
ATOM      1 BR   UNL     1      10.295   8.859   2.566  0.00  0.00    -0.050 Br
ATOM     20  C   UNL     1      10.575   6.267   3.827  0.00  0.00    +0.014 A 
ATOM     23  C   UNL     1       9.752   7.374   3.620  0.00  0.00    +0.027 A 
ATOM     24  C   UNL     1      10.129   5.203   4.610  0.00  0.00    +0.011 A 
ATOM     27  C   UNL     1       8.482   7.416   4.195  0.00  0.00    +0.016 A 
ATOM     28  C   UNL     1       8.858   5.244   5.186  0.00  0.00    +0.001 A 
ATOM     31  C   UNL     1       8.035   6.351   4.979  0.00  0.00    +0.001 A 
ENDBRANCH  17  20
ENDBRANCH   8  15
BRANCH   9  14
ATOM     14  C   UNL     1      13.831  10.116   6.182  0.00  0.00    +0.123 C 
BRANCH  14   4
ATOM      2  O   UNL     1      10.981   9.884   5.922  0.00  0.00    -0.270 OA
ATOM      4  N   UNL     1      12.999   9.109   6.765  0.00  0.00    -0.310 N 
ATOM     19  C   UNL     1      11.617   9.071   6.587  0.00  0.00    +0.244 C 
ATOM     33  H   UNL     1      13.455   8.442   7.378  0.00  0.00    +0.149 HD
BRANCH  19  22
ATOM     22  C   UNL     1      10.894   7.974   7.281  0.00  0.00    +0.037 A 
ATOM     25  C   UNL     1       9.583   8.171   7.717  0.00  0.00    +0.013 A 
ATOM     26  C   UNL     1      11.524   6.749   7.495  0.00  0.00    +0.013 A 
ATOM     29  C   UNL     1       8.903   7.141   8.368  0.00  0.00    +0.001 A 
ATOM     30  C   UNL     1      10.844   5.720   8.145  0.00  0.00    +0.001 A 
ATOM     32  C   UNL     1       9.533   5.915   8.581  0.00  0.00    +0.000 A 
ENDBRANCH  19  22
ENDBRANCH  14   4
ENDBRANCH   9  14
TORSDOF 5
ENDMDL
MODEL 2
REMARK VINA RESULT:      -6.3     24.253     27.289
REMARK  Name = 40777119
REMARK  6 active torsions:
REMARK  status: ('A' for Active; 'I' for Inactive)
REMARK    1  A    between atoms: N_4  and  C_14
REMARK    2  A    between atoms: C_8  and  C_15
REMARK    3  A    between atoms: C_9  and  C_14
REMARK    4  A    between atoms: C_17  and  C_20
REMARK    5  A    between atoms: C_18  and  C_21
REMARK    6  A    between atoms: C_19  and  C_22
REMARK                            x       y       z     vdW  Elec       q    Type
REMARK                         _______ _______ _______ _____ _____    ______ ____
ROOT
ATOM      3  N   UNL     1      -5.712 -10.638   9.669  0.00  0.00    -0.297 NA
ATOM      7  C   UNL     1      -3.822  -9.200  10.740  0.00  0.00    +0.002 C 
ATOM      8  C   UNL     1      -3.552 -10.713  10.971  0.00  0.00    +0.055 C 
ATOM      9  C   UNL     1      -6.304  -9.566  10.513  0.00  0.00    +0.074 C 
ATOM     10  C   UNL     1      -5.207  -8.837  11.317  0.00  0.00    +0.024 C 
ATOM     11  C   UNL     1      -3.896  -8.990   9.214  0.00  0.00    +0.019 C 
ATOM     12  C   UNL     1      -4.811 -11.488  10.486  0.00  0.00    +0.094 C 
ATOM     13  C   UNL     1      -4.901  -9.988   8.612  0.00  0.00    +0.085 C 
ENDROOT
BRANCH   8  15
ATOM      5  N   UNL     1      -2.323 -10.297  13.044  0.00  0.00    -0.237 NA
ATOM      6  N   UNL     1      -2.244 -11.907  14.835  0.00  0.00    -0.232 NA
ATOM     15  C   UNL     1      -3.095 -11.160  12.353  0.00  0.00    +0.050 A 
ATOM     16  C   UNL     1      -3.478 -12.397  12.828  0.00  0.00    +0.052 A 
ATOM     17  C   UNL     1      -3.018 -12.721  14.088  0.00  0.00    +0.076 A 
ATOM     18  C   UNL     1      -1.938 -10.727  14.260  0.00  0.00    +0.127 A 
ATOM     21  C   UNL     1      -1.082  -9.801  15.056  0.00  0.00    +0.088 C 
BRANCH  17  20
ATOM      1 BR   UNL     1      -1.065 -15.140  13.338  0.00  0.00    -0.050 Br
ATOM     20  C   UNL     1      -3.346 -13.987  14.700  0.00  0.00    +0.014 A 
ATOM     23  C   UNL     1      -2.590 -15.136  14.472  0.00  0.00    +0.027 A 
ATOM     24  C   UNL     1      -4.458 -14.038  15.541  0.00  0.00    +0.011 A 
ATOM     27  C   UNL     1      -2.946 -16.338  15.086  0.00  0.00    +0.016 A 
ATOM     28  C   UNL     1      -4.814 -15.239  16.155  0.00  0.00    +0.001 A 
ATOM     31  C   UNL     1      -4.058 -16.389  15.927  0.00  0.00    +0.001 A 
ENDBRANCH  17  20
ENDBRANCH   8  15
BRANCH   9  14
ATOM     14  C   UNL     1      -7.423 -10.088  11.417  0.00  0.00    +0.123 C 
BRANCH  14   4
ATOM      2  O   UNL     1      -7.090 -12.361  13.141  0.00  0.00    -0.270 OA
ATOM      4  N   UNL     1      -7.020 -10.068  12.790  0.00  0.00    -0.310 N 
ATOM     19  C   UNL     1      -6.882 -11.224  13.557  0.00  0.00    +0.244 C 
ATOM     33  H   UNL     1      -6.893  -9.155  13.213  0.00  0.00    +0.149 HD
BRANCH  19  22
ATOM     22  C   UNL     1      -6.481 -11.031  14.974  0.00  0.00    +0.037 A 
ATOM     25  C   UNL     1      -5.394 -10.212  15.285  0.00  0.00    +0.013 A 
ATOM     26  C   UNL     1      -7.190 -11.665  15.993  0.00  0.00    +0.013 A 
ATOM     29  C   UNL     1      -5.017 -10.030  16.616  0.00  0.00    +0.001 A 
ATOM     30  C   UNL     1      -6.814 -11.482  17.323  0.00  0.00    +0.001 A 
ATOM     32  C   UNL     1      -5.728 -10.663  17.635  0.00  0.00    +0.000 A 
ENDBRANCH  19  22
ENDBRANCH  14   4
ENDBRANCH   9  14
TORSDOF 5
ENDMDL
MODEL 3
REMARK VINA RESULT:      -6.2     25.183     28.303
REMARK  Name = 40777119
REMARK  6 active torsions:
REMARK  status: ('A' for Active; 'I' for Inactive)
REMARK    1  A    between atoms: N_4  and  C_14
REMARK    2  A    between atoms: C_8  and  C_15
REMARK    3  A    between atoms: C_9  and  C_14
REMARK    4  A    between atoms: C_17  and  C_20
REMARK    5  A    between atoms: C_18  and  C_21
REMARK    6  A    between atoms: C_19  and  C_22
REMARK                            x       y       z     vdW  Elec       q    Type
REMARK                         _______ _______ _______ _____ _____    ______ ____
ROOT
ATOM      3  N   UNL     1      -6.016 -11.410  10.722  0.00  0.00    -0.297 NA
ATOM      7  C   UNL     1      -5.088  -9.242  11.829  0.00  0.00    +0.002 C 
ATOM      8  C   UNL     1      -4.251 -10.478  12.266  0.00  0.00    +0.055 C 
ATOM      9  C   UNL     1      -7.124 -10.649  11.359  0.00  0.00    +0.074 C 
ATOM     10  C   UNL     1      -6.569  -9.476  12.194  0.00  0.00    +0.024 C 
ATOM     11  C   UNL     1      -5.005  -9.171  10.290  0.00  0.00    +0.019 C 
ATOM     12  C   UNL     1      -4.981 -11.744  11.732  0.00  0.00    +0.094 C 
ATOM     13  C   UNL     1      -5.396 -10.536   9.697  0.00  0.00    +0.085 C 
ENDROOT
BRANCH   8  15
ATOM      5  N   UNL     1      -2.569 -10.426  14.040  0.00  0.00    -0.237 NA
ATOM      6  N   UNL     1      -3.128 -10.825  16.351  0.00  0.00    -0.232 NA
ATOM     15  C   UNL     1      -3.870 -10.605  13.734  0.00  0.00    +0.050 A 
ATOM     16  C   UNL     1      -4.846 -10.893  14.667  0.00  0.00    +0.052 A 
ATOM     17  C   UNL     1      -4.412 -10.992  15.973  0.00  0.00    +0.076 A 
ATOM     18  C   UNL     1      -2.271 -10.548  15.347  0.00  0.00    +0.127 A 
ATOM     21  C   UNL     1      -0.842 -10.359  15.726  0.00  0.00    +0.088 C 
BRANCH  17  20
ATOM      1 BR   UNL     1      -5.331 -14.049  16.164  0.00  0.00    -0.050 Br
ATOM     20  C   UNL     1      -5.333 -11.290  17.044  0.00  0.00    +0.014 A 
ATOM     23  C   UNL     1      -5.825 -12.577  17.259  0.00  0.00    +0.027 A 
ATOM     24  C   UNL     1      -5.728 -10.243  17.876  0.00  0.00    +0.011 A 
ATOM     27  C   UNL     1      -6.713 -12.817  18.308  0.00  0.00    +0.016 A 
ATOM     28  C   UNL     1      -6.615 -10.483  18.926  0.00  0.00    +0.001 A 
ATOM     31  C   UNL     1      -7.108 -11.770  19.141  0.00  0.00    +0.001 A 
ENDBRANCH  17  20
ENDBRANCH   8  15
BRANCH   9  14
ATOM     14  C   UNL     1      -8.049 -11.548  12.183  0.00  0.00    +0.123 C 
BRANCH  14   4
ATOM      2  O   UNL     1      -8.355 -12.742  14.776  0.00  0.00    -0.270 OA
ATOM      4  N   UNL     1      -8.463 -10.890  13.384  0.00  0.00    -0.310 N 
ATOM     19  C   UNL     1      -8.585 -11.548  14.606  0.00  0.00    +0.244 C 
ATOM     33  H   UNL     1      -8.729  -9.915  13.299  0.00  0.00    +0.149 HD
BRANCH  19  22
ATOM     22  C   UNL     1      -9.051 -10.727  15.753  0.00  0.00    +0.037 A 
ATOM     25  C   UNL     1      -8.666  -9.390  15.855  0.00  0.00    +0.013 A 
ATOM     26  C   UNL     1      -9.875 -11.292  16.726  0.00  0.00    +0.013 A 
ATOM     29  C   UNL     1      -9.104  -8.618  16.932  0.00  0.00    +0.001 A 
ATOM     30  C   UNL     1     -10.314 -10.520  17.801  0.00  0.00    +0.001 A 
ATOM     32  C   UNL     1      -9.929  -9.183  17.904  0.00  0.00    +0.000 A 
ENDBRANCH  19  22
ENDBRANCH  14   4
ENDBRANCH   9  14
TORSDOF 5
ENDMDL
MODEL 4
REMARK VINA RESULT:      -6.2     28.110     31.669
REMARK  Name = 40777119
REMARK  6 active torsions:
REMARK  status: ('A' for Active; 'I' for Inactive)
REMARK    1  A    between atoms: N_4  and  C_14
REMARK    2  A    between atoms: C_8  and  C_15
REMARK    3  A    between atoms: C_9  and  C_14
REMARK    4  A    between atoms: C_17  and  C_20
REMARK    5  A    between atoms: C_18  and  C_21
REMARK    6  A    between atoms: C_19  and  C_22
REMARK                            x       y       z     vdW  Elec       q    Type
REMARK                         _______ _______ _______ _____ _____    ______ ____
ROOT
ATOM      3  N   UNL     1     -12.951 -12.160  19.194  0.00  0.00    -0.297 NA
ATOM      7  C   UNL     1     -11.924  -9.932  20.067  0.00  0.00    +0.002 C 
ATOM      8  C   UNL     1     -12.310  -9.801  18.567  0.00  0.00    +0.055 C 
ATOM      9  C   UNL     1     -11.671 -12.432  19.899  0.00  0.00    +0.074 C 
ATOM     10  C   UNL     1     -10.946 -11.113  20.240  0.00  0.00    +0.024 C 
ATOM     11  C   UNL     1     -13.216 -10.295  20.829  0.00  0.00    +0.019 C 
ATOM     12  C   UNL     1     -12.723 -11.217  18.070  0.00  0.00    +0.094 C 
ATOM     13  C   UNL     1     -13.873 -11.515  20.159  0.00  0.00    +0.085 C 
ENDROOT
BRANCH   8  15
ATOM      5  N   UNL     1     -11.665  -7.904  17.167  0.00  0.00    -0.237 NA
ATOM      6  N   UNL     1      -9.594  -7.862  15.935  0.00  0.00    -0.232 NA
ATOM     15  C   UNL     1     -11.323  -9.124  17.627  0.00  0.00    +0.050 A 
ATOM     16  C   UNL     1     -10.151  -9.770  17.291  0.00  0.00    +0.052 A 
ATOM     17  C   UNL     1      -9.316  -9.084  16.433  0.00  0.00    +0.076 A 
ATOM     18  C   UNL     1     -10.768  -7.337  16.337  0.00  0.00    +0.127 A 
ATOM     21  C   UNL     1     -11.111  -5.987  15.806  0.00  0.00    +0.088 C 
BRANCH  17  20
ATOM      1 BR   UNL     1      -9.503 -11.065  13.928  0.00  0.00    -0.050 Br
ATOM     20  C   UNL     1      -8.059  -9.651  16.003  0.00  0.00    +0.014 A 
ATOM     23  C   UNL     1      -7.976 -10.532  14.925  0.00  0.00    +0.027 A 
ATOM     24  C   UNL     1      -6.908  -9.292  16.703  0.00  0.00    +0.011 A 
ATOM     27  C   UNL     1      -6.738 -11.053  14.546  0.00  0.00    +0.016 A 
ATOM     28  C   UNL     1      -5.670  -9.813  16.324  0.00  0.00    +0.001 A 
ATOM     31  C   UNL     1      -5.586 -10.695  15.246  0.00  0.00    +0.001 A 
ENDBRANCH  17  20
ENDBRANCH   8  15
BRANCH   9  14
ATOM     14  C   UNL     1     -10.769 -13.393  19.120  0.00  0.00    +0.123 C 
BRANCH  14   4
ATOM      2  O   UNL     1      -8.820 -13.169  17.022  0.00  0.00    -0.270 OA
ATOM      4  N   UNL     1      -9.393 -13.032  19.267  0.00  0.00    -0.310 N 
ATOM     19  C   UNL     1      -8.512 -12.947  18.190  0.00  0.00    +0.244 C 
ATOM     33  H   UNL     1      -9.057 -12.897  20.214  0.00  0.00    +0.149 HD
BRANCH  19  22
ATOM     22  C   UNL     1      -7.108 -12.586  18.515  0.00  0.00    +0.037 A 
ATOM     25  C   UNL     1      -6.843 -11.628  19.495  0.00  0.00    +0.013 A 
ATOM     26  C   UNL     1      -6.055 -13.205  17.842  0.00  0.00    +0.013 A 
ATOM     29  C   UNL     1      -5.525 -11.289  19.800  0.00  0.00    +0.001 A 
ATOM     30  C   UNL     1      -4.737 -12.867  18.149  0.00  0.00    +0.001 A 
ATOM     32  C   UNL     1      -4.472 -11.909  19.128  0.00  0.00    +0.000 A 
ENDBRANCH  19  22
ENDBRANCH  14   4
ENDBRANCH   9  14
TORSDOF 5
ENDMDL
MODEL 5
REMARK VINA RESULT:      -6.1     25.315     28.464
REMARK  Name = 40777119
REMARK  6 active torsions:
REMARK  status: ('A' for Active; 'I' for Inactive)
REMARK    1  A    between atoms: N_4  and  C_14
REMARK    2  A    between atoms: C_8  and  C_15
REMARK    3  A    between atoms: C_9  and  C_14
REMARK    4  A    between atoms: C_17  and  C_20
REMARK    5  A    between atoms: C_18  and  C_21
REMARK    6  A    between atoms: C_19  and  C_22
REMARK                            x       y       z     vdW  Elec       q    Type
REMARK                         _______ _______ _______ _____ _____    ______ ____
ROOT
ATOM      3  N   UNL     1      -2.511 -10.753  13.487  0.00  0.00    -0.297 NA
ATOM      7  C   UNL     1      -3.749 -13.027  13.205  0.00  0.00    +0.002 C 
ATOM      8  C   UNL     1      -4.744 -11.843  13.052  0.00  0.00    +0.055 C 
ATOM      9  C   UNL     1      -2.170 -11.661  14.615  0.00  0.00    +0.074 C 
ATOM     10  C   UNL     1      -3.049 -12.930  14.577  0.00  0.00    +0.024 C 
ATOM     11  C   UNL     1      -2.662 -12.837  12.126  0.00  0.00    +0.019 C 
ATOM     12  C   UNL     1      -3.979 -10.543  13.430  0.00  0.00    +0.094 C 
ATOM     13  C   UNL     1      -2.089 -11.413  12.228  0.00  0.00    +0.085 C 
ENDROOT
BRANCH   8  15
ATOM      5  N   UNL     1      -6.624 -13.178  13.867  0.00  0.00    -0.237 NA
ATOM      6  N   UNL     1      -8.513 -12.185  14.988  0.00  0.00    -0.232 NA
ATOM     15  C   UNL     1      -6.094 -11.944  13.749  0.00  0.00    +0.050 A 
ATOM     16  C   UNL     1      -6.703 -10.798  14.218  0.00  0.00    +0.052 A 
ATOM     17  C   UNL     1      -7.923 -10.981  14.835  0.00  0.00    +0.076 A 
ATOM     18  C   UNL     1      -7.818 -13.226  14.488  0.00  0.00    +0.127 A 
ATOM     21  C   UNL     1      -8.439 -14.573  14.636  0.00  0.00    +0.088 C 
BRANCH  17  20
ATOM      1 BR   UNL     1     -10.112  -9.736  12.863  0.00  0.00    -0.050 Br
ATOM     20  C   UNL     1      -8.665  -9.863  15.369  0.00  0.00    +0.014 A 
ATOM     23  C   UNL     1      -9.654  -9.212  14.631  0.00  0.00    +0.027 A 
ATOM     24  C   UNL     1      -8.366  -9.439  16.663  0.00  0.00    +0.011 A 
ATOM     27  C   UNL     1     -10.345  -8.136  15.190  0.00  0.00    +0.016 A 
ATOM     28  C   UNL     1      -9.057  -8.362  17.221  0.00  0.00    +0.001 A 
ATOM     31  C   UNL     1     -10.046  -7.711  16.485  0.00  0.00    +0.001 A 
ENDBRANCH  17  20
ENDBRANCH   8  15
BRANCH   9  14
ATOM     14  C   UNL     1      -2.241 -10.958  15.972  0.00  0.00    +0.123 C 
BRANCH  14   4
ATOM      2  O   UNL     1      -4.584  -9.488  16.744  0.00  0.00    -0.270 OA
ATOM      4  N   UNL     1      -3.342 -11.448  16.742  0.00  0.00    -0.310 N 
ATOM     19  C   UNL     1      -4.445 -10.662  17.074  0.00  0.00    +0.244 C 
ATOM     33  H   UNL     1      -3.262 -12.394  17.100  0.00  0.00    +0.149 HD
BRANCH  19  22
ATOM     22  C   UNL     1      -5.492 -11.314  17.902  0.00  0.00    +0.037 A 
ATOM     25  C   UNL     1      -5.950 -10.690  19.064  0.00  0.00    +0.013 A 
ATOM     26  C   UNL     1      -6.019 -12.546  17.519  0.00  0.00    +0.013 A 
ATOM     29  C   UNL     1      -6.935 -11.300  19.841  0.00  0.00    +0.001 A 
ATOM     30  C   UNL     1      -7.003 -13.156  18.296  0.00  0.00    +0.001 A 
ATOM     32  C   UNL     1      -7.462 -12.533  19.457  0.00  0.00    +0.000 A 
ENDBRANCH  19  22
ENDBRANCH  14   4
ENDBRANCH   9  14
TORSDOF 5
ENDMDL
MODEL 6
REMARK VINA RESULT:      -6.1      2.785      6.028
REMARK  Name = 40777119
REMARK  6 active torsions:
REMARK  status: ('A' for Active; 'I' for Inactive)
REMARK    1  A    between atoms: N_4  and  C_14
REMARK    2  A    between atoms: C_8  and  C_15
REMARK    3  A    between atoms: C_9  and  C_14
REMARK    4  A    between atoms: C_17  and  C_20
REMARK    5  A    between atoms: C_18  and  C_21
REMARK    6  A    between atoms: C_19  and  C_22
REMARK                            x       y       z     vdW  Elec       q    Type
REMARK                         _______ _______ _______ _____ _____    ______ ____
ROOT
ATOM      3  N   UNL     1       9.926   6.861   7.657  0.00  0.00    -0.297 NA
ATOM      7  C   UNL     1       9.806   5.045   5.794  0.00  0.00    +0.002 C 
ATOM      8  C   UNL     1      11.122   5.863   5.673  0.00  0.00    +0.055 C 
ATOM      9  C   UNL     1       8.613   6.931   6.963  0.00  0.00    +0.074 C 
ATOM     10  C   UNL     1       8.601   6.007   5.726  0.00  0.00    +0.024 C 
ATOM     11  C   UNL     1       9.803   4.412   7.201  0.00  0.00    +0.019 C 
ATOM     12  C   UNL     1      11.028   7.044   6.680  0.00  0.00    +0.094 C 
ATOM     13  C   UNL     1      10.054   5.508   8.251  0.00  0.00    +0.085 C 
ENDROOT
BRANCH   8  15
ATOM      5  N   UNL     1      12.229   7.487   4.218  0.00  0.00    -0.237 NA
ATOM      6  N   UNL     1      12.373   7.184   1.831  0.00  0.00    -0.232 NA
ATOM     15  C   UNL     1      11.561   6.317   4.288  0.00  0.00    +0.050 A 
ATOM     16  C   UNL     1      11.266   5.535   3.190  0.00  0.00    +0.052 A 
ATOM     17  C   UNL     1      11.701   6.023   1.975  0.00  0.00    +0.076 A 
ATOM     18  C   UNL     1      12.600   7.856   2.977  0.00  0.00    +0.127 A 
ATOM     21  C   UNL     1      13.339   9.145   2.858  0.00  0.00    +0.088 C 
BRANCH  17  20
ATOM      1 BR   UNL     1      13.798   3.698   1.322  0.00  0.00    -0.050 Br
ATOM     20  C   UNL     1      11.454   5.301   0.750  0.00  0.00    +0.014 A 
ATOM     23  C   UNL     1      12.280   4.259   0.327  0.00  0.00    +0.027 A 
ATOM     24  C   UNL     1      10.352   5.675  -0.018  0.00  0.00    +0.011 A 
ATOM     27  C   UNL     1      12.001   3.590  -0.865  0.00  0.00    +0.016 A 
ATOM     28  C   UNL     1      10.073   5.005  -1.211  0.00  0.00    +0.001 A 
ATOM     31  C   UNL     1      10.898   3.963  -1.634  0.00  0.00    +0.001 A 
ENDBRANCH  17  20
ENDBRANCH   8  15
BRANCH   9  14
ATOM     14  C   UNL     1       8.218   8.366   6.607  0.00  0.00    +0.123 C 
BRANCH  14   4
ATOM      2  O   UNL     1       9.819   9.703   4.633  0.00  0.00    -0.270 OA
ATOM      4  N   UNL     1       7.930   8.484   5.210  0.00  0.00    -0.310 N 
ATOM     19  C   UNL     1       8.766   9.154   4.318  0.00  0.00    +0.244 C 
ATOM     33  H   UNL     1       7.044   8.106   4.895  0.00  0.00    +0.149 HD
BRANCH  19  22
ATOM     22  C   UNL     1       8.312   9.209   2.905  0.00  0.00    +0.037 A 
ATOM     25  C   UNL     1       9.189   8.859   1.877  0.00  0.00    +0.013 A 
ATOM     26  C   UNL     1       7.010   9.608   2.606  0.00  0.00    +0.013 A 
ATOM     29  C   UNL     1       8.762   8.910   0.549  0.00  0.00    +0.001 A 
ATOM     30  C   UNL     1       6.584   9.658   1.279  0.00  0.00    +0.001 A 
ATOM     32  C   UNL     1       7.459   9.308   0.250  0.00  0.00    +0.000 A 
ENDBRANCH  19  22
ENDBRANCH  14   4
ENDBRANCH   9  14
TORSDOF 5
ENDMDL
MODEL 7
REMARK VINA RESULT:      -6.0     13.371     16.281
REMARK  Name = 40777119
REMARK  6 active torsions:
REMARK  status: ('A' for Active; 'I' for Inactive)
REMARK    1  A    between atoms: N_4  and  C_14
REMARK    2  A    between atoms: C_8  and  C_15
REMARK    3  A    between atoms: C_9  and  C_14
REMARK    4  A    between atoms: C_17  and  C_20
REMARK    5  A    between atoms: C_18  and  C_21
REMARK    6  A    between atoms: C_19  and  C_22
REMARK                            x       y       z     vdW  Elec       q    Type
REMARK                         _______ _______ _______ _____ _____    ______ ____
ROOT
ATOM      3  N   UNL     1      -0.851  11.558  -0.767  0.00  0.00    -0.297 NA
ATOM      7  C   UNL     1      -2.663   9.714  -0.450  0.00  0.00    +0.002 C 
ATOM      8  C   UNL     1      -3.087  11.022   0.273  0.00  0.00    +0.055 C 
ATOM      9  C   UNL     1      -0.216  10.296  -0.304  0.00  0.00    +0.074 C 
ATOM     10  C   UNL     1      -1.290   9.258   0.086  0.00  0.00    +0.024 C 
ATOM     11  C   UNL     1      -2.473  10.070  -1.940  0.00  0.00    +0.019 C 
ATOM     12  C   UNL     1      -1.877  11.999   0.211  0.00  0.00    +0.094 C 
ATOM     13  C   UNL     1      -1.529  11.280  -2.055  0.00  0.00    +0.085 C 
ENDROOT
BRANCH   8  15
ATOM      5  N   UNL     1      -3.407  11.929   2.522  0.00  0.00    -0.237 NA
ATOM      6  N   UNL     1      -4.687  10.770   4.203  0.00  0.00    -0.232 NA
ATOM     15  C   UNL     1      -3.670  10.913   1.675  0.00  0.00    +0.050 A 
ATOM     16  C   UNL     1      -4.423   9.807   2.013  0.00  0.00    +0.052 A 
ATOM     17  C   UNL     1      -4.911   9.790   3.304  0.00  0.00    +0.076 A 
ATOM     18  C   UNL     1      -3.938  11.796   3.752  0.00  0.00    +0.127 A 
ATOM     21  C   UNL     1      -3.668  12.899   4.718  0.00  0.00    +0.088 C 
BRANCH  17  20
ATOM      1 BR   UNL     1      -8.046  10.033   2.720  0.00  0.00    -0.050 Br
ATOM     20  C   UNL     1      -5.712   8.688   3.784  0.00  0.00    +0.014 A 
ATOM     23  C   UNL     1      -7.094   8.648   3.606  0.00  0.00    +0.027 A 
ATOM     24  C   UNL     1      -5.061   7.645   4.442  0.00  0.00    +0.011 A 
ATOM     27  C   UNL     1      -7.827   7.561   4.087  0.00  0.00    +0.016 A 
ATOM     28  C   UNL     1      -5.793   6.559   4.923  0.00  0.00    +0.001 A 
ATOM     31  C   UNL     1      -7.176   6.518   4.746  0.00  0.00    +0.001 A 
ENDBRANCH  17  20
ENDBRANCH   8  15
BRANCH   9  14
ATOM     14  C   UNL     1       0.790  10.529   0.825  0.00  0.00    +0.123 C 
BRANCH  14   4
ATOM      2  O   UNL     1       0.244  12.273   3.041  0.00  0.00    -0.270 OA
ATOM      4  N   UNL     1       0.232  10.157   2.089  0.00  0.00    -0.310 N 
ATOM     19  C   UNL     1      -0.001  11.072   3.114  0.00  0.00    +0.244 C 
ATOM     33  H   UNL     1       0.065   9.168   2.238  0.00  0.00    +0.149 HD
BRANCH  19  22
ATOM     22  C   UNL     1      -0.561  10.520   4.375  0.00  0.00    +0.037 A 
ATOM     25  C   UNL     1      -1.285   9.327   4.353  0.00  0.00    +0.013 A 
ATOM     26  C   UNL     1      -0.361  11.192   5.580  0.00  0.00    +0.013 A 
ATOM     29  C   UNL     1      -1.809   8.808   5.537  0.00  0.00    +0.001 A 
ATOM     30  C   UNL     1      -0.885  10.673   6.764  0.00  0.00    +0.001 A 
ATOM     32  C   UNL     1      -1.608   9.480   6.743  0.00  0.00    +0.000 A 
ENDBRANCH  19  22
ENDBRANCH  14   4
ENDBRANCH   9  14
TORSDOF 5
ENDMDL
MODEL 8
REMARK VINA RESULT:      -6.0     24.934     28.160
REMARK  Name = 40777119
REMARK  6 active torsions:
REMARK  status: ('A' for Active; 'I' for Inactive)
REMARK    1  A    between atoms: N_4  and  C_14
REMARK    2  A    between atoms: C_8  and  C_15
REMARK    3  A    between atoms: C_9  and  C_14
REMARK    4  A    between atoms: C_17  and  C_20
REMARK    5  A    between atoms: C_18  and  C_21
REMARK    6  A    between atoms: C_19  and  C_22
REMARK                            x       y       z     vdW  Elec       q    Type
REMARK                         _______ _______ _______ _____ _____    ______ ____
ROOT
ATOM      3  N   UNL     1      -7.510 -11.735  17.906  0.00  0.00    -0.297 NA
ATOM      7  C   UNL     1      -5.058 -11.133  18.545  0.00  0.00    +0.002 C 
ATOM      8  C   UNL     1      -5.457 -10.444  17.210  0.00  0.00    +0.055 C 
ATOM      9  C   UNL     1      -6.750 -12.972  18.229  0.00  0.00    +0.074 C 
ATOM     10  C   UNL     1      -5.249 -12.658  18.408  0.00  0.00    +0.024 C 
ATOM     11  C   UNL     1      -6.057 -10.643  19.614  0.00  0.00    +0.019 C 
ATOM     12  C   UNL     1      -6.847 -11.007  16.795  0.00  0.00    +0.094 C 
ATOM     13  C   UNL     1      -7.493 -10.864  19.105  0.00  0.00    +0.085 C 
ENDROOT
BRANCH   8  15
ATOM      5  N   UNL     1      -3.151 -10.472  16.396  0.00  0.00    -0.237 NA
ATOM      6  N   UNL     1      -2.620 -10.507  14.045  0.00  0.00    -0.232 NA
ATOM     15  C   UNL     1      -4.458 -10.467  16.062  0.00  0.00    +0.050 A 
ATOM     16  C   UNL     1      -4.918 -10.481  14.761  0.00  0.00    +0.052 A 
ATOM     17  C   UNL     1      -3.943 -10.501  13.784  0.00  0.00    +0.076 A 
ATOM     18  C   UNL     1      -2.299 -10.492  15.354  0.00  0.00    +0.127 A 
ATOM     21  C   UNL     1      -0.844 -10.497  15.682  0.00  0.00    +0.088 C 
BRANCH  17  20
ATOM      1 BR   UNL     1      -1.523  -9.922  11.774  0.00  0.00    -0.050 Br
ATOM     20  C   UNL     1      -4.292 -10.515  12.383  0.00  0.00    +0.014 A 
ATOM     23  C   UNL     1      -3.348 -10.281  11.384  0.00  0.00    +0.027 A 
ATOM     24  C   UNL     1      -5.620 -10.773  12.043  0.00  0.00    +0.011 A 
ATOM     27  C   UNL     1      -3.732 -10.306  10.042  0.00  0.00    +0.016 A 
ATOM     28  C   UNL     1      -6.004 -10.798  10.702  0.00  0.00    +0.001 A 
ATOM     31  C   UNL     1      -5.061 -10.564   9.702  0.00  0.00    +0.001 A 
ENDBRANCH  17  20
ENDBRANCH   8  15
BRANCH   9  14
ATOM     14  C   UNL     1      -6.982 -14.084  17.204  0.00  0.00    +0.123 C 
BRANCH  14   4
ATOM      2  O   UNL     1      -7.167 -13.671  14.368  0.00  0.00    -0.270 OA
ATOM      4  N   UNL     1      -5.908 -14.139  16.260  0.00  0.00    -0.310 N 
ATOM     19  C   UNL     1      -6.087 -13.925  14.895  0.00  0.00    +0.244 C 
ATOM     33  H   UNL     1      -4.999 -14.407  16.622  0.00  0.00    +0.149 HD
BRANCH  19  22
ATOM     22  C   UNL     1      -4.874 -14.044  14.045  0.00  0.00    +0.037 A 
ATOM     25  C   UNL     1      -3.607 -14.017  14.630  0.00  0.00    +0.013 A 
ATOM     26  C   UNL     1      -5.001 -14.183  12.664  0.00  0.00    +0.013 A 
ATOM     29  C   UNL     1      -2.468 -14.130  13.833  0.00  0.00    +0.001 A 
ATOM     30  C   UNL     1      -3.862 -14.297  11.867  0.00  0.00    +0.001 A 
ATOM     32  C   UNL     1      -2.596 -14.271  12.451  0.00  0.00    +0.000 A 
ENDBRANCH  19  22
ENDBRANCH  14   4
ENDBRANCH   9  14
TORSDOF 5
ENDMDL
MODEL 9
REMARK VINA RESULT:      -5.9     24.394     27.321
REMARK  Name = 40777119
REMARK  6 active torsions:
REMARK  status: ('A' for Active; 'I' for Inactive)
REMARK    1  A    between atoms: N_4  and  C_14
REMARK    2  A    between atoms: C_8  and  C_15
REMARK    3  A    between atoms: C_9  and  C_14
REMARK    4  A    between atoms: C_17  and  C_20
REMARK    5  A    between atoms: C_18  and  C_21
REMARK    6  A    between atoms: C_19  and  C_22
REMARK                            x       y       z     vdW  Elec       q    Type
REMARK                         _______ _______ _______ _____ _____    ______ ____
ROOT
ATOM      3  N   UNL     1      18.659  -2.862  31.105  0.00  0.00    -0.297 NA
ATOM      7  C   UNL     1      16.119  -2.295  30.994  0.00  0.00    +0.002 C 
ATOM      8  C   UNL     1      16.329  -3.767  31.448  0.00  0.00    +0.055 C 
ATOM      9  C   UNL     1      18.335  -2.233  29.797  0.00  0.00    +0.074 C 
ATOM     10  C   UNL     1      16.808  -2.080  29.630  0.00  0.00    +0.024 C 
ATOM     11  C   UNL     1      16.853  -1.405  32.020  0.00  0.00    +0.019 C 
ATOM     12  C   UNL     1      17.844  -4.088  31.295  0.00  0.00    +0.094 C 
ATOM     13  C   UNL     1      18.303  -1.899  32.174  0.00  0.00    +0.085 C 
ENDROOT
BRANCH   8  15
ATOM      5  N   UNL     1      14.209  -4.981  31.349  0.00  0.00    -0.237 NA
ATOM      6  N   UNL     1      13.818  -6.756  29.765  0.00  0.00    -0.232 NA
ATOM     15  C   UNL     1      15.446  -4.842  30.831  0.00  0.00    +0.050 A 
ATOM     16  C   UNL     1      15.935  -5.611  29.794  0.00  0.00    +0.052 A 
ATOM     17  C   UNL     1      15.067  -6.562  29.296  0.00  0.00    +0.076 A 
ATOM     18  C   UNL     1      13.458  -5.943  30.778  0.00  0.00    +0.127 A 
ATOM     21  C   UNL     1      12.084  -6.129  31.325  0.00  0.00    +0.088 C 
BRANCH  17  20
ATOM      1 BR   UNL     1      15.976  -9.501  30.171  0.00  0.00    -0.050 Br
ATOM     20  C   UNL     1      15.457  -7.432  28.212  0.00  0.00    +0.014 A 
ATOM     23  C   UNL     1      15.878  -8.744  28.431  0.00  0.00    +0.027 A 
ATOM     24  C   UNL     1      15.404  -6.924  26.914  0.00  0.00    +0.011 A 
ATOM     27  C   UNL     1      16.244  -9.548  27.351  0.00  0.00    +0.016 A 
ATOM     28  C   UNL     1      15.771  -7.728  25.834  0.00  0.00    +0.001 A 
ATOM     31  C   UNL     1      16.191  -9.039  26.053  0.00  0.00    +0.001 A 
ENDBRANCH  17  20
ENDBRANCH   8  15
BRANCH   9  14
ATOM     14  C   UNL     1      18.966  -2.978  28.619  0.00  0.00    +0.123 C 
BRANCH  14   4
ATOM      2  O   UNL     1      17.933  -4.609  26.493  0.00  0.00    -0.270 OA
ATOM      4  N   UNL     1      18.424  -2.521  27.377  0.00  0.00    -0.310 N 
ATOM     19  C   UNL     1      17.942  -3.385  26.395  0.00  0.00    +0.244 C 
ATOM     33  H   UNL     1      18.460  -1.521  27.206  0.00  0.00    +0.149 HD
BRANCH  19  22
ATOM     22  C   UNL     1      17.436  -2.751  25.151  0.00  0.00    +0.037 A 
ATOM     25  C   UNL     1      16.437  -3.379  24.405  0.00  0.00    +0.013 A 
ATOM     26  C   UNL     1      17.958  -1.529  24.728  0.00  0.00    +0.013 A 
ATOM     29  C   UNL     1      15.961  -2.784  23.237  0.00  0.00    +0.001 A 
ATOM     30  C   UNL     1      17.481  -0.934  23.561  0.00  0.00    +0.001 A 
ATOM     32  C   UNL     1      16.482  -1.560  22.815  0.00  0.00    +0.000 A 
ENDBRANCH  19  22
ENDBRANCH  14   4
ENDBRANCH   9  14
TORSDOF 5
ENDMDL
MODEL 10
REMARK VINA RESULT:      -5.9      3.321      6.781
REMARK  Name = 40777119
REMARK  6 active torsions:
REMARK  status: ('A' for Active; 'I' for Inactive)
REMARK    1  A    between atoms: N_4  and  C_14
REMARK    2  A    between atoms: C_8  and  C_15
REMARK    3  A    between atoms: C_9  and  C_14
REMARK    4  A    between atoms: C_17  and  C_20
REMARK    5  A    between atoms: C_18  and  C_21
REMARK    6  A    between atoms: C_19  and  C_22
REMARK                            x       y       z     vdW  Elec       q    Type
REMARK                         _______ _______ _______ _____ _____    ______ ____
ROOT
ATOM      3  N   UNL     1       8.099  11.013   2.655  0.00  0.00    -0.297 NA
ATOM      7  C   UNL     1       7.416  11.875   5.016  0.00  0.00    +0.002 C 
ATOM      8  C   UNL     1       8.962  11.763   4.905  0.00  0.00    +0.055 C 
ATOM      9  C   UNL     1       7.051  10.132   3.234  0.00  0.00    +0.074 C 
ATOM     10  C   UNL     1       6.782  10.502   4.709  0.00  0.00    +0.024 C 
ATOM     11  C   UNL     1       6.959  12.845   3.906  0.00  0.00    +0.019 C 
ATOM     12  C   UNL     1       9.279  11.058   3.555  0.00  0.00    +0.094 C 
ATOM     13  C   UNL     1       7.540  12.382   2.558  0.00  0.00    +0.085 C 
ENDROOT
BRANCH   8  15
ATOM      5  N   UNL     1       9.257  11.415   7.307  0.00  0.00    -0.237 NA
ATOM      6  N   UNL     1      11.052  10.077   8.200  0.00  0.00    -0.232 NA
ATOM     15  C   UNL     1       9.724  11.149   6.071  0.00  0.00    +0.050 A 
ATOM     16  C   UNL     1      10.833  10.366   5.821  0.00  0.00    +0.052 A 
ATOM     17  C   UNL     1      11.463   9.852   6.935  0.00  0.00    +0.076 A 
ATOM     18  C   UNL     1       9.958  10.856   8.312  0.00  0.00    +0.127 A 
ATOM     21  C   UNL     1       9.474  11.129   9.696  0.00  0.00    +0.088 C 
BRANCH  17  20
ATOM      1 BR   UNL     1      14.186  11.417   6.329  0.00  0.00    -0.050 Br
ATOM     20  C   UNL     1      12.636   9.018   6.811  0.00  0.00    +0.014 A 
ATOM     23  C   UNL     1      13.897   9.552   6.548  0.00  0.00    +0.027 A 
ATOM     24  C   UNL     1      12.477   7.641   6.962  0.00  0.00    +0.011 A 
ATOM     27  C   UNL     1      15.002   8.706   6.437  0.00  0.00    +0.016 A 
ATOM     28  C   UNL     1      13.582   6.796   6.852  0.00  0.00    +0.001 A 
ATOM     31  C   UNL     1      14.844   7.328   6.588  0.00  0.00    +0.001 A 
ENDBRANCH  17  20
ENDBRANCH   8  15
BRANCH   9  14
ATOM     14  C   UNL     1       7.381   8.647   3.070  0.00  0.00    +0.123 C 
BRANCH  14   4
ATOM      2  O   UNL     1       9.728   7.103   3.664  0.00  0.00    -0.270 OA
ATOM      4  N   UNL     1       7.720   8.058   4.328  0.00  0.00    -0.310 N 
ATOM     19  C   UNL     1       8.885   7.320   4.531  0.00  0.00    +0.244 C 
ATOM     33  H   UNL     1       7.035   8.147   5.071  0.00  0.00    +0.149 HD
BRANCH  19  22
ATOM     22  C   UNL     1       9.078   6.752   5.891  0.00  0.00    +0.037 A 
ATOM     25  C   UNL     1       8.725   7.501   7.015  0.00  0.00    +0.013 A 
ATOM     26  C   UNL     1       9.609   5.472   6.043  0.00  0.00    +0.013 A 
ATOM     29  C   UNL     1       8.904   6.967   8.291  0.00  0.00    +0.001 A 
ATOM     30  C   UNL     1       9.787   4.939   7.319  0.00  0.00    +0.001 A 
ATOM     32  C   UNL     1       9.435   5.686   8.444  0.00  0.00    +0.000 A 
ENDBRANCH  19  22
ENDBRANCH  14   4
ENDBRANCH   9  14
TORSDOF 5
ENDMDL
