MODEL 1
REMARK VINA RESULT:      -6.7      0.000      0.000
REMARK  Name = 11882084
REMARK  12 active torsions:
REMARK  status: ('A' for Active; 'I' for Inactive)
REMARK    1  A    between atoms: S_1  and  C_19
REMARK    2  A    between atoms: S_1  and  C_27
REMARK    3  A    between atoms: O_6  and  C_33
REMARK    4  A    between atoms: O_6  and  C_36
REMARK    5  A    between atoms: N_8  and  C_12
REMARK    6  A    between atoms: N_9  and  C_18
REMARK    7  A    between atoms: N_10  and  C_24
REMARK    8  A    between atoms: C_13  and  C_16
REMARK    9  A    between atoms: C_17  and  C_19
REMARK   10  A    between atoms: C_18  and  C_21
REMARK   11  A    between atoms: C_18  and  C_22
REMARK   12  A    between atoms: C_21  and  C_23
REMARK                            x       y       z     vdW  Elec       q    Type
REMARK                         _______ _______ _______ _____ _____    ______ ____
ROOT
ATOM      3  O   UNL     1      -5.748 -13.645  15.078  0.00  0.00    -0.275 OA
ATOM      7  N   UNL     1      -5.215 -12.813  17.171  0.00  0.00    -0.287 N 
ATOM     12  C   UNL     1      -6.059 -11.025  18.481  0.00  0.00    +0.105 C 
ATOM     13  C   UNL     1      -5.979 -11.574  17.058  0.00  0.00    +0.182 C 
ATOM     14  C   UNL     1      -4.797 -11.579  19.148  0.00  0.00    +0.043 C 
ATOM     15  C   UNL     1      -4.607 -12.941  18.493  0.00  0.00    +0.110 C 
ATOM     17  C   UNL     1      -5.225 -13.787  16.185  0.00  0.00    +0.226 C 
ENDROOT
BRANCH  12   8
ATOM      4  O   UNL     1      -8.716 -10.010  18.144  0.00  0.00    -0.252 OA
ATOM      8  N   UNL     1      -7.253 -11.490  19.149  0.00  0.00    -0.294 N 
ATOM     10  N   UNL     1      -9.477 -11.586  19.707  0.00  0.00    -0.269 N 
ATOM     20  C   UNL     1      -8.518 -10.936  18.925  0.00  0.00    +0.304 C 
ATOM     37  H   UNL     1      -7.182 -12.298  19.760  0.00  0.00    +0.151 HD
ATOM     39  H   UNL     1      -9.144 -12.338  20.306  0.00  0.00    +0.156 HD
BRANCH  10  24
ATOM     24  C   UNL     1     -10.866 -11.326  19.771  0.00  0.00    +0.038 A 
ATOM     28  C   UNL     1     -11.778 -12.314  19.400  0.00  0.00    +0.069 A 
ATOM     29  C   UNL     1     -11.324 -10.082  20.203  0.00  0.00    +0.023 A 
ATOM     33  C   UNL     1     -13.148 -12.058  19.463  0.00  0.00    +0.122 A 
ATOM     34  C   UNL     1     -12.694  -9.826  20.266  0.00  0.00    +0.005 A 
ATOM     35  C   UNL     1     -13.605 -10.813  19.895  0.00  0.00    +0.046 A 
BRANCH  33   6
ATOM      6  O   UNL     1     -14.038 -13.022  19.101  0.00  0.00    -0.495 OA
ATOM     36  C   UNL     1     -15.239 -13.116  19.865  0.00  0.00    +0.277 C 
ENDBRANCH  33   6
ENDBRANCH  10  24
ENDBRANCH  12   8
BRANCH  13  16
ATOM      2  O   UNL     1      -5.624  -9.576  15.800  0.00  0.00    -0.274 OA
ATOM      9  N   UNL     1      -3.971 -11.215  15.801  0.00  0.00    -0.302 N 
ATOM     16  C   UNL     1      -5.190 -10.666  16.163  0.00  0.00    +0.236 C 
ATOM     38  H   UNL     1      -3.693 -12.105  16.205  0.00  0.00    +0.150 HD
BRANCH   9  18
ATOM     18  C   UNL     1      -3.032 -10.549  14.926  0.00  0.00    +0.163 C 
BRANCH  18  22
ATOM      5  O   UNL     1      -0.768  -9.757  15.309  0.00  0.00    -0.274 OA
ATOM     11  N   UNL     1      -1.710 -11.174  16.850  0.00  0.00    -0.328 N 
ATOM     22  C   UNL     1      -1.714 -10.448  15.678  0.00  0.00    +0.231 C 
ATOM     40  H   UNL     1      -0.897 -11.182  17.455  0.00  0.00    +0.145 HD
ATOM     41  H   UNL     1      -2.508 -11.722  17.155  0.00  0.00    +0.145 HD
ENDBRANCH  18  22
BRANCH  18  21
ATOM     21  C   UNL     1      -2.838 -11.302  13.606  0.00  0.00    +0.067 C 
BRANCH  21  23
ATOM     23  C   UNL     1      -3.251 -10.489  12.403  0.00  0.00    -0.045 A 
ATOM     25  C   UNL     1      -4.595 -10.169  12.206  0.00  0.00    +0.004 A 
ATOM     26  C   UNL     1      -2.290 -10.055  11.491  0.00  0.00    +0.004 A 
ATOM     30  C   UNL     1      -4.976  -9.416  11.094  0.00  0.00    +0.000 A 
ATOM     31  C   UNL     1      -2.672  -9.302  10.379  0.00  0.00    +0.000 A 
ATOM     32  C   UNL     1      -4.015  -8.983  10.182  0.00  0.00    +0.000 A 
ENDBRANCH  21  23
ENDBRANCH  18  21
ENDBRANCH   9  18
ENDBRANCH  13  16
BRANCH  17  19
ATOM     19  C   UNL     1      -4.529 -15.077  16.538  0.00  0.00    +0.164 C 
BRANCH  19   1
ATOM      1  S   UNL     1      -4.339 -16.029  15.025  0.00  0.00    -0.155 S 
ATOM     27  C   UNL     1      -2.662 -15.517  14.580  0.00  0.00    +0.085 C 
ENDBRANCH  19   1
ENDBRANCH  17  19
TORSDOF 10
ENDMDL
MODEL 2
REMARK VINA RESULT:      -6.6      2.806      3.548
REMARK  Name = 11882084
REMARK  12 active torsions:
REMARK  status: ('A' for Active; 'I' for Inactive)
REMARK    1  A    between atoms: S_1  and  C_19
REMARK    2  A    between atoms: S_1  and  C_27
REMARK    3  A    between atoms: O_6  and  C_33
REMARK    4  A    between atoms: O_6  and  C_36
REMARK    5  A    between atoms: N_8  and  C_12
REMARK    6  A    between atoms: N_9  and  C_18
REMARK    7  A    between atoms: N_10  and  C_24
REMARK    8  A    between atoms: C_13  and  C_16
REMARK    9  A    between atoms: C_17  and  C_19
REMARK   10  A    between atoms: C_18  and  C_21
REMARK   11  A    between atoms: C_18  and  C_22
REMARK   12  A    between atoms: C_21  and  C_23
REMARK                            x       y       z     vdW  Elec       q    Type
REMARK                         _______ _______ _______ _____ _____    ______ ____
ROOT
ATOM      3  O   UNL     1      -6.845 -13.305  15.226  0.00  0.00    -0.275 OA
ATOM      7  N   UNL     1      -6.356 -12.406  17.302  0.00  0.00    -0.287 N 
ATOM     12  C   UNL     1      -6.157 -10.187  18.114  0.00  0.00    +0.105 C 
ATOM     13  C   UNL     1      -6.143 -11.037  16.844  0.00  0.00    +0.182 C 
ATOM     14  C   UNL     1      -5.684 -11.158  19.198  0.00  0.00    +0.043 C 
ATOM     15  C   UNL     1      -6.249 -12.501  18.756  0.00  0.00    +0.110 C 
ATOM     17  C   UNL     1      -6.765 -13.421  16.451  0.00  0.00    +0.226 C 
ENDROOT
BRANCH  12   8
ATOM      4  O   UNL     1      -8.076  -9.254  16.202  0.00  0.00    -0.252 OA
ATOM      8  N   UNL     1      -7.486  -9.695  18.394  0.00  0.00    -0.294 N 
ATOM     10  N   UNL     1      -9.573  -8.842  17.963  0.00  0.00    -0.269 N 
ATOM     20  C   UNL     1      -8.365  -9.258  17.396  0.00  0.00    +0.304 C 
ATOM     37  H   UNL     1      -7.824  -9.730  19.351  0.00  0.00    +0.151 HD
ATOM     39  H   UNL     1      -9.649  -8.909  18.975  0.00  0.00    +0.156 HD
BRANCH  10  24
ATOM     24  C   UNL     1     -10.713  -8.333  17.298  0.00  0.00    +0.038 A 
ATOM     28  C   UNL     1     -10.616  -7.163  16.544  0.00  0.00    +0.069 A 
ATOM     29  C   UNL     1     -11.934  -8.999  17.398  0.00  0.00    +0.023 A 
ATOM     33  C   UNL     1     -11.741  -6.661  15.889  0.00  0.00    +0.122 A 
ATOM     34  C   UNL     1     -13.058  -8.496  16.743  0.00  0.00    +0.005 A 
ATOM     35  C   UNL     1     -12.962  -7.327  15.989  0.00  0.00    +0.046 A 
BRANCH  33   6
ATOM      6  O   UNL     1     -11.647  -5.520  15.153  0.00  0.00    -0.495 OA
ATOM     36  C   UNL     1     -12.536  -5.386  14.045  0.00  0.00    +0.277 C 
ENDBRANCH  33   6
ENDBRANCH  10  24
ENDBRANCH  12   8
BRANCH  13  16
ATOM      2  O   UNL     1      -3.782 -10.684  16.790  0.00  0.00    -0.274 OA
ATOM      9  N   UNL     1      -4.864 -11.374  14.847  0.00  0.00    -0.302 N 
ATOM     16  C   UNL     1      -4.798 -11.013  16.182  0.00  0.00    +0.236 C 
ATOM     38  H   UNL     1      -5.753 -11.677  14.463  0.00  0.00    +0.150 HD
BRANCH   9  18
ATOM     18  C   UNL     1      -3.708 -11.409  13.980  0.00  0.00    +0.163 C 
BRANCH  18  22
ATOM      5  O   UNL     1      -2.952 -13.643  14.563  0.00  0.00    -0.274 OA
ATOM     11  N   UNL     1      -1.582 -11.861  15.036  0.00  0.00    -0.328 N 
ATOM     22  C   UNL     1      -2.743 -12.432  14.560  0.00  0.00    +0.231 C 
ATOM     40  H   UNL     1      -0.847 -12.434  15.437  0.00  0.00    +0.145 HD
ATOM     41  H   UNL     1      -1.413 -10.861  15.006  0.00  0.00    +0.145 HD
ENDBRANCH  18  22
BRANCH  18  21
ATOM     21  C   UNL     1      -4.076 -11.778  12.539  0.00  0.00    +0.067 C 
BRANCH  21  23
ATOM     23  C   UNL     1      -4.243 -10.570  11.650  0.00  0.00    -0.045 A 
ATOM     25  C   UNL     1      -3.257 -10.250  10.715  0.00  0.00    +0.004 A 
ATOM     26  C   UNL     1      -5.383  -9.773  11.761  0.00  0.00    +0.004 A 
ATOM     30  C   UNL     1      -3.412  -9.134   9.893  0.00  0.00    +0.000 A 
ATOM     31  C   UNL     1      -5.537  -8.656  10.939  0.00  0.00    +0.000 A 
ATOM     32  C   UNL     1      -4.551  -8.337  10.005  0.00  0.00    +0.000 A 
ENDBRANCH  21  23
ENDBRANCH  18  21
ENDBRANCH   9  18
ENDBRANCH  13  16
BRANCH  17  19
ATOM     19  C   UNL     1      -7.112 -14.728  17.117  0.00  0.00    +0.164 C 
BRANCH  19   1
ATOM      1  S   UNL     1      -6.256 -16.038  16.231  0.00  0.00    -0.155 S 
ATOM     27  C   UNL     1      -4.581 -15.750  16.854  0.00  0.00    +0.085 C 
ENDBRANCH  19   1
ENDBRANCH  17  19
TORSDOF 10
ENDMDL
MODEL 3
REMARK VINA RESULT:      -6.6     25.840     32.042
REMARK  Name = 11882084
REMARK  12 active torsions:
REMARK  status: ('A' for Active; 'I' for Inactive)
REMARK    1  A    between atoms: S_1  and  C_19
REMARK    2  A    between atoms: S_1  and  C_27
REMARK    3  A    between atoms: O_6  and  C_33
REMARK    4  A    between atoms: O_6  and  C_36
REMARK    5  A    between atoms: N_8  and  C_12
REMARK    6  A    between atoms: N_9  and  C_18
REMARK    7  A    between atoms: N_10  and  C_24
REMARK    8  A    between atoms: C_13  and  C_16
REMARK    9  A    between atoms: C_17  and  C_19
REMARK   10  A    between atoms: C_18  and  C_21
REMARK   11  A    between atoms: C_18  and  C_22
REMARK   12  A    between atoms: C_21  and  C_23
REMARK                            x       y       z     vdW  Elec       q    Type
REMARK                         _______ _______ _______ _____ _____    ______ ____
ROOT
ATOM      3  O   UNL     1      13.400   3.796   2.027  0.00  0.00    -0.275 OA
ATOM      7  N   UNL     1      14.357   5.832   1.483  0.00  0.00    -0.287 N 
ATOM     12  C   UNL     1      15.176   7.647   2.771  0.00  0.00    +0.105 C 
ATOM     13  C   UNL     1      14.267   6.419   2.816  0.00  0.00    +0.182 C 
ATOM     14  C   UNL     1      15.152   8.054   1.295  0.00  0.00    +0.043 C 
ATOM     15  C   UNL     1      15.040   6.728   0.554  0.00  0.00    +0.110 C 
ATOM     17  C   UNL     1      13.976   4.525   1.218  0.00  0.00    +0.226 C 
ENDROOT
BRANCH  12   8
ATOM      4  O   UNL     1      16.975   9.343   4.216  0.00  0.00    -0.252 OA
ATOM      8  N   UNL     1      16.514   7.317   3.203  0.00  0.00    -0.294 N 
ATOM     10  N   UNL     1      18.564   7.616   4.191  0.00  0.00    -0.269 N 
ATOM     20  C   UNL     1      17.330   8.208   3.909  0.00  0.00    +0.304 C 
ATOM     37  H   UNL     1      16.855   6.374   3.045  0.00  0.00    +0.151 HD
ATOM     39  H   UNL     1      18.699   6.663   3.862  0.00  0.00    +0.156 HD
BRANCH  10  24
ATOM     24  C   UNL     1      19.660   8.181   4.882  0.00  0.00    +0.038 A 
ATOM     28  C   UNL     1      20.758   8.667   4.170  0.00  0.00    +0.069 A 
ATOM     29  C   UNL     1      19.647   8.252   6.275  0.00  0.00    +0.023 A 
ATOM     33  C   UNL     1      21.839   9.225   4.852  0.00  0.00    +0.122 A 
ATOM     34  C   UNL     1      20.729   8.809   6.956  0.00  0.00    +0.005 A 
ATOM     35  C   UNL     1      21.825   9.295   6.245  0.00  0.00    +0.046 A 
BRANCH  33   6
ATOM      6  O   UNL     1      22.910   9.699   4.158  0.00  0.00    -0.495 OA
ATOM     36  C   UNL     1      23.777   8.735   3.563  0.00  0.00    +0.277 C 
ENDBRANCH  33   6
ENDBRANCH  10  24
ENDBRANCH  12   8
BRANCH  13  16
ATOM      2  O   UNL     1      12.381   7.866   2.592  0.00  0.00    -0.274 OA
ATOM      9  N   UNL     1      12.127   5.853   3.733  0.00  0.00    -0.302 N 
ATOM     16  C   UNL     1      12.832   6.805   3.016  0.00  0.00    +0.236 C 
ATOM     38  H   UNL     1      12.592   4.987   3.989  0.00  0.00    +0.150 HD
BRANCH   9  18
ATOM     18  C   UNL     1      10.731   5.997   4.079  0.00  0.00    +0.163 C 
BRANCH  18  22
ATOM      5  O   UNL     1       9.969   5.352   1.864  0.00  0.00    -0.274 OA
ATOM     11  N   UNL     1       9.215   7.332   2.752  0.00  0.00    -0.328 N 
ATOM     22  C   UNL     1       9.963   6.174   2.778  0.00  0.00    +0.231 C 
ATOM     40  H   UNL     1       8.644   7.565   1.947  0.00  0.00    +0.145 HD
ATOM     41  H   UNL     1       9.202   7.990   3.525  0.00  0.00    +0.145 HD
ENDBRANCH  18  22
BRANCH  18  21
ATOM     21  C   UNL     1      10.199   4.786   4.853  0.00  0.00    +0.067 C 
BRANCH  21  23
ATOM     23  C   UNL     1       9.860   5.113   6.288  0.00  0.00    -0.045 A 
ATOM     25  C   UNL     1       9.475   6.409   6.635  0.00  0.00    +0.004 A 
ATOM     26  C   UNL     1       9.930   4.120   7.265  0.00  0.00    +0.004 A 
ATOM     30  C   UNL     1       9.162   6.710   7.961  0.00  0.00    +0.000 A 
ATOM     31  C   UNL     1       9.616   4.423   8.591  0.00  0.00    +0.000 A 
ATOM     32  C   UNL     1       9.232   5.718   8.938  0.00  0.00    +0.000 A 
ENDBRANCH  21  23
ENDBRANCH  18  21
ENDBRANCH   9  18
ENDBRANCH  13  16
BRANCH  17  19
ATOM     19  C   UNL     1      14.301   4.021  -0.165  0.00  0.00    +0.164 C 
BRANCH  19   1
ATOM      1  S   UNL     1      12.786   3.372  -0.882  0.00  0.00    -0.155 S 
ATOM     27  C   UNL     1      11.866   4.921  -1.047  0.00  0.00    +0.085 C 
ENDBRANCH  19   1
ENDBRANCH  17  19
TORSDOF 10
ENDMDL
MODEL 4
REMARK VINA RESULT:      -6.5     25.249     30.328
REMARK  Name = 11882084
REMARK  12 active torsions:
REMARK  status: ('A' for Active; 'I' for Inactive)
REMARK    1  A    between atoms: S_1  and  C_19
REMARK    2  A    between atoms: S_1  and  C_27
REMARK    3  A    between atoms: O_6  and  C_33
REMARK    4  A    between atoms: O_6  and  C_36
REMARK    5  A    between atoms: N_8  and  C_12
REMARK    6  A    between atoms: N_9  and  C_18
REMARK    7  A    between atoms: N_10  and  C_24
REMARK    8  A    between atoms: C_13  and  C_16
REMARK    9  A    between atoms: C_17  and  C_19
REMARK   10  A    between atoms: C_18  and  C_21
REMARK   11  A    between atoms: C_18  and  C_22
REMARK   12  A    between atoms: C_21  and  C_23
REMARK                            x       y       z     vdW  Elec       q    Type
REMARK                         _______ _______ _______ _____ _____    ______ ____
ROOT
ATOM      3  O   UNL     1      11.445   3.737   2.839  0.00  0.00    -0.275 OA
ATOM      7  N   UNL     1      11.315   6.043   2.990  0.00  0.00    -0.287 N 
ATOM     12  C   UNL     1      12.023   7.615   4.618  0.00  0.00    +0.105 C 
ATOM     13  C   UNL     1      11.695   6.139   4.396  0.00  0.00    +0.182 C 
ATOM     14  C   UNL     1      11.164   8.332   3.573  0.00  0.00    +0.043 C 
ATOM     15  C   UNL     1      11.140   7.367   2.396  0.00  0.00    +0.110 C 
ATOM     17  C   UNL     1      11.294   4.838   2.305  0.00  0.00    +0.226 C 
ENDROOT
BRANCH  12   8
ATOM      4  O   UNL     1      13.796   9.005   6.387  0.00  0.00    -0.252 OA
ATOM      8  N   UNL     1      13.429   7.871   4.406  0.00  0.00    -0.294 N 
ATOM     10  N   UNL     1      15.539   8.655   4.855  0.00  0.00    -0.269 N 
ATOM     20  C   UNL     1      14.227   8.560   5.326  0.00  0.00    +0.304 C 
ATOM     37  H   UNL     1      13.875   7.476   3.584  0.00  0.00    +0.151 HD
ATOM     39  H   UNL     1      15.731   8.231   3.950  0.00  0.00    +0.156 HD
BRANCH  10  24
ATOM     24  C   UNL     1      16.645   9.272   5.483  0.00  0.00    +0.038 A 
ATOM     28  C   UNL     1      17.710   8.496   5.940  0.00  0.00    +0.069 A 
ATOM     29  C   UNL     1      16.670  10.657   5.650  0.00  0.00    +0.023 A 
ATOM     33  C   UNL     1      18.801   9.105   6.561  0.00  0.00    +0.122 A 
ATOM     34  C   UNL     1      17.761  11.265   6.270  0.00  0.00    +0.005 A 
ATOM     35  C   UNL     1      18.825  10.490   6.727  0.00  0.00    +0.046 A 
BRANCH  33   6
ATOM      6  O   UNL     1      19.841   8.348   7.007  0.00  0.00    -0.495 OA
ATOM     36  C   UNL     1      20.945   8.174   6.120  0.00  0.00    +0.277 C 
ENDBRANCH  33   6
ENDBRANCH  10  24
ENDBRANCH  12   8
BRANCH  13  16
ATOM      2  O   UNL     1       9.577   5.075   4.689  0.00  0.00    -0.274 OA
ATOM      9  N   UNL     1      10.557   6.155   6.504  0.00  0.00    -0.302 N 
ATOM     16  C   UNL     1      10.496   5.718   5.191  0.00  0.00    +0.236 C 
ATOM     38  H   UNL     1      11.392   6.636   6.824  0.00  0.00    +0.150 HD
BRANCH   9  18
ATOM     18  C   UNL     1       9.514   5.899   7.472  0.00  0.00    +0.163 C 
BRANCH  18  22
ATOM      5  O   UNL     1      10.411   5.303   9.650  0.00  0.00    -0.274 OA
ATOM     11  N   UNL     1      10.176   3.653   8.070  0.00  0.00    -0.328 N 
ATOM     22  C   UNL     1      10.094   4.956   8.515  0.00  0.00    +0.231 C 
ATOM     40  H   UNL     1      10.532   2.919   8.672  0.00  0.00    +0.145 HD
ATOM     41  H   UNL     1       9.888   3.376   7.137  0.00  0.00    +0.145 HD
ENDBRANCH  18  22
BRANCH  18  21
ATOM     21  C   UNL     1       9.012   7.186   8.135  0.00  0.00    +0.067 C 
BRANCH  21  23
ATOM     23  C   UNL     1       8.849   8.323   7.156  0.00  0.00    -0.045 A 
ATOM     25  C   UNL     1       8.007   8.177   6.053  0.00  0.00    +0.004 A 
ATOM     26  C   UNL     1       9.537   9.520   7.355  0.00  0.00    +0.004 A 
ATOM     30  C   UNL     1       7.856   9.228   5.148  0.00  0.00    +0.000 A 
ATOM     31  C   UNL     1       9.385  10.571   6.449  0.00  0.00    +0.000 A 
ATOM     32  C   UNL     1       8.544  10.424   5.346  0.00  0.00    +0.000 A 
ENDBRANCH  21  23
ENDBRANCH  18  21
ENDBRANCH   9  18
ENDBRANCH  13  16
BRANCH  17  19
ATOM     19  C   UNL     1      11.055   4.938   0.820  0.00  0.00    +0.164 C 
BRANCH  19   1
ATOM      1  S   UNL     1      12.307   3.946  -0.005  0.00  0.00    -0.155 S 
ATOM     27  C   UNL     1      12.539   4.961  -1.485  0.00  0.00    +0.085 C 
ENDBRANCH  19   1
ENDBRANCH  17  19
TORSDOF 10
ENDMDL
MODEL 5
REMARK VINA RESULT:      -6.5     28.448     32.467
REMARK  Name = 11882084
REMARK  12 active torsions:
REMARK  status: ('A' for Active; 'I' for Inactive)
REMARK    1  A    between atoms: S_1  and  C_19
REMARK    2  A    between atoms: S_1  and  C_27
REMARK    3  A    between atoms: O_6  and  C_33
REMARK    4  A    between atoms: O_6  and  C_36
REMARK    5  A    between atoms: N_8  and  C_12
REMARK    6  A    between atoms: N_9  and  C_18
REMARK    7  A    between atoms: N_10  and  C_24
REMARK    8  A    between atoms: C_13  and  C_16
REMARK    9  A    between atoms: C_17  and  C_19
REMARK   10  A    between atoms: C_18  and  C_21
REMARK   11  A    between atoms: C_18  and  C_22
REMARK   12  A    between atoms: C_21  and  C_23
REMARK                            x       y       z     vdW  Elec       q    Type
REMARK                         _______ _______ _______ _____ _____    ______ ____
ROOT
ATOM      3  O   UNL     1      20.907   7.449  25.202  0.00  0.00    -0.275 OA
ATOM      7  N   UNL     1      20.206   8.758  23.427  0.00  0.00    -0.287 N 
ATOM     12  C   UNL     1      18.763   8.373  21.584  0.00  0.00    +0.105 C 
ATOM     13  C   UNL     1      19.612   7.677  22.647  0.00  0.00    +0.182 C 
ATOM     14  C   UNL     1      19.465   9.721  21.395  0.00  0.00    +0.043 C 
ATOM     15  C   UNL     1      19.997  10.053  22.782  0.00  0.00    +0.110 C 
ATOM     17  C   UNL     1      20.745   8.557  24.688  0.00  0.00    +0.226 C 
ENDROOT
BRANCH  12   8
ATOM      4  O   UNL     1      16.380   8.050  20.028  0.00  0.00    -0.252 OA
ATOM      8  N   UNL     1      17.404   8.549  22.040  0.00  0.00    -0.294 N 
ATOM     10  N   UNL     1      15.112   8.606  21.923  0.00  0.00    -0.269 N 
ATOM     20  C   UNL     1      16.291   8.370  21.211  0.00  0.00    +0.304 C 
ATOM     37  H   UNL     1      17.244   8.747  23.023  0.00  0.00    +0.151 HD
ATOM     39  H   UNL     1      15.215   8.865  22.902  0.00  0.00    +0.156 HD
BRANCH  10  24
ATOM     24  C   UNL     1      13.782   8.532  21.450  0.00  0.00    +0.038 A 
ATOM     28  C   UNL     1      13.188   7.287  21.233  0.00  0.00    +0.069 A 
ATOM     29  C   UNL     1      13.064   9.700  21.196  0.00  0.00    +0.023 A 
ATOM     33  C   UNL     1      11.876   7.214  20.765  0.00  0.00    +0.122 A 
ATOM     34  C   UNL     1      11.753   9.625  20.728  0.00  0.00    +0.005 A 
ATOM     35  C   UNL     1      11.159   8.382  20.512  0.00  0.00    +0.046 A 
BRANCH  33   6
ATOM      6  O   UNL     1      11.296   6.000  20.554  0.00  0.00    -0.495 OA
ATOM     36  C   UNL     1      10.923   5.249  21.708  0.00  0.00    +0.277 C 
ENDBRANCH  33   6
ENDBRANCH  10  24
ENDBRANCH  12   8
BRANCH  13  16
ATOM      2  O   UNL     1      21.180   7.192  20.912  0.00  0.00    -0.274 OA
ATOM      9  N   UNL     1      21.212   5.906  22.853  0.00  0.00    -0.302 N 
ATOM     16  C   UNL     1      20.751   6.920  22.031  0.00  0.00    +0.236 C 
ATOM     38  H   UNL     1      20.815   5.806  23.782  0.00  0.00    +0.150 HD
BRANCH   9  18
ATOM     18  C   UNL     1      22.289   5.016  22.482  0.00  0.00    +0.163 C 
BRANCH  18  22
ATOM      5  O   UNL     1      24.541   5.880  22.187  0.00  0.00    -0.274 OA
ATOM     11  N   UNL     1      23.559   6.056  24.256  0.00  0.00    -0.328 N 
ATOM     22  C   UNL     1      23.587   5.671  22.932  0.00  0.00    +0.231 C 
ATOM     40  H   UNL     1      24.356   6.518  24.680  0.00  0.00    +0.145 HD
ATOM     41  H   UNL     1      22.754   5.898  24.853  0.00  0.00    +0.145 HD
ENDBRANCH  18  22
BRANCH  18  21
ATOM     21  C   UNL     1      22.141   3.630  23.119  0.00  0.00    +0.067 C 
BRANCH  21  23
ATOM     23  C   UNL     1      23.154   2.638  22.602  0.00  0.00    -0.045 A 
ATOM     25  C   UNL     1      23.820   1.794  23.492  0.00  0.00    +0.004 A 
ATOM     26  C   UNL     1      23.423   2.562  21.236  0.00  0.00    +0.004 A 
ATOM     30  C   UNL     1      24.756   0.877  23.014  0.00  0.00    +0.000 A 
ATOM     31  C   UNL     1      24.360   1.644  20.759  0.00  0.00    +0.000 A 
ATOM     32  C   UNL     1      25.026   0.801  21.649  0.00  0.00    +0.000 A 
ENDBRANCH  21  23
ENDBRANCH  18  21
ENDBRANCH   9  18
ENDBRANCH  13  16
BRANCH  17  19
ATOM     19  C   UNL     1      21.151   9.807  25.428  0.00  0.00    +0.164 C 
BRANCH  19   1
ATOM      1  S   UNL     1      20.192   9.881  26.947  0.00  0.00    -0.155 S 
ATOM     27  C   UNL     1      19.630  11.598  26.840  0.00  0.00    +0.085 C 
ENDBRANCH  19   1
ENDBRANCH  17  19
TORSDOF 10
ENDMDL
MODEL 6
REMARK VINA RESULT:      -6.4     28.625     32.731
REMARK  Name = 11882084
REMARK  12 active torsions:
REMARK  status: ('A' for Active; 'I' for Inactive)
REMARK    1  A    between atoms: S_1  and  C_19
REMARK    2  A    between atoms: S_1  and  C_27
REMARK    3  A    between atoms: O_6  and  C_33
REMARK    4  A    between atoms: O_6  and  C_36
REMARK    5  A    between atoms: N_8  and  C_12
REMARK    6  A    between atoms: N_9  and  C_18
REMARK    7  A    between atoms: N_10  and  C_24
REMARK    8  A    between atoms: C_13  and  C_16
REMARK    9  A    between atoms: C_17  and  C_19
REMARK   10  A    between atoms: C_18  and  C_21
REMARK   11  A    between atoms: C_18  and  C_22
REMARK   12  A    between atoms: C_21  and  C_23
REMARK                            x       y       z     vdW  Elec       q    Type
REMARK                         _______ _______ _______ _____ _____    ______ ____
ROOT
ATOM      3  O   UNL     1      20.776   4.648  20.660  0.00  0.00    -0.275 OA
ATOM      7  N   UNL     1      21.351   6.498  21.927  0.00  0.00    -0.287 N 
ATOM     12  C   UNL     1      20.320   7.612  23.750  0.00  0.00    +0.105 C 
ATOM     13  C   UNL     1      20.059   6.654  22.588  0.00  0.00    +0.182 C 
ATOM     14  C   UNL     1      21.509   8.446  23.263  0.00  0.00    +0.043 C 
ATOM     15  C   UNL     1      22.323   7.467  22.427  0.00  0.00    +0.110 C 
ATOM     17  C   UNL     1      21.622   5.448  21.063  0.00  0.00    +0.226 C 
ENDROOT
BRANCH  12   8
ATOM      4  O   UNL     1      19.992   8.532  26.442  0.00  0.00    -0.252 OA
ATOM      8  N   UNL     1      20.647   6.887  24.956  0.00  0.00    -0.294 N 
ATOM     10  N   UNL     1      20.857   6.488  27.206  0.00  0.00    -0.269 N 
ATOM     20  C   UNL     1      20.454   7.412  26.238  0.00  0.00    +0.304 C 
ATOM     37  H   UNL     1      20.970   5.928  24.871  0.00  0.00    +0.151 HD
ATOM     39  H   UNL     1      21.221   5.600  26.866  0.00  0.00    +0.156 HD
BRANCH  10  24
ATOM     24  C   UNL     1      20.825   6.634  28.612  0.00  0.00    +0.038 A 
ATOM     28  C   UNL     1      19.832   5.996  29.356  0.00  0.00    +0.069 A 
ATOM     29  C   UNL     1      21.783   7.417  29.255  0.00  0.00    +0.023 A 
ATOM     33  C   UNL     1      19.800   6.140  30.744  0.00  0.00    +0.122 A 
ATOM     34  C   UNL     1      21.750   7.561  30.642  0.00  0.00    +0.005 A 
ATOM     35  C   UNL     1      20.758   6.923  31.386  0.00  0.00    +0.046 A 
BRANCH  33   6
ATOM      6  O   UNL     1      18.831   5.517  31.470  0.00  0.00    -0.495 OA
ATOM     36  C   UNL     1      17.508   5.534  30.937  0.00  0.00    +0.277 C 
ENDBRANCH  33   6
ENDBRANCH  10  24
ENDBRANCH  12   8
BRANCH  13  16
ATOM      2  O   UNL     1      19.218   8.439  21.242  0.00  0.00    -0.274 OA
ATOM      9  N   UNL     1      18.197   6.350  21.111  0.00  0.00    -0.302 N 
ATOM     16  C   UNL     1      19.133   7.259  21.576  0.00  0.00    +0.236 C 
ATOM     38  H   UNL     1      18.254   5.384  21.420  0.00  0.00    +0.150 HD
BRANCH   9  18
ATOM     18  C   UNL     1      17.176   6.690  20.145  0.00  0.00    +0.163 C 
BRANCH  18  22
ATOM      5  O   UNL     1      16.534   5.647  18.047  0.00  0.00    -0.274 OA
ATOM     11  N   UNL     1      18.533   5.046  19.005  0.00  0.00    -0.328 N 
ATOM     22  C   UNL     1      17.345   5.745  18.965  0.00  0.00    +0.231 C 
ATOM     40  H   UNL     1      18.777   4.392  18.271  0.00  0.00    +0.145 HD
ATOM     41  H   UNL     1      19.204   5.155  19.759  0.00  0.00    +0.145 HD
ENDBRANCH  18  22
BRANCH  18  21
ATOM     21  C   UNL     1      15.765   6.570  20.729  0.00  0.00    +0.067 C 
BRANCH  21  23
ATOM     23  C   UNL     1      14.766   7.461  20.032  0.00  0.00    -0.045 A 
ATOM     25  C   UNL     1      13.472   7.000  19.787  0.00  0.00    +0.004 A 
ATOM     26  C   UNL     1      15.135   8.745  19.633  0.00  0.00    +0.004 A 
ATOM     30  C   UNL     1      12.549   7.824  19.143  0.00  0.00    +0.000 A 
ATOM     31  C   UNL     1      14.211   9.569  18.989  0.00  0.00    +0.000 A 
ATOM     32  C   UNL     1      12.918   9.107  18.744  0.00  0.00    +0.000 A 
ENDBRANCH  21  23
ENDBRANCH  18  21
ENDBRANCH   9  18
ENDBRANCH  13  16
BRANCH  17  19
ATOM     19  C   UNL     1      23.055   5.334  20.609  0.00  0.00    +0.164 C 
BRANCH  19   1
ATOM      1  S   UNL     1      23.755   3.863  21.369  0.00  0.00    -0.155 S 
ATOM     27  C   UNL     1      24.665   3.217  19.945  0.00  0.00    +0.085 C 
ENDBRANCH  19   1
ENDBRANCH  17  19
TORSDOF 10
ENDMDL
MODEL 7
REMARK VINA RESULT:      -6.4     28.241     32.457
REMARK  Name = 11882084
REMARK  12 active torsions:
REMARK  status: ('A' for Active; 'I' for Inactive)
REMARK    1  A    between atoms: S_1  and  C_19
REMARK    2  A    between atoms: S_1  and  C_27
REMARK    3  A    between atoms: O_6  and  C_33
REMARK    4  A    between atoms: O_6  and  C_36
REMARK    5  A    between atoms: N_8  and  C_12
REMARK    6  A    between atoms: N_9  and  C_18
REMARK    7  A    between atoms: N_10  and  C_24
REMARK    8  A    between atoms: C_13  and  C_16
REMARK    9  A    between atoms: C_17  and  C_19
REMARK   10  A    between atoms: C_18  and  C_21
REMARK   11  A    between atoms: C_18  and  C_22
REMARK   12  A    between atoms: C_21  and  C_23
REMARK                            x       y       z     vdW  Elec       q    Type
REMARK                         _______ _______ _______ _____ _____    ______ ____
ROOT
ATOM      3  O   UNL     1      20.184   6.242  26.139  0.00  0.00    -0.275 OA
ATOM      7  N   UNL     1      20.267   7.860  24.486  0.00  0.00    -0.287 N 
ATOM     12  C   UNL     1      19.660   7.884  22.193  0.00  0.00    +0.105 C 
ATOM     13  C   UNL     1      20.006   6.964  23.363  0.00  0.00    +0.182 C 
ATOM     14  C   UNL     1      20.408   9.178  22.525  0.00  0.00    +0.043 C 
ATOM     15  C   UNL     1      20.357   9.250  24.045  0.00  0.00    +0.110 C 
ATOM     17  C   UNL     1      20.261   7.425  25.802  0.00  0.00    +0.226 C 
ENDROOT
BRANCH  12   8
ATOM      4  O   UNL     1      17.915   7.063  20.076  0.00  0.00    -0.252 OA
ATOM      8  N   UNL     1      18.235   8.107  22.113  0.00  0.00    -0.294 N 
ATOM     10  N   UNL     1      16.116   8.026  21.236  0.00  0.00    -0.269 N 
ATOM     20  C   UNL     1      17.453   7.670  21.038  0.00  0.00    +0.304 C 
ATOM     37  H   UNL     1      17.768   8.543  22.903  0.00  0.00    +0.151 HD
ATOM     39  H   UNL     1      15.900   8.531  22.092  0.00  0.00    +0.156 HD
BRANCH  10  24
ATOM     24  C   UNL     1      15.016   7.771  20.385  0.00  0.00    +0.038 A 
ATOM     28  C   UNL     1      13.867   7.165  20.895  0.00  0.00    +0.069 A 
ATOM     29  C   UNL     1      15.078   8.122  19.037  0.00  0.00    +0.023 A 
ATOM     33  C   UNL     1      12.781   6.913  20.056  0.00  0.00    +0.122 A 
ATOM     34  C   UNL     1      13.993   7.869  18.199  0.00  0.00    +0.005 A 
ATOM     35  C   UNL     1      12.845   7.264  18.708  0.00  0.00    +0.046 A 
BRANCH  33   6
ATOM      6  O   UNL     1      11.660   6.321  20.553  0.00  0.00    -0.495 OA
ATOM     36  C   UNL     1      11.077   6.908  21.715  0.00  0.00    +0.277 C 
ENDBRANCH  33   6
ENDBRANCH  10  24
ENDBRANCH  12   8
BRANCH  13  16
ATOM      2  O   UNL     1      22.368   6.637  23.490  0.00  0.00    -0.274 OA
ATOM      9  N   UNL     1      21.066   5.039  22.408  0.00  0.00    -0.302 N 
ATOM     16  C   UNL     1      21.279   6.212  23.113  0.00  0.00    +0.236 C 
ATOM     38  H   UNL     1      20.114   4.761  22.192  0.00  0.00    +0.150 HD
BRANCH   9  18
ATOM     18  C   UNL     1      22.134   4.145  22.020  0.00  0.00    +0.163 C 
BRANCH  18  22
ATOM      5  O   UNL     1      23.894   4.695  20.439  0.00  0.00    -0.274 OA
ATOM     11  N   UNL     1      21.711   5.041  19.816  0.00  0.00    -0.328 N 
ATOM     22  C   UNL     1      22.695   4.662  20.704  0.00  0.00    +0.231 C 
ATOM     40  H   UNL     1      21.948   5.392  18.895  0.00  0.00    +0.145 HD
ATOM     41  H   UNL     1      20.722   4.987  20.041  0.00  0.00    +0.145 HD
ENDBRANCH  18  22
BRANCH  18  21
ATOM     21  C   UNL     1      23.238   4.069  23.080  0.00  0.00    +0.067 C 
BRANCH  21  23
ATOM     23  C   UNL     1      23.390   2.687  23.667  0.00  0.00    -0.045 A 
ATOM     25  C   UNL     1      24.418   1.851  23.227  0.00  0.00    +0.004 A 
ATOM     26  C   UNL     1      22.506   2.245  24.652  0.00  0.00    +0.004 A 
ATOM     30  C   UNL     1      24.558   0.574  23.770  0.00  0.00    +0.000 A 
ATOM     31  C   UNL     1      22.647   0.968  25.195  0.00  0.00    +0.000 A 
ATOM     32  C   UNL     1      23.674   0.133  24.753  0.00  0.00    +0.000 A 
ENDBRANCH  21  23
ENDBRANCH  18  21
ENDBRANCH   9  18
ENDBRANCH  13  16
BRANCH  17  19
ATOM     19  C   UNL     1      20.369   8.508  26.845  0.00  0.00    +0.164 C 
BRANCH  19   1
ATOM      1  S   UNL     1      20.677   7.715  28.429  0.00  0.00    -0.155 S 
ATOM     27  C   UNL     1      19.461   8.606  29.430  0.00  0.00    +0.085 C 
ENDBRANCH  19   1
ENDBRANCH  17  19
TORSDOF 10
ENDMDL
MODEL 8
REMARK VINA RESULT:      -6.3      5.382      7.106
REMARK  Name = 11882084
REMARK  12 active torsions:
REMARK  status: ('A' for Active; 'I' for Inactive)
REMARK    1  A    between atoms: S_1  and  C_19
REMARK    2  A    between atoms: S_1  and  C_27
REMARK    3  A    between atoms: O_6  and  C_33
REMARK    4  A    between atoms: O_6  and  C_36
REMARK    5  A    between atoms: N_8  and  C_12
REMARK    6  A    between atoms: N_9  and  C_18
REMARK    7  A    between atoms: N_10  and  C_24
REMARK    8  A    between atoms: C_13  and  C_16
REMARK    9  A    between atoms: C_17  and  C_19
REMARK   10  A    between atoms: C_18  and  C_21
REMARK   11  A    between atoms: C_18  and  C_22
REMARK   12  A    between atoms: C_21  and  C_23
REMARK                            x       y       z     vdW  Elec       q    Type
REMARK                         _______ _______ _______ _____ _____    ______ ____
ROOT
ATOM      3  O   UNL     1      -9.573 -12.656  16.432  0.00  0.00    -0.275 OA
ATOM      7  N   UNL     1     -10.228 -10.548  17.133  0.00  0.00    -0.287 N 
ATOM     12  C   UNL     1      -9.789  -8.356  16.342  0.00  0.00    +0.105 C 
ATOM     13  C   UNL     1      -9.287  -9.799  16.305  0.00  0.00    +0.182 C 
ATOM     14  C   UNL     1     -10.514  -8.265  17.688  0.00  0.00    +0.043 C 
ATOM     15  C   UNL     1     -11.112  -9.653  17.874  0.00  0.00    +0.110 C 
ATOM     17  C   UNL     1     -10.339 -11.929  17.068  0.00  0.00    +0.226 C 
ENDROOT
BRANCH  12   8
ATOM      4  O   UNL     1     -10.945  -5.830  15.644  0.00  0.00    -0.252 OA
ATOM      8  N   UNL     1     -10.689  -8.092  15.243  0.00  0.00    -0.294 N 
ATOM     10  N   UNL     1     -12.046  -6.871  13.852  0.00  0.00    -0.269 N 
ATOM     20  C   UNL     1     -11.210  -6.822  14.970  0.00  0.00    +0.304 C 
ATOM     37  H   UNL     1     -10.902  -8.848  14.599  0.00  0.00    +0.151 HD
ATOM     39  H   UNL     1     -12.160  -7.779  13.407  0.00  0.00    +0.156 HD
BRANCH  10  24
ATOM     24  C   UNL     1     -12.762  -5.807  13.256  0.00  0.00    +0.038 A 
ATOM     28  C   UNL     1     -12.266  -5.191  12.106  0.00  0.00    +0.069 A 
ATOM     29  C   UNL     1     -13.961  -5.371  13.819  0.00  0.00    +0.023 A 
ATOM     33  C   UNL     1     -12.972  -4.141  11.519  0.00  0.00    +0.122 A 
ATOM     34  C   UNL     1     -14.666  -4.320  13.231  0.00  0.00    +0.005 A 
ATOM     35  C   UNL     1     -14.171  -3.705  12.082  0.00  0.00    +0.046 A 
BRANCH  33   6
ATOM      6  O   UNL     1     -12.489  -3.540  10.396  0.00  0.00    -0.495 OA
ATOM     36  C   UNL     1     -13.284  -3.636   9.216  0.00  0.00    +0.277 C 
ENDBRANCH  33   6
ENDBRANCH  10  24
ENDBRANCH  12   8
BRANCH  13  16
ATOM      2  O   UNL     1      -7.563  -9.140  17.820  0.00  0.00    -0.274 OA
ATOM      9  N   UNL     1      -7.221 -11.001  16.463  0.00  0.00    -0.302 N 
ATOM     16  C   UNL     1      -7.945  -9.930  16.960  0.00  0.00    +0.236 C 
ATOM     38  H   UNL     1      -7.659 -11.620  15.787  0.00  0.00    +0.150 HD
BRANCH   9  18
ATOM     18  C   UNL     1      -5.887 -11.331  16.913  0.00  0.00    +0.163 C 
BRANCH  18  22
ATOM      5  O   UNL     1      -5.530 -11.861  19.257  0.00  0.00    -0.274 OA
ATOM     11  N   UNL     1      -6.840 -13.268  18.000  0.00  0.00    -0.328 N 
ATOM     22  C   UNL     1      -6.034 -12.163  18.178  0.00  0.00    +0.231 C 
ATOM     40  H   UNL     1      -7.032 -13.901  18.768  0.00  0.00    +0.145 HD
ATOM     41  H   UNL     1      -7.269 -13.492  17.108  0.00  0.00    +0.145 HD
ENDBRANCH  18  22
BRANCH  18  21
ATOM     21  C   UNL     1      -5.094 -12.104  15.853  0.00  0.00    +0.067 C 
BRANCH  21  23
ATOM     23  C   UNL     1      -3.817 -11.405  15.455  0.00  0.00    -0.045 A 
ATOM     25  C   UNL     1      -2.890 -11.037  16.432  0.00  0.00    +0.004 A 
ATOM     26  C   UNL     1      -3.561 -11.130  14.112  0.00  0.00    +0.004 A 
ATOM     30  C   UNL     1      -1.709 -10.392  16.063  0.00  0.00    +0.000 A 
ATOM     31  C   UNL     1      -2.379 -10.485  13.745  0.00  0.00    +0.000 A 
ATOM     32  C   UNL     1      -1.454 -10.116  14.721  0.00  0.00    +0.000 A 
ENDBRANCH  21  23
ENDBRANCH  18  21
ENDBRANCH   9  18
ENDBRANCH  13  16
BRANCH  17  19
ATOM     19  C   UNL     1     -11.479 -12.526  17.854  0.00  0.00    +0.164 C 
BRANCH  19   1
ATOM      1  S   UNL     1     -10.783 -13.707  19.018  0.00  0.00    -0.155 S 
ATOM     27  C   UNL     1      -9.846 -12.560  20.056  0.00  0.00    +0.085 C 
ENDBRANCH  19   1
ENDBRANCH  17  19
TORSDOF 10
ENDMDL
MODEL 9
REMARK VINA RESULT:      -6.2      4.023      5.521
REMARK  Name = 11882084
REMARK  12 active torsions:
REMARK  status: ('A' for Active; 'I' for Inactive)
REMARK    1  A    between atoms: S_1  and  C_19
REMARK    2  A    between atoms: S_1  and  C_27
REMARK    3  A    between atoms: O_6  and  C_33
REMARK    4  A    between atoms: O_6  and  C_36
REMARK    5  A    between atoms: N_8  and  C_12
REMARK    6  A    between atoms: N_9  and  C_18
REMARK    7  A    between atoms: N_10  and  C_24
REMARK    8  A    between atoms: C_13  and  C_16
REMARK    9  A    between atoms: C_17  and  C_19
REMARK   10  A    between atoms: C_18  and  C_21
REMARK   11  A    between atoms: C_18  and  C_22
REMARK   12  A    between atoms: C_21  and  C_23
REMARK                            x       y       z     vdW  Elec       q    Type
REMARK                         _______ _______ _______ _____ _____    ______ ____
ROOT
ATOM      3  O   UNL     1      -7.552 -13.924  17.618  0.00  0.00    -0.275 OA
ATOM      7  N   UNL     1      -8.900 -12.525  18.877  0.00  0.00    -0.287 N 
ATOM     12  C   UNL     1      -9.478 -10.231  18.711  0.00  0.00    +0.105 C 
ATOM     13  C   UNL     1      -8.450 -11.274  18.274  0.00  0.00    +0.182 C 
ATOM     14  C   UNL     1     -10.003 -10.783  20.039  0.00  0.00    +0.043 C 
ATOM     15  C   UNL     1      -9.968 -12.293  19.846  0.00  0.00    +0.110 C 
ATOM     17  C   UNL     1      -8.458 -13.764  18.438  0.00  0.00    +0.226 C 
ENDROOT
BRANCH  12   8
ATOM      4  O   UNL     1     -10.521  -7.801  17.610  0.00  0.00    -0.252 OA
ATOM      8  N   UNL     1     -10.538 -10.110  17.737  0.00  0.00    -0.294 N 
ATOM     10  N   UNL     1     -12.018  -9.071  16.323  0.00  0.00    -0.269 N 
ATOM     20  C   UNL     1     -10.989  -8.878  17.249  0.00  0.00    +0.304 C 
ATOM     37  H   UNL     1     -10.930 -10.958  17.339  0.00  0.00    +0.151 HD
ATOM     39  H   UNL     1     -12.289 -10.033  16.136  0.00  0.00    +0.156 HD
BRANCH  10  24
ATOM     24  C   UNL     1     -12.736  -8.086  15.607  0.00  0.00    +0.038 A 
ATOM     28  C   UNL     1     -12.170  -7.493  14.478  0.00  0.00    +0.069 A 
ATOM     29  C   UNL     1     -14.010  -7.705  16.029  0.00  0.00    +0.023 A 
ATOM     33  C   UNL     1     -12.879  -6.521  13.771  0.00  0.00    +0.122 A 
ATOM     34  C   UNL     1     -14.717  -6.733  15.322  0.00  0.00    +0.005 A 
ATOM     35  C   UNL     1     -14.152  -6.141  14.194  0.00  0.00    +0.046 A 
BRANCH  33   6
ATOM      6  O   UNL     1     -12.326  -5.942  12.670  0.00  0.00    -0.495 OA
ATOM     36  C   UNL     1     -12.290  -4.516  12.635  0.00  0.00    +0.277 C 
ENDBRANCH  33   6
ENDBRANCH  10  24
ENDBRANCH  12   8
BRANCH  13  16
ATOM      2  O   UNL     1      -6.956 -10.551  19.992  0.00  0.00    -0.274 OA
ATOM      9  N   UNL     1      -6.076 -11.244  17.951  0.00  0.00    -0.302 N 
ATOM     16  C   UNL     1      -7.096 -10.986  18.851  0.00  0.00    +0.236 C 
ATOM     38  H   UNL     1      -6.307 -11.652  17.050  0.00  0.00    +0.150 HD
BRANCH   9  18
ATOM     18  C   UNL     1      -4.680 -11.027  18.254  0.00  0.00    +0.163 C 
BRANCH  18  22
ATOM      5  O   UNL     1      -3.457 -12.292  19.931  0.00  0.00    -0.274 OA
ATOM     11  N   UNL     1      -4.625 -13.442  18.321  0.00  0.00    -0.328 N 
ATOM     22  C   UNL     1      -4.166 -12.291  18.927  0.00  0.00    +0.231 C 
ATOM     40  H   UNL     1      -4.369 -14.356  18.679  0.00  0.00    +0.145 HD
ATOM     41  H   UNL     1      -5.230 -13.426  17.506  0.00  0.00    +0.145 HD
ENDBRANCH  18  22
BRANCH  18  21
ATOM     21  C   UNL     1      -3.856 -10.716  17.000  0.00  0.00    +0.067 C 
BRANCH  21  23
ATOM     23  C   UNL     1      -4.644 -10.894  15.725  0.00  0.00    -0.045 A 
ATOM     25  C   UNL     1      -4.525 -12.074  14.990  0.00  0.00    +0.004 A 
ATOM     26  C   UNL     1      -5.494  -9.880  15.282  0.00  0.00    +0.004 A 
ATOM     30  C   UNL     1      -5.254 -12.238  13.812  0.00  0.00    +0.000 A 
ATOM     31  C   UNL     1      -6.222 -10.045  14.104  0.00  0.00    +0.000 A 
ATOM     32  C   UNL     1      -6.102 -11.225  13.369  0.00  0.00    +0.000 A 
ENDBRANCH  21  23
ENDBRANCH  18  21
ENDBRANCH   9  18
ENDBRANCH  13  16
BRANCH  17  19
ATOM     19  C   UNL     1      -9.155 -14.955  19.045  0.00  0.00    +0.164 C 
BRANCH  19   1
ATOM      1  S   UNL     1     -10.266 -15.631  17.804  0.00  0.00    -0.155 S 
ATOM     27  C   UNL     1     -11.839 -15.350  18.653  0.00  0.00    +0.085 C 
ENDBRANCH  19   1
ENDBRANCH  17  19
TORSDOF 10
ENDMDL
MODEL 10
REMARK VINA RESULT:      -6.2     26.581     29.764
REMARK  Name = 11882084
REMARK  12 active torsions:
REMARK  status: ('A' for Active; 'I' for Inactive)
REMARK    1  A    between atoms: S_1  and  C_19
REMARK    2  A    between atoms: S_1  and  C_27
REMARK    3  A    between atoms: O_6  and  C_33
REMARK    4  A    between atoms: O_6  and  C_36
REMARK    5  A    between atoms: N_8  and  C_12
REMARK    6  A    between atoms: N_9  and  C_18
REMARK    7  A    between atoms: N_10  and  C_24
REMARK    8  A    between atoms: C_13  and  C_16
REMARK    9  A    between atoms: C_17  and  C_19
REMARK   10  A    between atoms: C_18  and  C_21
REMARK   11  A    between atoms: C_18  and  C_22
REMARK   12  A    between atoms: C_21  and  C_23
REMARK                            x       y       z     vdW  Elec       q    Type
REMARK                         _______ _______ _______ _____ _____    ______ ____
ROOT
ATOM      3  O   UNL     1      11.236   9.432   4.875  0.00  0.00    -0.275 OA
ATOM      7  N   UNL     1      10.704   7.258   5.463  0.00  0.00    -0.287 N 
ATOM     12  C   UNL     1      10.057   5.343   4.222  0.00  0.00    +0.105 C 
ATOM     13  C   UNL     1      10.148   6.867   4.171  0.00  0.00    +0.182 C 
ATOM     14  C   UNL     1       9.899   5.046   5.716  0.00  0.00    +0.043 C 
ATOM     15  C   UNL     1      10.726   6.131   6.392  0.00  0.00    +0.110 C 
ATOM     17  C   UNL     1      11.273   8.502   5.683  0.00  0.00    +0.226 C 
ENDROOT
BRANCH  12   8
ATOM      4  O   UNL     1      11.184   5.769   1.624  0.00  0.00    -0.252 OA
ATOM      8  N   UNL     1      11.254   4.734   3.689  0.00  0.00    -0.294 N 
ATOM     10  N   UNL     1      12.907   4.270   2.166  0.00  0.00    -0.269 N 
ATOM     20  C   UNL     1      11.738   4.999   2.403  0.00  0.00    +0.304 C 
ATOM     37  H   UNL     1      11.805   4.137   4.298  0.00  0.00    +0.151 HD
ATOM     39  H   UNL     1      13.234   3.673   2.922  0.00  0.00    +0.156 HD
BRANCH  10  24
ATOM     24  C   UNL     1      13.698   4.258   0.995  0.00  0.00    +0.038 A 
ATOM     28  C   UNL     1      13.137   3.866  -0.221  0.00  0.00    +0.069 A 
ATOM     29  C   UNL     1      15.040   4.635   1.054  0.00  0.00    +0.023 A 
ATOM     33  C   UNL     1      13.918   3.853  -1.377  0.00  0.00    +0.122 A 
ATOM     34  C   UNL     1      15.820   4.622  -0.102  0.00  0.00    +0.005 A 
ATOM     35  C   UNL     1      15.260   4.230  -1.317  0.00  0.00    +0.046 A 
BRANCH  33   6
ATOM      6  O   UNL     1      13.372   3.470  -2.564  0.00  0.00    -0.495 OA
ATOM     36  C   UNL     1      12.147   2.742  -2.509  0.00  0.00    +0.277 C 
ENDBRANCH  33   6
ENDBRANCH  10  24
ENDBRANCH  12   8
BRANCH  13  16
ATOM      2  O   UNL     1       7.858   7.129   4.795  0.00  0.00    -0.274 OA
ATOM      9  N   UNL     1       8.731   8.485   3.116  0.00  0.00    -0.302 N 
ATOM     16  C   UNL     1       8.789   7.496   4.083  0.00  0.00    +0.236 C 
ATOM     38  H   UNL     1       9.580   8.741   2.621  0.00  0.00    +0.150 HD
BRANCH   9  18
ATOM     18  C   UNL     1       7.527   9.229   2.818  0.00  0.00    +0.163 C 
BRANCH  18  22
ATOM      5  O   UNL     1       8.094  11.018   4.362  0.00  0.00    -0.274 OA
ATOM     11  N   UNL     1       6.034  10.018   4.547  0.00  0.00    -0.328 N 
ATOM     22  C   UNL     1       7.284  10.173   3.986  0.00  0.00    +0.231 C 
ATOM     40  H   UNL     1       5.738  10.595   5.326  0.00  0.00    +0.145 HD
ATOM     41  H   UNL     1       5.367   9.331   4.210  0.00  0.00    +0.145 HD
ENDBRANCH  18  22
BRANCH  18  21
ATOM     21  C   UNL     1       7.643  10.017   1.509  0.00  0.00    +0.067 C 
BRANCH  21  23
ATOM     23  C   UNL     1       6.623   9.594   0.480  0.00  0.00    -0.045 A 
ATOM     25  C   UNL     1       7.031   9.271  -0.815  0.00  0.00    +0.004 A 
ATOM     26  C   UNL     1       5.273   9.522   0.824  0.00  0.00    +0.004 A 
ATOM     30  C   UNL     1       6.088   8.879  -1.766  0.00  0.00    +0.000 A 
ATOM     31  C   UNL     1       4.330   9.131  -0.128  0.00  0.00    +0.000 A 
ATOM     32  C   UNL     1       4.739   8.809  -1.422  0.00  0.00    +0.000 A 
ENDBRANCH  21  23
ENDBRANCH  18  21
ENDBRANCH   9  18
ENDBRANCH  13  16
BRANCH  17  19
ATOM     19  C   UNL     1      11.959   8.678   7.014  0.00  0.00    +0.164 C 
BRANCH  19   1
ATOM      1  S   UNL     1      11.261  10.135   7.803  0.00  0.00    -0.155 S 
ATOM     27  C   UNL     1       9.573   9.534   8.059  0.00  0.00    +0.085 C 
ENDBRANCH  19   1
ENDBRANCH  17  19
TORSDOF 10
ENDMDL
