MODEL 1
REMARK VINA RESULT:      -6.5      0.000      0.000
REMARK  Name = 11882466
REMARK  11 active torsions:
REMARK  status: ('A' for Active; 'I' for Inactive)
REMARK    1  A    between atoms: N_8  and  C_15
REMARK    2  A    between atoms: N_9  and  C_23
REMARK    3  A    between atoms: N_10  and  C_31
REMARK    4  A    between atoms: C_16  and  C_20
REMARK    5  A    between atoms: C_21  and  C_22
REMARK    6  A    between atoms: C_23  and  C_25
REMARK    7  A    between atoms: C_23  and  C_28
REMARK    8  A    between atoms: C_24  and  C_27
REMARK    9  A    between atoms: C_25  and  C_30
REMARK   10  A    between atoms: C_29  and  C_33
REMARK   11  A    between atoms: C_32  and  C_35
REMARK                            x       y       z     vdW  Elec       q    Type
REMARK                         _______ _______ _______ _____ _____    ______ ____
ROOT
ATOM      4  O   UNL     1       9.906   8.239   5.235  0.00  0.00    -0.268 OA
ATOM      7  N   UNL     1      12.139   7.728   5.620  0.00  0.00    -0.285 N 
ATOM     15  C   UNL     1      14.928   8.616   5.628  0.00  0.00    +0.077 C 
ATOM     16  C   UNL     1      12.591   8.684   4.600  0.00  0.00    +0.164 C 
ATOM     17  C   UNL     1      13.829   9.482   5.007  0.00  0.00    +0.054 C 
ATOM     18  C   UNL     1      14.348   7.777   6.765  0.00  0.00    +0.041 C 
ATOM     19  C   UNL     1      13.180   6.925   6.284  0.00  0.00    +0.111 C 
ATOM     21  C   UNL     1      10.750   7.546   5.809  0.00  0.00    +0.265 C 
ENDROOT
BRANCH  21  22
ATOM     10  N   UNL     1      10.017   5.215   6.362  0.00  0.00    -0.262 N 
ATOM     11  N   UNL     1       9.655   4.435   7.394  0.00  0.00    -0.176 NA
ATOM     22  C   UNL     1      10.326   6.490   6.723  0.00  0.00    +0.123 A 
ATOM     26  C   UNL     1      10.158   6.554   8.081  0.00  0.00    +0.057 A 
ATOM     29  C   UNL     1       9.743   5.258   8.442  0.00  0.00    +0.061 A 
ATOM     31  C   UNL     1      10.043   4.658   5.030  0.00  0.00    +0.173 C 
ATOM     33  C   UNL     1       9.419   4.764   9.791  0.00  0.00    +0.067 C 
ENDBRANCH  21  22
BRANCH  16  20
ATOM      3  O   UNL     1      13.828   8.027   2.664  0.00  0.00    -0.274 OA
ATOM      9  N   UNL     1      11.752   7.050   3.061  0.00  0.00    -0.302 N 
ATOM     20  C   UNL     1      12.813   7.893   3.344  0.00  0.00    +0.234 C 
ATOM     39  H   UNL     1      10.926   7.083   3.652  0.00  0.00    +0.150 HD
BRANCH   9  23
ATOM     23  C   UNL     1      11.710   6.197   1.894  0.00  0.00    +0.163 C 
BRANCH  23  28
ATOM      6  O   UNL     1       9.839   5.277   0.647  0.00  0.00    -0.274 OA
ATOM     12  N   UNL     1       9.428   6.942   2.175  0.00  0.00    -0.328 N 
ATOM     28  C   UNL     1      10.250   6.081   1.479  0.00  0.00    +0.231 C 
ATOM     40  H   UNL     1       9.780   7.600   2.862  0.00  0.00    +0.145 HD
ATOM     41  H   UNL     1       8.427   6.955   2.006  0.00  0.00    +0.145 HD
ENDBRANCH  23  28
BRANCH  23  25
ATOM     25  C   UNL     1      12.300   4.809   2.168  0.00  0.00    +0.074 C 
BRANCH  25  30
ATOM      2  S   UNL     1      13.871   5.499   0.007  0.00  0.00    -0.102 S 
ATOM     30  C   UNL     1      13.572   4.562   1.389  0.00  0.00    -0.008 A 
ATOM     34  C   UNL     1      14.541   3.651   1.661  0.00  0.00    +0.011 A 
ATOM     36  C   UNL     1      15.588   3.716   0.695  0.00  0.00    +0.008 A 
ATOM     37  C   UNL     1      15.351   4.679  -0.261  0.00  0.00    +0.045 A 
ENDBRANCH  25  30
ENDBRANCH  23  25
ENDBRANCH   9  23
ENDBRANCH  16  20
BRANCH  15   8
ATOM      5  O   UNL     1      17.649   8.274   4.972  0.00  0.00    -0.270 OA
ATOM      8  N   UNL     1      16.019   9.434   6.101  0.00  0.00    -0.308 N 
ATOM     24  C   UNL     1      17.341   9.198   5.728  0.00  0.00    +0.254 C 
ATOM     38  H   UNL     1      15.804  10.241   6.681  0.00  0.00    +0.149 HD
BRANCH  24  27
ATOM      1  S   UNL     1      18.049  11.802   6.180  0.00  0.00    +0.041 S 
ATOM     13  N   UNL     1      20.196  11.062   7.239  0.00  0.00    -0.146 NA
ATOM     14  N   UNL     1      19.507  12.148   6.929  0.00  0.00    -0.110 NA
ATOM     27  C   UNL     1      18.336  10.137   6.264  0.00  0.00    +0.117 A 
ATOM     32  C   UNL     1      19.526   9.910   6.858  0.00  0.00    +0.081 A 
ATOM     35  C   UNL     1      20.165   8.607   7.134  0.00  0.00    +0.069 C 
ENDBRANCH  24  27
ENDBRANCH  15   8
TORSDOF 8
ENDMDL
MODEL 2
REMARK VINA RESULT:      -6.3      2.575      3.214
REMARK  Name = 11882466
REMARK  11 active torsions:
REMARK  status: ('A' for Active; 'I' for Inactive)
REMARK    1  A    between atoms: N_8  and  C_15
REMARK    2  A    between atoms: N_9  and  C_23
REMARK    3  A    between atoms: N_10  and  C_31
REMARK    4  A    between atoms: C_16  and  C_20
REMARK    5  A    between atoms: C_21  and  C_22
REMARK    6  A    between atoms: C_23  and  C_25
REMARK    7  A    between atoms: C_23  and  C_28
REMARK    8  A    between atoms: C_24  and  C_27
REMARK    9  A    between atoms: C_25  and  C_30
REMARK   10  A    between atoms: C_29  and  C_33
REMARK   11  A    between atoms: C_32  and  C_35
REMARK                            x       y       z     vdW  Elec       q    Type
REMARK                         _______ _______ _______ _____ _____    ______ ____
ROOT
ATOM      4  O   UNL     1       8.848   6.683   4.462  0.00  0.00    -0.268 OA
ATOM      7  N   UNL     1      11.135   6.850   4.831  0.00  0.00    -0.285 N 
ATOM     15  C   UNL     1      13.706   7.996   4.030  0.00  0.00    +0.077 C 
ATOM     16  C   UNL     1      11.404   7.084   3.406  0.00  0.00    +0.164 C 
ATOM     17  C   UNL     1      12.467   8.150   3.145  0.00  0.00    +0.054 C 
ATOM     18  C   UNL     1      13.288   7.904   5.497  0.00  0.00    +0.041 C 
ATOM     19  C   UNL     1      12.305   6.762   5.721  0.00  0.00    +0.111 C 
ATOM     21  C   UNL     1       9.804   6.600   5.237  0.00  0.00    +0.265 C 
ENDROOT
BRANCH  21  22
ATOM     10  N   UNL     1       9.224   7.086   7.625  0.00  0.00    -0.262 N 
ATOM     11  N   UNL     1       9.081   6.494   8.823  0.00  0.00    -0.176 NA
ATOM     22  C   UNL     1       9.582   6.229   6.630  0.00  0.00    +0.123 A 
ATOM     26  C   UNL     1       9.680   4.992   7.210  0.00  0.00    +0.057 A 
ATOM     29  C   UNL     1       9.361   5.214   8.563  0.00  0.00    +0.061 A 
ATOM     31  C   UNL     1       8.997   8.508   7.508  0.00  0.00    +0.173 C 
ATOM     33  C   UNL     1       9.312   4.220   9.648  0.00  0.00    +0.067 C 
ENDBRANCH  21  22
BRANCH  16  20
ATOM      3  O   UNL     1      11.302   4.702   3.243  0.00  0.00    -0.274 OA
ATOM      9  N   UNL     1      12.707   5.871   1.801  0.00  0.00    -0.302 N 
ATOM     20  C   UNL     1      11.777   5.753   2.820  0.00  0.00    +0.234 C 
ATOM     39  H   UNL     1      13.092   6.788   1.590  0.00  0.00    +0.150 HD
BRANCH   9  23
ATOM     23  C   UNL     1      13.247   4.736   1.088  0.00  0.00    +0.163 C 
BRANCH  23  28
ATOM      6  O   UNL     1      14.842   3.088   1.893  0.00  0.00    -0.274 OA
ATOM     12  N   UNL     1      15.127   5.283   2.504  0.00  0.00    -0.328 N 
ATOM     28  C   UNL     1      14.463   4.257   1.868  0.00  0.00    +0.231 C 
ATOM     40  H   UNL     1      14.805   6.245   2.473  0.00  0.00    +0.145 HD
ATOM     41  H   UNL     1      15.966   5.103   3.047  0.00  0.00    +0.145 HD
ENDBRANCH  23  28
BRANCH  23  25
ATOM     25  C   UNL     1      13.639   5.087  -0.352  0.00  0.00    +0.074 C 
BRANCH  25  30
ATOM      2  S   UNL     1      13.553   4.251  -2.981  0.00  0.00    -0.102 S 
ATOM     30  C   UNL     1      13.104   4.088  -1.352  0.00  0.00    -0.008 A 
ATOM     34  C   UNL     1      12.278   3.039  -1.109  0.00  0.00    +0.011 A 
ATOM     36  C   UNL     1      11.993   2.324  -2.308  0.00  0.00    +0.008 A 
ATOM     37  C   UNL     1      12.623   2.877  -3.402  0.00  0.00    +0.045 A 
ENDBRANCH  25  30
ENDBRANCH  23  25
ENDBRANCH   9  23
ENDBRANCH  16  20
BRANCH  15   8
ATOM      5  O   UNL     1      16.511   7.789   3.827  0.00  0.00    -0.270 OA
ATOM      8  N   UNL     1      14.620   9.094   3.827  0.00  0.00    -0.308 N 
ATOM     24  C   UNL     1      15.999   8.906   3.737  0.00  0.00    +0.254 C 
ATOM     38  H   UNL     1      14.237  10.025   3.690  0.00  0.00    +0.149 HD
BRANCH  24  27
ATOM      1  S   UNL     1      16.836  10.799   1.947  0.00  0.00    +0.041 S 
ATOM     13  N   UNL     1      18.169  11.939   3.737  0.00  0.00    -0.146 NA
ATOM     14  N   UNL     1      17.861  12.024   2.453  0.00  0.00    -0.110 NA
ATOM     27  C   UNL     1      16.796  10.117   3.494  0.00  0.00    +0.117 A 
ATOM     32  C   UNL     1      17.560  10.846   4.334  0.00  0.00    +0.081 A 
ATOM     35  C   UNL     1      17.806  10.609   5.771  0.00  0.00    +0.069 C 
ENDBRANCH  24  27
ENDBRANCH  15   8
TORSDOF 8
ENDMDL
MODEL 3
REMARK VINA RESULT:      -6.1      3.063      8.641
REMARK  Name = 11882466
REMARK  11 active torsions:
REMARK  status: ('A' for Active; 'I' for Inactive)
REMARK    1  A    between atoms: N_8  and  C_15
REMARK    2  A    between atoms: N_9  and  C_23
REMARK    3  A    between atoms: N_10  and  C_31
REMARK    4  A    between atoms: C_16  and  C_20
REMARK    5  A    between atoms: C_21  and  C_22
REMARK    6  A    between atoms: C_23  and  C_25
REMARK    7  A    between atoms: C_23  and  C_28
REMARK    8  A    between atoms: C_24  and  C_27
REMARK    9  A    between atoms: C_25  and  C_30
REMARK   10  A    between atoms: C_29  and  C_33
REMARK   11  A    between atoms: C_32  and  C_35
REMARK                            x       y       z     vdW  Elec       q    Type
REMARK                         _______ _______ _______ _____ _____    ______ ____
ROOT
ATOM      4  O   UNL     1      15.862  10.713   5.095  0.00  0.00    -0.268 OA
ATOM      7  N   UNL     1      15.280   8.547   4.493  0.00  0.00    -0.285 N 
ATOM     15  C   UNL     1      13.441   6.771   3.069  0.00  0.00    +0.077 C 
ATOM     16  C   UNL     1      13.852   8.887   4.438  0.00  0.00    +0.164 C 
ATOM     17  C   UNL     1      13.110   8.253   3.262  0.00  0.00    +0.054 C 
ATOM     18  C   UNL     1      14.955   6.580   3.003  0.00  0.00    +0.041 C 
ATOM     19  C   UNL     1      15.637   7.140   4.246  0.00  0.00    +0.111 C 
ATOM     21  C   UNL     1      16.198   9.543   4.897  0.00  0.00    +0.265 C 
ENDROOT
BRANCH  21  22
ATOM     10  N   UNL     1      18.520   9.053   4.093  0.00  0.00    -0.262 N 
ATOM     11  N   UNL     1      19.730   8.663   4.526  0.00  0.00    -0.176 NA
ATOM     22  C   UNL     1      17.589   9.144   5.082  0.00  0.00    +0.123 A 
ATOM     26  C   UNL     1      18.228   8.790   6.241  0.00  0.00    +0.057 A 
ATOM     29  C   UNL     1      19.546   8.503   5.839  0.00  0.00    +0.061 A 
ATOM     31  C   UNL     1      18.325   9.328   2.688  0.00  0.00    +0.173 C 
ATOM     33  C   UNL     1      20.669   8.071   6.688  0.00  0.00    +0.067 C 
ENDBRANCH  21  22
BRANCH  16  20
ATOM      3  O   UNL     1      13.964   8.358   6.766  0.00  0.00    -0.274 OA
ATOM      9  N   UNL     1      11.903   8.262   5.686  0.00  0.00    -0.302 N 
ATOM     20  C   UNL     1      13.268   8.484   5.761  0.00  0.00    +0.234 C 
ATOM     39  H   UNL     1      11.445   8.317   4.781  0.00  0.00    +0.150 HD
BRANCH   9  23
ATOM     23  C   UNL     1      11.108   7.842   6.818  0.00  0.00    +0.163 C 
BRANCH  23  28
ATOM      6  O   UNL     1      10.467   5.595   6.150  0.00  0.00    -0.274 OA
ATOM     12  N   UNL     1      12.102   5.844   7.744  0.00  0.00    -0.328 N 
ATOM     28  C   UNL     1      11.159   6.321   6.860  0.00  0.00    +0.231 C 
ATOM     40  H   UNL     1      12.669   6.455   8.322  0.00  0.00    +0.145 HD
ATOM     41  H   UNL     1      12.250   4.846   7.858  0.00  0.00    +0.145 HD
ENDBRANCH  23  28
BRANCH  23  25
ATOM     25  C   UNL     1       9.657   8.327   6.719  0.00  0.00    +0.074 C 
BRANCH  25  30
ATOM      2  S   UNL     1       9.047  10.954   6.134  0.00  0.00    -0.102 S 
ATOM     30  C   UNL     1       9.486   9.738   7.233  0.00  0.00    -0.008 A 
ATOM     34  C   UNL     1       9.647  10.176   8.508  0.00  0.00    +0.011 A 
ATOM     36  C   UNL     1       9.399  11.576   8.601  0.00  0.00    +0.008 A 
ATOM     37  C   UNL     1       9.063  12.125   7.383  0.00  0.00    +0.045 A 
ENDBRANCH  25  30
ENDBRANCH  23  25
ENDBRANCH   9  23
ENDBRANCH  16  20
BRANCH  15   8
ATOM      5  O   UNL     1      11.492   4.734   2.985  0.00  0.00    -0.270 OA
ATOM      8  N   UNL     1      12.809   6.257   1.877  0.00  0.00    -0.308 N 
ATOM     24  C   UNL     1      11.851   5.245   1.922  0.00  0.00    +0.254 C 
ATOM     38  H   UNL     1      13.033   6.688   0.985  0.00  0.00    +0.149 HD
BRANCH  24  27
ATOM      1  S   UNL     1       9.807   5.527   0.124  0.00  0.00    +0.041 S 
ATOM     13  N   UNL     1      10.897   3.875  -1.413  0.00  0.00    -0.146 NA
ATOM     14  N   UNL     1       9.831   4.650  -1.304  0.00  0.00    -0.110 NA
ATOM     27  C   UNL     1      11.274   4.851   0.629  0.00  0.00    +0.117 A 
ATOM     32  C   UNL     1      11.723   3.989  -0.306  0.00  0.00    +0.081 A 
ATOM     35  C   UNL     1      12.961   3.183  -0.273  0.00  0.00    +0.069 C 
ENDBRANCH  24  27
ENDBRANCH  15   8
TORSDOF 8
ENDMDL
MODEL 4
REMARK VINA RESULT:      -6.1     26.841     29.052
REMARK  Name = 11882466
REMARK  11 active torsions:
REMARK  status: ('A' for Active; 'I' for Inactive)
REMARK    1  A    between atoms: N_8  and  C_15
REMARK    2  A    between atoms: N_9  and  C_23
REMARK    3  A    between atoms: N_10  and  C_31
REMARK    4  A    between atoms: C_16  and  C_20
REMARK    5  A    between atoms: C_21  and  C_22
REMARK    6  A    between atoms: C_23  and  C_25
REMARK    7  A    between atoms: C_23  and  C_28
REMARK    8  A    between atoms: C_24  and  C_27
REMARK    9  A    between atoms: C_25  and  C_30
REMARK   10  A    between atoms: C_29  and  C_33
REMARK   11  A    between atoms: C_32  and  C_35
REMARK                            x       y       z     vdW  Elec       q    Type
REMARK                         _______ _______ _______ _____ _____    ______ ____
ROOT
ATOM      4  O   UNL     1      -3.320 -10.781  15.018  0.00  0.00    -0.268 OA
ATOM      7  N   UNL     1      -4.640 -11.350  13.193  0.00  0.00    -0.285 N 
ATOM     15  C   UNL     1      -6.287 -10.464  10.943  0.00  0.00    +0.077 C 
ATOM     16  C   UNL     1      -5.457 -10.138  13.335  0.00  0.00    +0.164 C 
ATOM     17  C   UNL     1      -5.811  -9.472  12.006  0.00  0.00    +0.054 C 
ATOM     18  C   UNL     1      -5.275 -11.599  10.800  0.00  0.00    +0.041 C 
ATOM     19  C   UNL     1      -5.033 -12.295  12.134  0.00  0.00    +0.111 C 
ATOM     21  C   UNL     1      -3.623 -11.597  14.144  0.00  0.00    +0.265 C 
ENDROOT
BRANCH  21  22
ATOM     10  N   UNL     1      -3.351 -14.042  14.619  0.00  0.00    -0.262 N 
ATOM     11  N   UNL     1      -2.523 -15.078  14.403  0.00  0.00    -0.176 NA
ATOM     22  C   UNL     1      -2.922 -12.874  14.066  0.00  0.00    +0.123 A 
ATOM     26  C   UNL     1      -1.734 -13.159  13.446  0.00  0.00    +0.057 A 
ATOM     29  C   UNL     1      -1.536 -14.532  13.686  0.00  0.00    +0.061 A 
ATOM     31  C   UNL     1      -4.561 -14.251  15.379  0.00  0.00    +0.173 C 
ATOM     33  C   UNL     1      -0.408 -15.367  13.242  0.00  0.00    +0.067 C 
ENDBRANCH  21  22
BRANCH  16  20
ATOM      3  O   UNL     1      -7.213 -11.632  13.962  0.00  0.00    -0.274 OA
ATOM      9  N   UNL     1      -7.106  -9.534  14.967  0.00  0.00    -0.302 N 
ATOM     20  C   UNL     1      -6.677 -10.536  14.114  0.00  0.00    +0.234 C 
ATOM     39  H   UNL     1      -6.631  -8.636  14.948  0.00  0.00    +0.150 HD
BRANCH   9  23
ATOM     23  C   UNL     1      -8.273  -9.660  15.810  0.00  0.00    +0.163 C 
BRANCH  23  28
ATOM      6  O   UNL     1     -10.051  -9.124  14.243  0.00  0.00    -0.274 OA
ATOM     12  N   UNL     1      -9.523  -7.593  15.871  0.00  0.00    -0.328 N 
ATOM     28  C   UNL     1      -9.360  -8.786  15.201  0.00  0.00    +0.231 C 
ATOM     40  H   UNL     1      -8.947  -7.327  16.664  0.00  0.00    +0.145 HD
ATOM     41  H   UNL     1     -10.227  -6.923  15.577  0.00  0.00    +0.145 HD
ENDBRANCH  23  28
BRANCH  23  25
ATOM     25  C   UNL     1      -7.992  -9.234  17.257  0.00  0.00    +0.074 C 
BRANCH  25  30
ATOM      2  S   UNL     1      -7.854 -11.943  17.768  0.00  0.00    -0.102 S 
ATOM     30  C   UNL     1      -7.371 -10.345  18.072  0.00  0.00    -0.008 A 
ATOM     34  C   UNL     1      -6.441 -10.225  19.055  0.00  0.00    +0.011 A 
ATOM     36  C   UNL     1      -6.100 -11.500  19.592  0.00  0.00    +0.008 A 
ATOM     37  C   UNL     1      -6.794 -12.521  18.983  0.00  0.00    +0.045 A 
ENDBRANCH  25  30
ENDBRANCH  23  25
ENDBRANCH   9  23
ENDBRANCH  16  20
BRANCH  15   8
ATOM      5  O   UNL     1      -8.762  -9.557   9.939  0.00  0.00    -0.270 OA
ATOM      8  N   UNL     1      -6.492  -9.799   9.678  0.00  0.00    -0.308 N 
ATOM     24  C   UNL     1      -7.752  -9.381   9.254  0.00  0.00    +0.254 C 
ATOM     38  H   UNL     1      -5.679  -9.582   9.107  0.00  0.00    +0.149 HD
BRANCH  24  27
ATOM      1  S   UNL     1      -7.108  -9.416   6.594  0.00  0.00    +0.041 S 
ATOM     13  N   UNL     1      -8.166  -7.167   6.282  0.00  0.00    -0.146 NA
ATOM     14  N   UNL     1      -7.530  -8.120   5.621  0.00  0.00    -0.110 NA
ATOM     27  C   UNL     1      -7.795  -8.688   7.958  0.00  0.00    +0.117 A 
ATOM     32  C   UNL     1      -8.318  -7.491   7.620  0.00  0.00    +0.081 A 
ATOM     35  C   UNL     1      -9.011  -6.526   8.498  0.00  0.00    +0.069 C 
ENDBRANCH  24  27
ENDBRANCH  15   8
TORSDOF 8
ENDMDL
MODEL 5
REMARK VINA RESULT:      -5.9     25.761     27.135
REMARK  Name = 11882466
REMARK  11 active torsions:
REMARK  status: ('A' for Active; 'I' for Inactive)
REMARK    1  A    between atoms: N_8  and  C_15
REMARK    2  A    between atoms: N_9  and  C_23
REMARK    3  A    between atoms: N_10  and  C_31
REMARK    4  A    between atoms: C_16  and  C_20
REMARK    5  A    between atoms: C_21  and  C_22
REMARK    6  A    between atoms: C_23  and  C_25
REMARK    7  A    between atoms: C_23  and  C_28
REMARK    8  A    between atoms: C_24  and  C_27
REMARK    9  A    between atoms: C_25  and  C_30
REMARK   10  A    between atoms: C_29  and  C_33
REMARK   11  A    between atoms: C_32  and  C_35
REMARK                            x       y       z     vdW  Elec       q    Type
REMARK                         _______ _______ _______ _____ _____    ______ ____
ROOT
ATOM      4  O   UNL     1      -7.856  -6.611   8.244  0.00  0.00    -0.268 OA
ATOM      7  N   UNL     1      -7.581  -8.469   9.610  0.00  0.00    -0.285 N 
ATOM     15  C   UNL     1      -5.999  -9.840  11.655  0.00  0.00    +0.077 C 
ATOM     16  C   UNL     1      -6.119  -8.329   9.600  0.00  0.00    +0.164 C 
ATOM     17  C   UNL     1      -5.464  -8.588  10.956  0.00  0.00    +0.054 C 
ATOM     18  C   UNL     1      -7.524  -9.788  11.720  0.00  0.00    +0.041 C 
ATOM     19  C   UNL     1      -8.131  -9.629  10.331  0.00  0.00    +0.111 C 
ATOM     21  C   UNL     1      -8.352  -7.573   8.835  0.00  0.00    +0.265 C 
ENDROOT
BRANCH  21  22
ATOM     10  N   UNL     1     -10.382  -8.714   7.910  0.00  0.00    -0.262 N 
ATOM     11  N   UNL     1     -11.720  -8.753   8.024  0.00  0.00    -0.176 NA
ATOM     22  C   UNL     1      -9.788  -7.820   8.747  0.00  0.00    +0.123 A 
ATOM     26  C   UNL     1     -10.800  -7.232   9.458  0.00  0.00    +0.057 A 
ATOM     29  C   UNL     1     -11.970  -7.845   8.971  0.00  0.00    +0.061 A 
ATOM     31  C   UNL     1      -9.728  -9.582   6.958  0.00  0.00    +0.173 C 
ATOM     33  C   UNL     1     -13.358  -7.588   9.391  0.00  0.00    +0.067 C 
ENDBRANCH  21  22
BRANCH  16  20
ATOM      3  O   UNL     1      -4.702 -10.058   8.755  0.00  0.00    -0.274 OA
ATOM      9  N   UNL     1      -6.261  -9.081   7.328  0.00  0.00    -0.302 N 
ATOM     20  C   UNL     1      -5.610  -9.259   8.536  0.00  0.00    +0.234 C 
ATOM     39  H   UNL     1      -6.942  -8.331   7.242  0.00  0.00    +0.150 HD
BRANCH   9  23
ATOM     23  C   UNL     1      -5.941  -9.837   6.139  0.00  0.00    +0.163 C 
BRANCH  23  28
ATOM      6  O   UNL     1      -7.213  -9.944   4.071  0.00  0.00    -0.274 OA
ATOM     12  N   UNL     1      -7.075  -7.934   5.175  0.00  0.00    -0.328 N 
ATOM     28  C   UNL     1      -6.789  -9.272   5.009  0.00  0.00    +0.231 C 
ATOM     40  H   UNL     1      -6.721  -7.391   5.955  0.00  0.00    +0.145 HD
ATOM     41  H   UNL     1      -7.647  -7.437   4.499  0.00  0.00    +0.145 HD
ENDBRANCH  23  28
BRANCH  23  25
ATOM     25  C   UNL     1      -6.213 -11.336   6.314  0.00  0.00    +0.074 C 
BRANCH  25  30
ATOM      2  S   UNL     1      -4.610 -13.423   7.147  0.00  0.00    -0.102 S 
ATOM     30  C   UNL     1      -4.983 -12.176   6.057  0.00  0.00    -0.008 A 
ATOM     34  C   UNL     1      -4.102 -12.057   5.031  0.00  0.00    +0.011 A 
ATOM     36  C   UNL     1      -3.067 -13.032   5.130  0.00  0.00    +0.008 A 
ATOM     37  C   UNL     1      -3.221 -13.840   6.235  0.00  0.00    +0.045 A 
ENDBRANCH  25  30
ENDBRANCH  23  25
ENDBRANCH   9  23
ENDBRANCH  16  20
BRANCH  15   8
ATOM      5  O   UNL     1      -4.272 -11.896  12.518  0.00  0.00    -0.270 OA
ATOM      8  N   UNL     1      -5.435  -9.968  12.977  0.00  0.00    -0.308 N 
ATOM     24  C   UNL     1      -4.586 -11.019  13.325  0.00  0.00    +0.254 C 
ATOM     38  H   UNL     1      -5.622  -9.236  13.657  0.00  0.00    +0.149 HD
BRANCH  24  27
ATOM      1  S   UNL     1      -5.087 -11.382  15.990  0.00  0.00    +0.041 S 
ATOM     13  N   UNL     1      -2.717 -10.786  16.543  0.00  0.00    -0.146 NA
ATOM     14  N   UNL     1      -3.859 -11.143  17.106  0.00  0.00    -0.110 NA
ATOM     27  C   UNL     1      -4.065 -10.994  14.699  0.00  0.00    +0.117 A 
ATOM     32  C   UNL     1      -2.834 -10.700  15.165  0.00  0.00    +0.081 A 
ATOM     35  C   UNL     1      -1.641 -10.309  14.386  0.00  0.00    +0.069 C 
ENDBRANCH  24  27
ENDBRANCH  15   8
TORSDOF 8
ENDMDL
MODEL 6
REMARK VINA RESULT:      -5.7      3.032      5.855
REMARK  Name = 11882466
REMARK  11 active torsions:
REMARK  status: ('A' for Active; 'I' for Inactive)
REMARK    1  A    between atoms: N_8  and  C_15
REMARK    2  A    between atoms: N_9  and  C_23
REMARK    3  A    between atoms: N_10  and  C_31
REMARK    4  A    between atoms: C_16  and  C_20
REMARK    5  A    between atoms: C_21  and  C_22
REMARK    6  A    between atoms: C_23  and  C_25
REMARK    7  A    between atoms: C_23  and  C_28
REMARK    8  A    between atoms: C_24  and  C_27
REMARK    9  A    between atoms: C_25  and  C_30
REMARK   10  A    between atoms: C_29  and  C_33
REMARK   11  A    between atoms: C_32  and  C_35
REMARK                            x       y       z     vdW  Elec       q    Type
REMARK                         _______ _______ _______ _____ _____    ______ ____
ROOT
ATOM      4  O   UNL     1      11.074   5.512   4.285  0.00  0.00    -0.268 OA
ATOM      7  N   UNL     1      12.884   6.633   3.357  0.00  0.00    -0.285 N 
ATOM     15  C   UNL     1      15.601   7.669   3.686  0.00  0.00    +0.077 C 
ATOM     16  C   UNL     1      13.298   7.161   4.664  0.00  0.00    +0.164 C 
ATOM     17  C   UNL     1      14.809   7.145   4.886  0.00  0.00    +0.054 C 
ATOM     18  C   UNL     1      15.169   6.936   2.418  0.00  0.00    +0.041 C 
ATOM     19  C   UNL     1      13.668   7.067   2.188  0.00  0.00    +0.111 C 
ATOM     21  C   UNL     1      11.704   5.857   3.283  0.00  0.00    +0.265 C 
ENDROOT
BRANCH  21  22
ATOM     10  N   UNL     1      11.654   4.368   1.268  0.00  0.00    -0.262 N 
ATOM     11  N   UNL     1      11.069   4.230   0.067  0.00  0.00    -0.176 NA
ATOM     22  C   UNL     1      11.237   5.466   1.957  0.00  0.00    +0.123 A 
ATOM     26  C   UNL     1      10.317   6.091   1.157  0.00  0.00    +0.057 A 
ATOM     29  C   UNL     1      10.253   5.286   0.004  0.00  0.00    +0.061 A 
ATOM     31  C   UNL     1      12.624   3.388   1.699  0.00  0.00    +0.173 C 
ATOM     33  C   UNL     1       9.416   5.494  -1.189  0.00  0.00    +0.067 C 
ENDBRANCH  21  22
BRANCH  16  20
ATOM      3  O   UNL     1      12.721   9.316   3.808  0.00  0.00    -0.274 OA
ATOM      9  N   UNL     1      12.241   8.821   6.032  0.00  0.00    -0.302 N 
ATOM     20  C   UNL     1      12.723   8.544   4.765  0.00  0.00    +0.234 C 
ATOM     39  H   UNL     1      12.371   8.133   6.769  0.00  0.00    +0.150 HD
BRANCH   9  23
ATOM     23  C   UNL     1      11.659  10.093   6.396  0.00  0.00    +0.163 C 
BRANCH  23  28
ATOM      6  O   UNL     1      13.687  11.255   7.061  0.00  0.00    -0.274 OA
ATOM     12  N   UNL     1      12.114  10.782   8.666  0.00  0.00    -0.328 N 
ATOM     28  C   UNL     1      12.611  10.755   7.381  0.00  0.00    +0.231 C 
ATOM     40  H   UNL     1      11.222  10.369   8.917  0.00  0.00    +0.145 HD
ATOM     41  H   UNL     1      12.643  11.210   9.420  0.00  0.00    +0.145 HD
ENDBRANCH  23  28
BRANCH  23  25
ATOM     25  C   UNL     1      10.267   9.936   7.020  0.00  0.00    +0.074 C 
BRANCH  25  30
ATOM      2  S   UNL     1       9.041   7.472   7.224  0.00  0.00    -0.102 S 
ATOM     30  C   UNL     1       9.450   8.862   6.340  0.00  0.00    -0.008 A 
ATOM     34  C   UNL     1       8.985   8.862   5.065  0.00  0.00    +0.011 A 
ATOM     36  C   UNL     1       8.254   7.671   4.787  0.00  0.00    +0.008 A 
ATOM     37  C   UNL     1       8.207   6.827   5.875  0.00  0.00    +0.045 A 
ENDBRANCH  25  30
ENDBRANCH  23  25
ENDBRANCH   9  23
ENDBRANCH  16  20
BRANCH  15   8
ATOM      5  O   UNL     1      17.424   9.766   4.170  0.00  0.00    -0.270 OA
ATOM      8  N   UNL     1      17.020   7.520   3.904  0.00  0.00    -0.308 N 
ATOM     24  C   UNL     1      17.855   8.612   4.138  0.00  0.00    +0.254 C 
ATOM     38  H   UNL     1      17.409   6.581   3.943  0.00  0.00    +0.149 HD
BRANCH  24  27
ATOM      1  S   UNL     1      20.266   7.870   3.076  0.00  0.00    +0.041 S 
ATOM     13  N   UNL     1      21.315   7.932   5.350  0.00  0.00    -0.146 NA
ATOM     14  N   UNL     1      21.593   7.684   4.080  0.00  0.00    -0.110 NA
ATOM     27  C   UNL     1      19.271   8.297   4.376  0.00  0.00    +0.117 A 
ATOM     32  C   UNL     1      19.986   8.282   5.520  0.00  0.00    +0.081 A 
ATOM     35  C   UNL     1      19.514   8.590   6.886  0.00  0.00    +0.069 C 
ENDBRANCH  24  27
ENDBRANCH  15   8
TORSDOF 8
ENDMDL
MODEL 7
REMARK VINA RESULT:      -5.7     25.937     29.183
REMARK  Name = 11882466
REMARK  11 active torsions:
REMARK  status: ('A' for Active; 'I' for Inactive)
REMARK    1  A    between atoms: N_8  and  C_15
REMARK    2  A    between atoms: N_9  and  C_23
REMARK    3  A    between atoms: N_10  and  C_31
REMARK    4  A    between atoms: C_16  and  C_20
REMARK    5  A    between atoms: C_21  and  C_22
REMARK    6  A    between atoms: C_23  and  C_25
REMARK    7  A    between atoms: C_23  and  C_28
REMARK    8  A    between atoms: C_24  and  C_27
REMARK    9  A    between atoms: C_25  and  C_30
REMARK   10  A    between atoms: C_29  and  C_33
REMARK   11  A    between atoms: C_32  and  C_35
REMARK                            x       y       z     vdW  Elec       q    Type
REMARK                         _______ _______ _______ _____ _____    ______ ____
ROOT
ATOM      4  O   UNL     1      -7.084 -13.997  17.182  0.00  0.00    -0.268 OA
ATOM      7  N   UNL     1      -6.772 -12.094  15.887  0.00  0.00    -0.285 N 
ATOM     15  C   UNL     1      -6.251 -10.938  13.249  0.00  0.00    +0.077 C 
ATOM     16  C   UNL     1      -5.891 -12.806  14.953  0.00  0.00    +0.164 C 
ATOM     17  C   UNL     1      -6.124 -12.445  13.486  0.00  0.00    +0.054 C 
ATOM     18  C   UNL     1      -7.301 -10.351  14.191  0.00  0.00    +0.041 C 
ATOM     19  C   UNL     1      -6.969 -10.654  15.647  0.00  0.00    +0.111 C 
ATOM     21  C   UNL     1      -7.269 -12.789  17.014  0.00  0.00    +0.265 C 
ENDROOT
BRANCH  21  22
ATOM     10  N   UNL     1      -7.501 -11.462  19.127  0.00  0.00    -0.262 N 
ATOM     11  N   UNL     1      -8.407 -10.807  19.872  0.00  0.00    -0.176 NA
ATOM     22  C   UNL     1      -8.022 -12.023  18.001  0.00  0.00    +0.123 A 
ATOM     26  C   UNL     1      -9.358 -11.716  18.005  0.00  0.00    +0.057 A 
ATOM     29  C   UNL     1      -9.540 -10.966  19.182  0.00  0.00    +0.061 A 
ATOM     31  C   UNL     1      -6.126 -11.510  19.566  0.00  0.00    +0.173 C 
ATOM     33  C   UNL     1     -10.791 -10.376  19.685  0.00  0.00    +0.067 C 
ENDBRANCH  21  22
BRANCH  16  20
ATOM      3  O   UNL     1      -4.211 -12.260  16.562  0.00  0.00    -0.274 OA
ATOM      9  N   UNL     1      -3.587 -12.562  14.340  0.00  0.00    -0.302 N 
ATOM     20  C   UNL     1      -4.485 -12.519  15.392  0.00  0.00    +0.234 C 
ATOM     39  H   UNL     1      -3.940 -12.707  13.398  0.00  0.00    +0.150 HD
BRANCH   9  23
ATOM     23  C   UNL     1      -2.174 -12.300  14.494  0.00  0.00    +0.163 C 
BRANCH  23  28
ATOM      6  O   UNL     1      -1.302 -10.079  14.958  0.00  0.00    -0.274 OA
ATOM     12  N   UNL     1      -2.554 -10.394  13.058  0.00  0.00    -0.328 N 
ATOM     28  C   UNL     1      -1.964 -10.816  14.230  0.00  0.00    +0.231 C 
ATOM     40  H   UNL     1      -3.096 -11.013  12.464  0.00  0.00    +0.145 HD
ATOM     41  H   UNL     1      -2.477  -9.428  12.755  0.00  0.00    +0.145 HD
ENDBRANCH  23  28
BRANCH  23  25
ATOM     25  C   UNL     1      -1.319 -13.139  13.538  0.00  0.00    +0.074 C 
BRANCH  25  30
ATOM      2  S   UNL     1      -2.517 -15.035  11.929  0.00  0.00    -0.102 S 
ATOM     30  C   UNL     1      -1.830 -14.556  13.404  0.00  0.00    -0.008 A 
ATOM     34  C   UNL     1      -1.811 -15.531  14.348  0.00  0.00    +0.011 A 
ATOM     36  C   UNL     1      -2.384 -16.736  13.849  0.00  0.00    +0.008 A 
ATOM     37  C   UNL     1      -2.810 -16.606  12.545  0.00  0.00    +0.045 A 
ENDBRANCH  25  30
ENDBRANCH  23  25
ENDBRANCH   9  23
ENDBRANCH  16  20
BRANCH  15   8
ATOM      5  O   UNL     1      -4.890  -9.152  11.544  0.00  0.00    -0.270 OA
ATOM      8  N   UNL     1      -6.589 -10.663  11.873  0.00  0.00    -0.308 N 
ATOM     24  C   UNL     1      -5.862  -9.763  11.095  0.00  0.00    +0.254 C 
ATOM     38  H   UNL     1      -7.348 -11.187  11.446  0.00  0.00    +0.149 HD
BRANCH  24  27
ATOM      1  S   UNL     1      -5.249 -10.003   8.439  0.00  0.00    +0.041 S 
ATOM     13  N   UNL     1      -7.536  -9.192   7.813  0.00  0.00    -0.146 NA
ATOM     14  N   UNL     1      -6.395  -9.602   7.284  0.00  0.00    -0.110 NA
ATOM     27  C   UNL     1      -6.306  -9.615   9.702  0.00  0.00    +0.117 A 
ATOM     32  C   UNL     1      -7.486  -9.199   9.197  0.00  0.00    +0.081 A 
ATOM     35  C   UNL     1      -8.685  -8.764   9.942  0.00  0.00    +0.069 C 
ENDBRANCH  24  27
ENDBRANCH  15   8
TORSDOF 8
ENDMDL
MODEL 8
REMARK VINA RESULT:      -5.6     25.908     27.879
REMARK  Name = 11882466
REMARK  11 active torsions:
REMARK  status: ('A' for Active; 'I' for Inactive)
REMARK    1  A    between atoms: N_8  and  C_15
REMARK    2  A    between atoms: N_9  and  C_23
REMARK    3  A    between atoms: N_10  and  C_31
REMARK    4  A    between atoms: C_16  and  C_20
REMARK    5  A    between atoms: C_21  and  C_22
REMARK    6  A    between atoms: C_23  and  C_25
REMARK    7  A    between atoms: C_23  and  C_28
REMARK    8  A    between atoms: C_24  and  C_27
REMARK    9  A    between atoms: C_25  and  C_30
REMARK   10  A    between atoms: C_29  and  C_33
REMARK   11  A    between atoms: C_32  and  C_35
REMARK                            x       y       z     vdW  Elec       q    Type
REMARK                         _______ _______ _______ _____ _____    ______ ____
ROOT
ATOM      4  O   UNL     1      -4.264  -8.388  10.222  0.00  0.00    -0.268 OA
ATOM      7  N   UNL     1      -5.125 -10.450   9.589  0.00  0.00    -0.285 N 
ATOM     15  C   UNL     1      -5.459 -12.469   7.497  0.00  0.00    +0.077 C 
ATOM     16  C   UNL     1      -5.281 -10.019   8.194  0.00  0.00    +0.164 C 
ATOM     17  C   UNL     1      -4.893 -11.085   7.170  0.00  0.00    +0.054 C 
ATOM     18  C   UNL     1      -5.103 -12.851   8.932  0.00  0.00    +0.041 C 
ATOM     19  C   UNL     1      -5.600 -11.804   9.922  0.00  0.00    +0.111 C 
ATOM     21  C   UNL     1      -4.655  -9.514  10.539  0.00  0.00    +0.265 C 
ENDROOT
BRANCH  21  22
ATOM     10  N   UNL     1      -5.701  -9.827  12.794  0.00  0.00    -0.262 N 
ATOM     11  N   UNL     1      -5.433 -10.272  14.033  0.00  0.00    -0.176 NA
ATOM     22  C   UNL     1      -4.645  -9.922  11.940  0.00  0.00    +0.123 A 
ATOM     26  C   UNL     1      -3.616 -10.465  12.663  0.00  0.00    +0.057 A 
ATOM     29  C   UNL     1      -4.158 -10.660  13.947  0.00  0.00    +0.061 A 
ATOM     31  C   UNL     1      -7.018  -9.314  12.496  0.00  0.00    +0.173 C 
ATOM     33  C   UNL     1      -3.483 -11.222  15.129  0.00  0.00    +0.067 C 
ENDBRANCH  21  22
BRANCH  16  20
ATOM      3  O   UNL     1      -7.647 -10.349   8.229  0.00  0.00    -0.274 OA
ATOM      9  N   UNL     1      -6.810  -8.253   7.656  0.00  0.00    -0.302 N 
ATOM     20  C   UNL     1      -6.708  -9.579   8.042  0.00  0.00    +0.234 C 
ATOM     39  H   UNL     1      -5.961  -7.734   7.450  0.00  0.00    +0.150 HD
BRANCH   9  23
ATOM     23  C   UNL     1      -8.074  -7.594   7.420  0.00  0.00    +0.163 C 
BRANCH  23  28
ATOM      6  O   UNL     1      -9.436  -7.508   5.409  0.00  0.00    -0.274 OA
ATOM     12  N   UNL     1      -7.165  -7.774   5.189  0.00  0.00    -0.328 N 
ATOM     28  C   UNL     1      -8.325  -7.633   5.920  0.00  0.00    +0.231 C 
ATOM     40  H   UNL     1      -6.253  -7.874   5.623  0.00  0.00    +0.145 HD
ATOM     41  H   UNL     1      -7.190  -7.799   4.174  0.00  0.00    +0.145 HD
ENDBRANCH  23  28
BRANCH  23  25
ATOM     25  C   UNL     1      -8.077  -6.146   7.925  0.00  0.00    +0.074 C 
BRANCH  25  30
ATOM      2  S   UNL     1     -10.446  -6.991   9.062  0.00  0.00    -0.102 S 
ATOM     30  C   UNL     1      -9.397  -5.758   8.551  0.00  0.00    -0.008 A 
ATOM     34  C   UNL     1      -9.872  -4.504   8.764  0.00  0.00    +0.011 A 
ATOM     36  C   UNL     1     -11.158  -4.543   9.378  0.00  0.00    +0.008 A 
ATOM     37  C   UNL     1     -11.589  -5.833   9.595  0.00  0.00    +0.045 A 
ENDBRANCH  25  30
ENDBRANCH  23  25
ENDBRANCH   9  23
ENDBRANCH  16  20
BRANCH  15   8
ATOM      5  O   UNL     1      -6.704 -13.231   5.084  0.00  0.00    -0.270 OA
ATOM      8  N   UNL     1      -4.964 -13.457   6.568  0.00  0.00    -0.308 N 
ATOM     24  C   UNL     1      -5.642 -13.777   5.392  0.00  0.00    +0.254 C 
ATOM     38  H   UNL     1      -4.064 -13.890   6.755  0.00  0.00    +0.149 HD
BRANCH  24  27
ATOM      1  S   UNL     1      -3.916 -14.277   3.328  0.00  0.00    +0.041 S 
ATOM     13  N   UNL     1      -4.329 -16.739   3.547  0.00  0.00    -0.146 NA
ATOM     14  N   UNL     1      -3.643 -15.857   2.840  0.00  0.00    -0.110 NA
ATOM     27  C   UNL     1      -4.996 -14.777   4.531  0.00  0.00    +0.117 A 
ATOM     32  C   UNL     1      -5.104 -16.122   4.515  0.00  0.00    +0.081 A 
ATOM     35  C   UNL     1      -5.935 -16.973   5.392  0.00  0.00    +0.069 C 
ENDBRANCH  24  27
ENDBRANCH  15   8
TORSDOF 8
ENDMDL
MODEL 9
REMARK VINA RESULT:      -5.6     25.849     29.103
REMARK  Name = 11882466
REMARK  11 active torsions:
REMARK  status: ('A' for Active; 'I' for Inactive)
REMARK    1  A    between atoms: N_8  and  C_15
REMARK    2  A    between atoms: N_9  and  C_23
REMARK    3  A    between atoms: N_10  and  C_31
REMARK    4  A    between atoms: C_16  and  C_20
REMARK    5  A    between atoms: C_21  and  C_22
REMARK    6  A    between atoms: C_23  and  C_25
REMARK    7  A    between atoms: C_23  and  C_28
REMARK    8  A    between atoms: C_24  and  C_27
REMARK    9  A    between atoms: C_25  and  C_30
REMARK   10  A    between atoms: C_29  and  C_33
REMARK   11  A    between atoms: C_32  and  C_35
REMARK                            x       y       z     vdW  Elec       q    Type
REMARK                         _______ _______ _______ _____ _____    ______ ____
ROOT
ATOM      4  O   UNL     1      -2.184 -10.241  10.771  0.00  0.00    -0.268 OA
ATOM      7  N   UNL     1      -3.949 -11.196  11.940  0.00  0.00    -0.285 N 
ATOM     15  C   UNL     1      -5.120 -11.918  14.523  0.00  0.00    +0.077 C 
ATOM     16  C   UNL     1      -3.067 -11.623  13.034  0.00  0.00    +0.164 C 
ATOM     17  C   UNL     1      -3.671 -11.435  14.425  0.00  0.00    +0.054 C 
ATOM     18  C   UNL     1      -5.955 -11.287  13.411  0.00  0.00    +0.041 C 
ATOM     19  C   UNL     1      -5.365 -11.589  12.038  0.00  0.00    +0.111 C 
ATOM     21  C   UNL     1      -3.375 -10.556  10.818  0.00  0.00    +0.265 C 
ENDROOT
BRANCH  21  22
ATOM     10  N   UNL     1      -5.057  -9.181   9.569  0.00  0.00    -0.262 N 
ATOM     11  N   UNL     1      -5.762  -9.151   8.425  0.00  0.00    -0.176 NA
ATOM     22  C   UNL     1      -4.249 -10.270   9.684  0.00  0.00    +0.123 A 
ATOM     26  C   UNL     1      -4.433 -11.005   8.543  0.00  0.00    +0.057 A 
ATOM     29  C   UNL     1      -5.377 -10.269   7.803  0.00  0.00    +0.061 A 
ATOM     31  C   UNL     1      -5.213  -8.109  10.524  0.00  0.00    +0.173 C 
ATOM     33  C   UNL     1      -5.939 -10.602   6.483  0.00  0.00    +0.067 C 
ENDBRANCH  21  22
BRANCH  16  20
ATOM      3  O   UNL     1      -2.814 -13.544  11.635  0.00  0.00    -0.274 OA
ATOM      9  N   UNL     1      -2.294 -13.721  13.897  0.00  0.00    -0.302 N 
ATOM     20  C   UNL     1      -2.711 -13.055  12.758  0.00  0.00    +0.234 C 
ATOM     39  H   UNL     1      -2.327 -13.237  14.790  0.00  0.00    +0.150 HD
BRANCH   9  23
ATOM     23  C   UNL     1      -1.916 -15.116  13.904  0.00  0.00    +0.163 C 
BRANCH  23  28
ATOM      6  O   UNL     1       0.460 -14.799  13.505  0.00  0.00    -0.274 OA
ATOM     12  N   UNL     1      -0.778 -15.922  11.930  0.00  0.00    -0.328 N 
ATOM     28  C   UNL     1      -0.621 -15.232  13.113  0.00  0.00    +0.231 C 
ATOM     40  H   UNL     1      -1.676 -16.277  11.619  0.00  0.00    +0.145 HD
ATOM     41  H   UNL     1       0.012 -16.084  11.314  0.00  0.00    +0.145 HD
ENDBRANCH  23  28
BRANCH  23  25
ATOM     25  C   UNL     1      -2.999 -16.013  13.291  0.00  0.00    +0.074 C 
BRANCH  25  30
ATOM      2  S   UNL     1      -5.683 -16.013  13.932  0.00  0.00    -0.102 S 
ATOM     30  C   UNL     1      -4.068 -16.388  14.292  0.00  0.00    -0.008 A 
ATOM     34  C   UNL     1      -3.897 -17.008  15.488  0.00  0.00    +0.011 A 
ATOM     36  C   UNL     1      -5.145 -17.191  16.151  0.00  0.00    +0.008 A 
ATOM     37  C   UNL     1      -6.199 -16.696  15.416  0.00  0.00    +0.045 A 
ENDBRANCH  25  30
ENDBRANCH  23  25
ENDBRANCH   9  23
ENDBRANCH  16  20
BRANCH  15   8
ATOM      5  O   UNL     1      -5.131 -13.629  16.765  0.00  0.00    -0.270 OA
ATOM      8  N   UNL     1      -5.676 -11.608  15.819  0.00  0.00    -0.308 N 
ATOM     24  C   UNL     1      -5.640 -12.513  16.879  0.00  0.00    +0.254 C 
ATOM     38  H   UNL     1      -6.055 -10.677  15.973  0.00  0.00    +0.149 HD
BRANCH  24  27
ATOM      1  S   UNL     1      -7.881 -11.755  18.255  0.00  0.00    +0.041 S 
ATOM     13  N   UNL     1      -6.508 -11.336  20.309  0.00  0.00    -0.146 NA
ATOM     14  N   UNL     1      -7.751 -11.285  19.858  0.00  0.00    -0.110 NA
ATOM     27  C   UNL     1      -6.217 -12.039  18.145  0.00  0.00    +0.117 A 
ATOM     32  C   UNL     1      -5.629 -11.768  19.329  0.00  0.00    +0.081 A 
ATOM     35  C   UNL     1      -4.197 -11.879  19.675  0.00  0.00    +0.069 C 
ENDBRANCH  24  27
ENDBRANCH  15   8
TORSDOF 8
ENDMDL
MODEL 10
REMARK VINA RESULT:      -5.5      3.723      6.705
REMARK  Name = 11882466
REMARK  11 active torsions:
REMARK  status: ('A' for Active; 'I' for Inactive)
REMARK    1  A    between atoms: N_8  and  C_15
REMARK    2  A    between atoms: N_9  and  C_23
REMARK    3  A    between atoms: N_10  and  C_31
REMARK    4  A    between atoms: C_16  and  C_20
REMARK    5  A    between atoms: C_21  and  C_22
REMARK    6  A    between atoms: C_23  and  C_25
REMARK    7  A    between atoms: C_23  and  C_28
REMARK    8  A    between atoms: C_24  and  C_27
REMARK    9  A    between atoms: C_25  and  C_30
REMARK   10  A    between atoms: C_29  and  C_33
REMARK   11  A    between atoms: C_32  and  C_35
REMARK                            x       y       z     vdW  Elec       q    Type
REMARK                         _______ _______ _______ _____ _____    ______ ____
ROOT
ATOM      4  O   UNL     1      11.204   3.768   1.682  0.00  0.00    -0.268 OA
ATOM      7  N   UNL     1      12.568   5.554   1.098  0.00  0.00    -0.285 N 
ATOM     15  C   UNL     1      15.110   6.962   1.452  0.00  0.00    +0.077 C 
ATOM     16  C   UNL     1      13.194   5.583   2.427  0.00  0.00    +0.164 C 
ATOM     17  C   UNL     1      14.702   5.827   2.394  0.00  0.00    +0.054 C 
ATOM     18  C   UNL     1      14.504   6.732   0.069  0.00  0.00    +0.041 C 
ATOM     19  C   UNL     1      12.988   6.595   0.145  0.00  0.00    +0.111 C 
ATOM     21  C   UNL     1      11.528   4.628   0.859  0.00  0.00    +0.265 C 
ENDROOT
BRANCH  21  22
ATOM     10  N   UNL     1      11.134   4.002  -1.535  0.00  0.00    -0.262 N 
ATOM     11  N   UNL     1      10.334   4.266  -2.581  0.00  0.00    -0.176 NA
ATOM     22  C   UNL     1      10.826   4.715  -0.417  0.00  0.00    +0.123 A 
ATOM     26  C   UNL     1       9.752   5.499  -0.748  0.00  0.00    +0.057 A 
ATOM     29  C   UNL     1       9.491   5.181  -2.095  0.00  0.00    +0.061 A 
ATOM     31  C   UNL     1      12.197   3.035  -1.684  0.00  0.00    +0.173 C 
ATOM     33  C   UNL     1       8.435   5.735  -2.958  0.00  0.00    +0.067 C 
ENDBRANCH  21  22
BRANCH  16  20
ATOM      3  O   UNL     1      11.780   7.493   2.673  0.00  0.00    -0.274 OA
ATOM      9  N   UNL     1      12.686   6.508   4.578  0.00  0.00    -0.302 N 
ATOM     20  C   UNL     1      12.466   6.631   3.217  0.00  0.00    +0.234 C 
ATOM     39  H   UNL     1      13.340   5.804   4.910  0.00  0.00    +0.150 HD
BRANCH   9  23
ATOM     23  C   UNL     1      12.117   7.408   5.555  0.00  0.00    +0.163 C 
BRANCH  23  28
ATOM      6  O   UNL     1      13.485   6.455   7.322  0.00  0.00    -0.274 OA
ATOM     12  N   UNL     1      13.483   8.734   7.042  0.00  0.00    -0.328 N 
ATOM     28  C   UNL     1      13.077   7.454   6.734  0.00  0.00    +0.231 C 
ATOM     40  H   UNL     1      13.141   9.551   6.547  0.00  0.00    +0.145 HD
ATOM     41  H   UNL     1      14.138   8.905   7.800  0.00  0.00    +0.145 HD
ENDBRANCH  23  28
BRANCH  23  25
ATOM     25  C   UNL     1      10.724   6.960   6.016  0.00  0.00    +0.074 C 
BRANCH  25  30
ATOM      2  S   UNL     1       9.524   9.440   5.855  0.00  0.00    -0.102 S 
ATOM     30  C   UNL     1       9.622   7.803   5.417  0.00  0.00    -0.008 A 
ATOM     34  C   UNL     1       8.662   7.405   4.544  0.00  0.00    +0.011 A 
ATOM     36  C   UNL     1       7.798   8.488   4.207  0.00  0.00    +0.008 A 
ATOM     37  C   UNL     1       8.153   9.653   4.850  0.00  0.00    +0.045 A 
ENDBRANCH  25  30
ENDBRANCH  23  25
ENDBRANCH   9  23
ENDBRANCH  16  20
BRANCH  15   8
ATOM      5  O   UNL     1      16.655   9.143   2.352  0.00  0.00    -0.270 OA
ATOM      8  N   UNL     1      16.547   7.068   1.370  0.00  0.00    -0.308 N 
ATOM     24  C   UNL     1      17.237   8.185   1.840  0.00  0.00    +0.254 C 
ATOM     38  H   UNL     1      17.071   6.277   1.006  0.00  0.00    +0.149 HD
BRANCH  24  27
ATOM      1  S   UNL     1      19.421   8.273   0.193  0.00  0.00    +0.041 S 
ATOM     13  N   UNL     1      20.947   7.978   2.158  0.00  0.00    -0.146 NA
ATOM     14  N   UNL     1      20.958   8.127   0.844  0.00  0.00    -0.110 NA
ATOM     27  C   UNL     1      18.701   8.131   1.717  0.00  0.00    +0.117 A 
ATOM     32  C   UNL     1      19.655   7.980   2.659  0.00  0.00    +0.081 A 
ATOM     35  C   UNL     1      19.471   7.821   4.116  0.00  0.00    +0.069 C 
ENDBRANCH  24  27
ENDBRANCH  15   8
TORSDOF 8
ENDMDL
