MODEL 1
REMARK VINA RESULT:      -5.9      0.000      0.000
REMARK  Name = 45360615
REMARK  10 active torsions:
REMARK  status: ('A' for Active; 'I' for Inactive)
REMARK    1  A    between atoms: S_2  and  N_7
REMARK    2  A    between atoms: S_2  and  C_16
REMARK    3  A    between atoms: O_5  and  C_17
REMARK    4  A    between atoms: O_5  and  C_32
REMARK    5  A    between atoms: N_8  and  C_18
REMARK    6  A    between atoms: N_10  and  C_25
REMARK    7  A    between atoms: N_10  and  C_35
REMARK    8  A    between atoms: N_10  and  C_36
REMARK    9  A    between atoms: C_11  and  C_17
REMARK   10  A    between atoms: C_18  and  C_23
REMARK                            x       y       z     vdW  Elec       q    Type
REMARK                         _______ _______ _______ _____ _____    ______ ____
ROOT
ATOM      7  N   UNL     1      12.283   5.507   1.622  0.00  0.00    -0.157 NA
ATOM      8  N   UNL     1      15.200   7.329   3.093  0.00  0.00    -0.328 N 
ATOM      9  N   UNL     1      15.716   7.760   0.963  0.00  0.00    -0.240 NA
ATOM     11  C   UNL     1      12.962   5.231   0.304  0.00  0.00    +0.194 C 
ATOM     12  C   UNL     1      13.191   5.789   2.795  0.00  0.00    +0.165 C 
ATOM     13  C   UNL     1      13.881   6.394  -0.124  0.00  0.00    +0.089 C 
ATOM     14  C   UNL     1      14.292   6.655   2.334  0.00  0.00    +0.057 A 
ATOM     15  C   UNL     1      14.633   6.930   1.032  0.00  0.00    +0.066 A 
ATOM     19  C   UNL     1      16.037   7.981   2.223  0.00  0.00    +0.200 A 
ENDROOT
BRANCH   7   2
ATOM      2  S   UNL     1      10.893   4.572   1.979  0.00  0.00    +0.062 S 
ATOM      3  O   UNL     1      11.276   3.460   2.821  0.00  0.00    -0.153 OA
ATOM      4  O   UNL     1      10.143   4.361   0.759  0.00  0.00    -0.153 OA
BRANCH   2  16
ATOM     16  C   UNL     1       9.997   5.721   2.975  0.00  0.00    +0.113 A 
ATOM     20  C   UNL     1       9.501   6.937   2.476  0.00  0.00    +0.010 A 
ATOM     21  C   UNL     1       9.796   5.365   4.309  0.00  0.00    +0.029 A 
ATOM     22  C   UNL     1       8.791   7.803   3.342  0.00  0.00    +0.005 A 
ATOM     24  C   UNL     1       9.693   7.311   1.136  0.00  0.00    +0.010 A 
ATOM     25  C   UNL     1       8.294   9.017   2.842  0.00  0.00    +0.037 A 
ATOM     26  C   UNL     1       9.099   6.217   5.160  0.00  0.00    +0.003 A 
ATOM     27  C   UNL     1       8.598   7.428   4.681  0.00  0.00    +0.010 A 
ATOM     28  C   UNL     1       9.192   8.522   0.656  0.00  0.00    +0.002 A 
ATOM     29  C   UNL     1       8.495   9.374   1.508  0.00  0.00    +0.024 A 
BRANCH  25  10
ATOM     10  N   UNL     1       7.578   9.920   3.665  0.00  0.00    -0.336 N 
ATOM     35  C   UNL     1       8.286  10.812   4.556  0.00  0.00    +0.129 C 
ATOM     36  C   UNL     1       6.132   9.962   3.614  0.00  0.00    +0.129 C 
ENDBRANCH  25  10
ENDBRANCH   2  16
ENDBRANCH   7   2
BRANCH  11  17
ATOM      6  O   UNL     1      14.811   3.819   0.913  0.00  0.00    -0.249 OA
ATOM     17  C   UNL     1      13.704   3.937   0.405  0.00  0.00    +0.326 C 
BRANCH  17   5
ATOM      5  O   UNL     1      12.958   2.938  -0.149  0.00  0.00    -0.467 OA
ATOM     32  C   UNL     1      12.582   3.136  -1.515  0.00  0.00    +0.280 C 
ENDBRANCH  17   5
ENDBRANCH  11  17
BRANCH   8  18
ATOM     18  C   UNL     1      15.284   7.357   4.534  0.00  0.00    +0.158 C 
BRANCH  18  23
ATOM      1 CL   UNL     1      10.255   9.339   7.181  0.00  0.00    -0.084 Cl
ATOM     23  C   UNL     1      14.023   7.854   5.197  0.00  0.00    -0.028 A 
ATOM     30  C   UNL     1      13.458   7.133   6.248  0.00  0.00    +0.007 A 
ATOM     31  C   UNL     1      13.423   9.034   4.758  0.00  0.00    +0.007 A 
ATOM     33  C   UNL     1      12.292   7.592   6.861  0.00  0.00    +0.020 A 
ATOM     34  C   UNL     1      12.257   9.493   5.370  0.00  0.00    +0.020 A 
ATOM     37  C   UNL     1      11.692   8.772   6.422  0.00  0.00    +0.041 A 
ENDBRANCH  18  23
ENDBRANCH   8  18
TORSDOF 7
ENDMDL
MODEL 2
REMARK VINA RESULT:      -5.8     27.299     30.002
REMARK  Name = 45360615
REMARK  10 active torsions:
REMARK  status: ('A' for Active; 'I' for Inactive)
REMARK    1  A    between atoms: S_2  and  N_7
REMARK    2  A    between atoms: S_2  and  C_16
REMARK    3  A    between atoms: O_5  and  C_17
REMARK    4  A    between atoms: O_5  and  C_32
REMARK    5  A    between atoms: N_8  and  C_18
REMARK    6  A    between atoms: N_10  and  C_25
REMARK    7  A    between atoms: N_10  and  C_35
REMARK    8  A    between atoms: N_10  and  C_36
REMARK    9  A    between atoms: C_11  and  C_17
REMARK   10  A    between atoms: C_18  and  C_23
REMARK                            x       y       z     vdW  Elec       q    Type
REMARK                         _______ _______ _______ _____ _____    ______ ____
ROOT
ATOM      7  N   UNL     1      -9.165 -10.563  17.416  0.00  0.00    -0.157 NA
ATOM      8  N   UNL     1      -5.605 -11.710  17.366  0.00  0.00    -0.328 N 
ATOM      9  N   UNL     1      -6.501 -13.757  17.407  0.00  0.00    -0.240 NA
ATOM     11  C   UNL     1      -9.686 -11.807  18.090  0.00  0.00    +0.194 C 
ATOM     12  C   UNL     1      -7.696 -10.270  17.598  0.00  0.00    +0.165 C 
ATOM     13  C   UNL     1      -8.928 -13.071  17.631  0.00  0.00    +0.089 C 
ATOM     14  C   UNL     1      -6.950 -11.539  17.489  0.00  0.00    +0.057 A 
ATOM     15  C   UNL     1      -7.477 -12.807  17.517  0.00  0.00    +0.066 A 
ATOM     19  C   UNL     1      -5.382 -13.064  17.320  0.00  0.00    +0.200 A 
ENDROOT
BRANCH   7   2
ATOM      2  S   UNL     1     -10.193  -9.193  17.432  0.00  0.00    +0.062 S 
ATOM      3  O   UNL     1      -9.405  -8.016  17.730  0.00  0.00    -0.153 OA
ATOM      4  O   UNL     1     -11.382  -9.507  18.195  0.00  0.00    -0.153 OA
BRANCH   2  16
ATOM     16  C   UNL     1     -10.643  -9.125  15.727  0.00  0.00    +0.113 A 
ATOM     20  C   UNL     1     -11.519  -8.157  15.209  0.00  0.00    +0.010 A 
ATOM     21  C   UNL     1     -10.080 -10.093  14.895  0.00  0.00    +0.029 A 
ATOM     22  C   UNL     1     -11.828  -8.172  13.828  0.00  0.00    +0.005 A 
ATOM     24  C   UNL     1     -12.094  -7.175  16.032  0.00  0.00    +0.010 A 
ATOM     25  C   UNL     1     -12.703  -7.203  13.311  0.00  0.00    +0.037 A 
ATOM     26  C   UNL     1     -10.385 -10.107  13.537  0.00  0.00    +0.003 A 
ATOM     27  C   UNL     1     -11.252  -9.153  13.005  0.00  0.00    +0.010 A 
ATOM     28  C   UNL     1     -12.963  -6.220  15.500  0.00  0.00    +0.002 A 
ATOM     29  C   UNL     1     -13.267  -6.235  14.142  0.00  0.00    +0.024 A 
BRANCH  25  10
ATOM     10  N   UNL     1     -13.046  -7.172  11.937  0.00  0.00    -0.336 N 
ATOM     35  C   UNL     1     -14.141  -7.977  11.441  0.00  0.00    +0.129 C 
ATOM     36  C   UNL     1     -12.310  -6.328  11.021  0.00  0.00    +0.129 C 
ENDBRANCH  25  10
ENDBRANCH   2  16
ENDBRANCH   7   2
BRANCH  11  17
ATOM      6  O   UNL     1      -8.982 -10.727  20.120  0.00  0.00    -0.249 OA
ATOM     17  C   UNL     1      -9.617 -11.617  19.572  0.00  0.00    +0.326 C 
BRANCH  17   5
ATOM      5  O   UNL     1     -10.363 -12.578  20.190  0.00  0.00    -0.467 OA
ATOM     32  C   UNL     1     -11.732 -12.238  20.425  0.00  0.00    +0.280 C 
ENDBRANCH  17   5
ENDBRANCH  11  17
BRANCH   8  18
ATOM     18  C   UNL     1      -4.595 -10.681  17.303  0.00  0.00    +0.158 C 
BRANCH  18  23
ATOM      1 CL   UNL     1      -1.709 -10.494  12.025  0.00  0.00    -0.084 Cl
ATOM     23  C   UNL     1      -3.872 -10.634  15.980  0.00  0.00    -0.028 A 
ATOM     30  C   UNL     1      -2.478 -10.619  15.948  0.00  0.00    +0.007 A 
ATOM     31  C   UNL     1      -4.597 -10.604  14.789  0.00  0.00    +0.007 A 
ATOM     33  C   UNL     1      -1.808 -10.575  14.725  0.00  0.00    +0.020 A 
ATOM     34  C   UNL     1      -3.929 -10.559  13.566  0.00  0.00    +0.020 A 
ATOM     37  C   UNL     1      -2.535 -10.545  13.534  0.00  0.00    +0.041 A 
ENDBRANCH  18  23
ENDBRANCH   8  18
TORSDOF 7
ENDMDL
MODEL 3
REMARK VINA RESULT:      -5.7      3.400      5.877
REMARK  Name = 45360615
REMARK  10 active torsions:
REMARK  status: ('A' for Active; 'I' for Inactive)
REMARK    1  A    between atoms: S_2  and  N_7
REMARK    2  A    between atoms: S_2  and  C_16
REMARK    3  A    between atoms: O_5  and  C_17
REMARK    4  A    between atoms: O_5  and  C_32
REMARK    5  A    between atoms: N_8  and  C_18
REMARK    6  A    between atoms: N_10  and  C_25
REMARK    7  A    between atoms: N_10  and  C_35
REMARK    8  A    between atoms: N_10  and  C_36
REMARK    9  A    between atoms: C_11  and  C_17
REMARK   10  A    between atoms: C_18  and  C_23
REMARK                            x       y       z     vdW  Elec       q    Type
REMARK                         _______ _______ _______ _____ _____    ______ ____
ROOT
ATOM      7  N   UNL     1      11.709   6.525   5.329  0.00  0.00    -0.157 NA
ATOM      8  N   UNL     1      14.791   8.299   4.168  0.00  0.00    -0.328 N 
ATOM      9  N   UNL     1      15.577   7.783   6.195  0.00  0.00    -0.240 NA
ATOM     11  C   UNL     1      11.965   6.777   6.793  0.00  0.00    +0.194 C 
ATOM     12  C   UNL     1      12.391   7.461   4.361  0.00  0.00    +0.165 C 
ATOM     13  C   UNL     1      13.471   6.732   7.129  0.00  0.00    +0.089 C 
ATOM     14  C   UNL     1      13.765   7.707   4.840  0.00  0.00    +0.057 A 
ATOM     15  C   UNL     1      14.270   7.404   6.081  0.00  0.00    +0.066 A 
ATOM     19  C   UNL     1      15.862   8.322   5.026  0.00  0.00    +0.200 A 
ENDROOT
BRANCH   7   2
ATOM      2  S   UNL     1      10.119   6.056   4.898  0.00  0.00    +0.062 S 
ATOM      3  O   UNL     1       9.285   7.237   4.816  0.00  0.00    -0.153 OA
ATOM      4  O   UNL     1       9.728   4.922   5.706  0.00  0.00    -0.153 OA
BRANCH   2  16
ATOM     16  C   UNL     1      10.402   5.480   3.254  0.00  0.00    +0.113 A 
ATOM     20  C   UNL     1      10.090   6.241   2.116  0.00  0.00    +0.010 A 
ATOM     21  C   UNL     1      10.964   4.209   3.127  0.00  0.00    +0.029 A 
ATOM     22  C   UNL     1      10.349   5.706   0.832  0.00  0.00    +0.005 A 
ATOM     24  C   UNL     1       9.525   7.523   2.225  0.00  0.00    +0.010 A 
ATOM     25  C   UNL     1      10.037   6.468  -0.305  0.00  0.00    +0.037 A 
ATOM     26  C   UNL     1      11.218   3.682   1.865  0.00  0.00    +0.003 A 
ATOM     27  C   UNL     1      10.915   4.425   0.723  0.00  0.00    +0.010 A 
ATOM     28  C   UNL     1       9.221   8.266   1.083  0.00  0.00    +0.002 A 
ATOM     29  C   UNL     1       9.476   7.739  -0.180  0.00  0.00    +0.024 A 
BRANCH  25  10
ATOM     10  N   UNL     1      10.277   5.980  -1.614  0.00  0.00    -0.336 N 
ATOM     35  C   UNL     1      11.549   6.222  -2.259  0.00  0.00    +0.129 C 
ATOM     36  C   UNL     1       9.254   5.231  -2.311  0.00  0.00    +0.129 C 
ENDBRANCH  25  10
ENDBRANCH   2  16
ENDBRANCH   7   2
BRANCH  11  17
ATOM      6  O   UNL     1      11.799   9.174   6.867  0.00  0.00    -0.249 OA
ATOM     17  C   UNL     1      11.343   8.081   7.175  0.00  0.00    +0.326 C 
BRANCH  17   5
ATOM      5  O   UNL     1      10.213   7.852   7.903  0.00  0.00    -0.467 OA
ATOM     32  C   UNL     1       9.246   8.907   7.887  0.00  0.00    +0.280 C 
ENDBRANCH  17   5
ENDBRANCH  11  17
BRANCH   8  18
ATOM     18  C   UNL     1      14.771   8.815   2.821  0.00  0.00    +0.158 C 
BRANCH  18  23
ATOM      1 CL   UNL     1      15.805   4.608  -1.357  0.00  0.00    -0.084 Cl
ATOM     23  C   UNL     1      15.030   7.761   1.773  0.00  0.00    -0.028 A 
ATOM     30  C   UNL     1      16.318   7.577   1.273  0.00  0.00    +0.007 A 
ATOM     31  C   UNL     1      13.980   6.971   1.304  0.00  0.00    +0.007 A 
ATOM     33  C   UNL     1      16.559   6.602   0.304  0.00  0.00    +0.020 A 
ATOM     34  C   UNL     1      14.219   5.997   0.336  0.00  0.00    +0.020 A 
ATOM     37  C   UNL     1      15.508   5.812  -0.164  0.00  0.00    +0.041 A 
ENDBRANCH  18  23
ENDBRANCH   8  18
TORSDOF 7
ENDMDL
MODEL 4
REMARK VINA RESULT:      -5.6     26.069     29.217
REMARK  Name = 45360615
REMARK  10 active torsions:
REMARK  status: ('A' for Active; 'I' for Inactive)
REMARK    1  A    between atoms: S_2  and  N_7
REMARK    2  A    between atoms: S_2  and  C_16
REMARK    3  A    between atoms: O_5  and  C_17
REMARK    4  A    between atoms: O_5  and  C_32
REMARK    5  A    between atoms: N_8  and  C_18
REMARK    6  A    between atoms: N_10  and  C_25
REMARK    7  A    between atoms: N_10  and  C_35
REMARK    8  A    between atoms: N_10  and  C_36
REMARK    9  A    between atoms: C_11  and  C_17
REMARK   10  A    between atoms: C_18  and  C_23
REMARK                            x       y       z     vdW  Elec       q    Type
REMARK                         _______ _______ _______ _____ _____    ______ ____
ROOT
ATOM      7  N   UNL     1      -6.848 -10.586  17.240  0.00  0.00    -0.157 NA
ATOM      8  N   UNL     1      -8.721 -10.075  14.042  0.00  0.00    -0.328 N 
ATOM      9  N   UNL     1      -9.783  -8.474  15.184  0.00  0.00    -0.240 NA
ATOM     11  C   UNL     1      -7.948 -10.041  18.116  0.00  0.00    +0.194 C 
ATOM     12  C   UNL     1      -7.264 -11.082  15.876  0.00  0.00    +0.165 C 
ATOM     13  C   UNL     1      -8.699  -8.875  17.437  0.00  0.00    +0.089 C 
ATOM     14  C   UNL     1      -8.255 -10.141  15.321  0.00  0.00    +0.057 A 
ATOM     15  C   UNL     1      -8.924  -9.153  16.002  0.00  0.00    +0.066 A 
ATOM     19  C   UNL     1      -9.639  -9.056  14.009  0.00  0.00    +0.200 A 
ENDROOT
BRANCH   7   2
ATOM      2  S   UNL     1      -5.636 -11.513  18.018  0.00  0.00    +0.062 S 
ATOM      3  O   UNL     1      -6.184 -12.807  18.367  0.00  0.00    -0.153 OA
ATOM      4  O   UNL     1      -4.979 -10.689  19.010  0.00  0.00    -0.153 OA
BRANCH   2  16
ATOM     16  C   UNL     1      -4.515 -11.744  16.675  0.00  0.00    +0.113 A 
ATOM     20  C   UNL     1      -4.419 -12.951  15.963  0.00  0.00    +0.010 A 
ATOM     21  C   UNL     1      -3.710 -10.654  16.341  0.00  0.00    +0.029 A 
ATOM     22  C   UNL     1      -3.494 -13.054  14.897  0.00  0.00    +0.005 A 
ATOM     24  C   UNL     1      -5.222 -14.057  16.286  0.00  0.00    +0.010 A 
ATOM     25  C   UNL     1      -3.399 -14.260  14.185  0.00  0.00    +0.037 A 
ATOM     26  C   UNL     1      -2.800 -10.756  15.293  0.00  0.00    +0.003 A 
ATOM     27  C   UNL     1      -2.692 -11.947  14.574  0.00  0.00    +0.010 A 
ATOM     28  C   UNL     1      -5.114 -15.249  15.567  0.00  0.00    +0.002 A 
ATOM     29  C   UNL     1      -4.203 -15.350  14.519  0.00  0.00    +0.024 A 
BRANCH  25  10
ATOM     10  N   UNL     1      -2.490 -14.417  13.110  0.00  0.00    -0.336 N 
ATOM     35  C   UNL     1      -1.127 -14.830  13.363  0.00  0.00    +0.129 C 
ATOM     36  C   UNL     1      -2.921 -14.175  11.750  0.00  0.00    +0.129 C 
ENDBRANCH  25  10
ENDBRANCH   2  16
ENDBRANCH   7   2
BRANCH  11  17
ATOM      6  O   UNL     1      -9.293 -11.990  17.699  0.00  0.00    -0.249 OA
ATOM     17  C   UNL     1      -8.867 -11.159  18.490  0.00  0.00    +0.326 C 
BRANCH  17   5
ATOM      5  O   UNL     1      -9.141 -11.098  19.824  0.00  0.00    -0.467 OA
ATOM     32  C   UNL     1     -10.437 -10.594  20.164  0.00  0.00    +0.280 C 
ENDBRANCH  17   5
ENDBRANCH  11  17
BRANCH   8  18
ATOM     18  C   UNL     1      -8.341 -10.913  12.930  0.00  0.00    +0.158 C 
BRANCH  18  23
ATOM      1 CL   UNL     1      -3.101  -9.327  10.430  0.00  0.00    -0.084 Cl
ATOM     23  C   UNL     1      -7.028 -10.515  12.304  0.00  0.00    -0.028 A 
ATOM     30  C   UNL     1      -5.944 -11.391  12.342  0.00  0.00    +0.007 A 
ATOM     31  C   UNL     1      -6.898  -9.271  11.686  0.00  0.00    +0.007 A 
ATOM     33  C   UNL     1      -4.728 -11.023  11.764  0.00  0.00    +0.020 A 
ATOM     34  C   UNL     1      -5.684  -8.903  11.108  0.00  0.00    +0.020 A 
ATOM     37  C   UNL     1      -4.599  -9.779  11.147  0.00  0.00    +0.041 A 
ENDBRANCH  18  23
ENDBRANCH   8  18
TORSDOF 7
ENDMDL
MODEL 5
REMARK VINA RESULT:      -5.6     24.985     27.578
REMARK  Name = 45360615
REMARK  10 active torsions:
REMARK  status: ('A' for Active; 'I' for Inactive)
REMARK    1  A    between atoms: S_2  and  N_7
REMARK    2  A    between atoms: S_2  and  C_16
REMARK    3  A    between atoms: O_5  and  C_17
REMARK    4  A    between atoms: O_5  and  C_32
REMARK    5  A    between atoms: N_8  and  C_18
REMARK    6  A    between atoms: N_10  and  C_25
REMARK    7  A    between atoms: N_10  and  C_35
REMARK    8  A    between atoms: N_10  and  C_36
REMARK    9  A    between atoms: C_11  and  C_17
REMARK   10  A    between atoms: C_18  and  C_23
REMARK                            x       y       z     vdW  Elec       q    Type
REMARK                         _______ _______ _______ _____ _____    ______ ____
ROOT
ATOM      7  N   UNL     1      -5.668 -11.887  15.167  0.00  0.00    -0.157 NA
ATOM      8  N   UNL     1      -2.413 -11.877  13.323  0.00  0.00    -0.328 N 
ATOM      9  N   UNL     1      -2.224 -13.961  14.104  0.00  0.00    -0.240 NA
ATOM     11  C   UNL     1      -5.241 -12.931  16.167  0.00  0.00    +0.194 C 
ATOM     12  C   UNL     1      -4.559 -11.129  14.478  0.00  0.00    +0.165 C 
ATOM     13  C   UNL     1      -4.316 -13.991  15.531  0.00  0.00    +0.089 C 
ATOM     14  C   UNL     1      -3.484 -12.080  14.140  0.00  0.00    +0.057 A 
ATOM     15  C   UNL     1      -3.343 -13.363  14.610  0.00  0.00    +0.066 A 
ATOM     19  C   UNL     1      -1.683 -13.039  13.334  0.00  0.00    +0.200 A 
ENDROOT
BRANCH   7   2
ATOM      2  S   UNL     1      -7.050 -10.958  15.570  0.00  0.00    +0.062 S 
ATOM      3  O   UNL     1      -6.669  -9.565  15.669  0.00  0.00    -0.153 OA
ATOM      4  O   UNL     1      -7.759 -11.615  16.646  0.00  0.00    -0.153 OA
BRANCH   2  16
ATOM     16  C   UNL     1      -7.996 -11.157  14.094  0.00  0.00    +0.113 A 
ATOM     20  C   UNL     1      -7.733 -10.435  12.918  0.00  0.00    +0.010 A 
ATOM     21  C   UNL     1      -9.040 -12.081  14.143  0.00  0.00    +0.029 A 
ATOM     22  C   UNL     1      -8.540 -10.655  11.776  0.00  0.00    +0.005 A 
ATOM     24  C   UNL     1      -6.686  -9.502  12.851  0.00  0.00    +0.010 A 
ATOM     25  C   UNL     1      -8.275  -9.934  10.600  0.00  0.00    +0.037 A 
ATOM     26  C   UNL     1      -9.834 -12.296  13.020  0.00  0.00    +0.003 A 
ATOM     27  C   UNL     1      -9.586 -11.589  11.843  0.00  0.00    +0.010 A 
ATOM     28  C   UNL     1      -6.437  -8.794  11.673  0.00  0.00    +0.002 A 
ATOM     29  C   UNL     1      -7.231  -9.010  10.551  0.00  0.00    +0.024 A 
BRANCH  25  10
ATOM     10  N   UNL     1      -9.051 -10.115   9.429  0.00  0.00    -0.336 N 
ATOM     35  C   UNL     1      -8.670 -11.109   8.450  0.00  0.00    +0.129 C 
ATOM     36  C   UNL     1     -10.234  -9.312   9.208  0.00  0.00    +0.129 C 
ENDBRANCH  25  10
ENDBRANCH   2  16
ENDBRANCH   7   2
BRANCH  11  17
ATOM      6  O   UNL     1      -3.701 -11.422  17.232  0.00  0.00    -0.249 OA
ATOM     17  C   UNL     1      -4.597 -12.250  17.331  0.00  0.00    +0.326 C 
BRANCH  17   5
ATOM      5  O   UNL     1      -5.163 -12.695  18.490  0.00  0.00    -0.467 OA
ATOM     32  C   UNL     1      -5.570 -11.676  19.408  0.00  0.00    +0.280 C 
ENDBRANCH  17   5
ENDBRANCH  11  17
BRANCH   8  18
ATOM     18  C   UNL     1      -2.089 -10.677  12.590  0.00  0.00    +0.158 C 
BRANCH  18  23
ATOM      1 CL   UNL     1      -5.215 -10.087   7.480  0.00  0.00    -0.084 Cl
ATOM     23  C   UNL     1      -2.873 -10.529  11.309  0.00  0.00    -0.028 A 
ATOM     30  C   UNL     1      -2.878  -9.310  10.632  0.00  0.00    +0.007 A 
ATOM     31  C   UNL     1      -3.593 -11.611  10.803  0.00  0.00    +0.007 A 
ATOM     33  C   UNL     1      -3.603  -9.173   9.448  0.00  0.00    +0.020 A 
ATOM     34  C   UNL     1      -4.318 -11.475   9.621  0.00  0.00    +0.020 A 
ATOM     37  C   UNL     1      -4.323 -10.256   8.942  0.00  0.00    +0.041 A 
ENDBRANCH  18  23
ENDBRANCH   8  18
TORSDOF 7
ENDMDL
MODEL 6
REMARK VINA RESULT:      -5.6     25.454     28.078
REMARK  Name = 45360615
REMARK  10 active torsions:
REMARK  status: ('A' for Active; 'I' for Inactive)
REMARK    1  A    between atoms: S_2  and  N_7
REMARK    2  A    between atoms: S_2  and  C_16
REMARK    3  A    between atoms: O_5  and  C_17
REMARK    4  A    between atoms: O_5  and  C_32
REMARK    5  A    between atoms: N_8  and  C_18
REMARK    6  A    between atoms: N_10  and  C_25
REMARK    7  A    between atoms: N_10  and  C_35
REMARK    8  A    between atoms: N_10  and  C_36
REMARK    9  A    between atoms: C_11  and  C_17
REMARK   10  A    between atoms: C_18  and  C_23
REMARK                            x       y       z     vdW  Elec       q    Type
REMARK                         _______ _______ _______ _____ _____    ______ ____
ROOT
ATOM      7  N   UNL     1      -6.073 -11.331  15.292  0.00  0.00    -0.157 NA
ATOM      8  N   UNL     1      -3.693 -11.340  12.406  0.00  0.00    -0.328 N 
ATOM      9  N   UNL     1      -3.643 -13.548  12.747  0.00  0.00    -0.240 NA
ATOM     11  C   UNL     1      -5.535 -12.602  15.900  0.00  0.00    +0.194 C 
ATOM     12  C   UNL     1      -5.142 -10.589  14.365  0.00  0.00    +0.165 C 
ATOM     13  C   UNL     1      -5.096 -13.614  14.820  0.00  0.00    +0.089 C 
ATOM     14  C   UNL     1      -4.443 -11.575  13.519  0.00  0.00    +0.057 A 
ATOM     15  C   UNL     1      -4.393 -12.934  13.710  0.00  0.00    +0.066 A 
ATOM     19  C   UNL     1      -3.233 -12.560  11.976  0.00  0.00    +0.200 A 
ENDROOT
BRANCH   7   2
ATOM      2  S   UNL     1      -7.037 -10.344  16.307  0.00  0.00    +0.062 S 
ATOM      3  O   UNL     1      -6.321  -9.118  16.590  0.00  0.00    -0.153 OA
ATOM      4  O   UNL     1      -7.577 -11.156  17.376  0.00  0.00    -0.153 OA
BRANCH   2  16
ATOM     16  C   UNL     1      -8.354  -9.957  15.199  0.00  0.00    +0.113 A 
ATOM     20  C   UNL     1      -9.390  -9.068  15.528  0.00  0.00    +0.010 A 
ATOM     21  C   UNL     1      -8.324 -10.584  13.952  0.00  0.00    +0.029 A 
ATOM     22  C   UNL     1     -10.410  -8.811  14.581  0.00  0.00    +0.005 A 
ATOM     24  C   UNL     1      -9.436  -8.428  16.778  0.00  0.00    +0.010 A 
ATOM     25  C   UNL     1     -11.445  -7.921  14.911  0.00  0.00    +0.037 A 
ATOM     26  C   UNL     1      -9.328 -10.331  13.021  0.00  0.00    +0.003 A 
ATOM     27  C   UNL     1     -10.364  -9.450  13.332  0.00  0.00    +0.010 A 
ATOM     28  C   UNL     1     -10.473  -7.546  17.089  0.00  0.00    +0.002 A 
ATOM     29  C   UNL     1     -11.475  -7.294  16.157  0.00  0.00    +0.024 A 
BRANCH  25  10
ATOM     10  N   UNL     1     -12.490  -7.628  14.001  0.00  0.00    -0.336 N 
ATOM     35  C   UNL     1     -13.647  -8.491  13.919  0.00  0.00    +0.129 C 
ATOM     36  C   UNL     1     -12.410  -6.459  13.152  0.00  0.00    +0.129 C 
ENDBRANCH  25  10
ENDBRANCH   2  16
ENDBRANCH   7   2
BRANCH  11  17
ATOM      6  O   UNL     1      -3.462 -11.560  16.530  0.00  0.00    -0.249 OA
ATOM     17  C   UNL     1      -4.420 -12.257  16.834  0.00  0.00    +0.326 C 
BRANCH  17   5
ATOM      5  O   UNL     1      -4.647 -12.835  18.048  0.00  0.00    -0.467 OA
ATOM     32  C   UNL     1      -4.621 -11.945  19.168  0.00  0.00    +0.280 C 
ENDBRANCH  17   5
ENDBRANCH  11  17
BRANCH   8  18
ATOM     18  C   UNL     1      -3.418 -10.064  11.791  0.00  0.00    +0.158 C 
BRANCH  18  23
ATOM      1 CL   UNL     1      -7.353  -8.599   7.478  0.00  0.00    -0.084 Cl
ATOM     23  C   UNL     1      -4.404  -9.698  10.710  0.00  0.00    -0.028 A 
ATOM     30  C   UNL     1      -5.631  -9.127  11.049  0.00  0.00    +0.007 A 
ATOM     31  C   UNL     1      -4.090  -9.929   9.371  0.00  0.00    +0.007 A 
ATOM     33  C   UNL     1      -6.544  -8.788  10.050  0.00  0.00    +0.020 A 
ATOM     34  C   UNL     1      -5.001  -9.591   8.372  0.00  0.00    +0.020 A 
ATOM     37  C   UNL     1      -6.228  -9.020   8.711  0.00  0.00    +0.041 A 
ENDBRANCH  18  23
ENDBRANCH   8  18
TORSDOF 7
ENDMDL
MODEL 7
REMARK VINA RESULT:      -5.5      3.427      6.236
REMARK  Name = 45360615
REMARK  10 active torsions:
REMARK  status: ('A' for Active; 'I' for Inactive)
REMARK    1  A    between atoms: S_2  and  N_7
REMARK    2  A    between atoms: S_2  and  C_16
REMARK    3  A    between atoms: O_5  and  C_17
REMARK    4  A    between atoms: O_5  and  C_32
REMARK    5  A    between atoms: N_8  and  C_18
REMARK    6  A    between atoms: N_10  and  C_25
REMARK    7  A    between atoms: N_10  and  C_35
REMARK    8  A    between atoms: N_10  and  C_36
REMARK    9  A    between atoms: C_11  and  C_17
REMARK   10  A    between atoms: C_18  and  C_23
REMARK                            x       y       z     vdW  Elec       q    Type
REMARK                         _______ _______ _______ _____ _____    ______ ____
ROOT
ATOM      7  N   UNL     1      10.595   7.180   5.334  0.00  0.00    -0.157 NA
ATOM      8  N   UNL     1      14.162   8.299   5.199  0.00  0.00    -0.328 N 
ATOM      9  N   UNL     1      14.415   6.953   6.964  0.00  0.00    -0.240 NA
ATOM     11  C   UNL     1      10.622   6.858   6.807  0.00  0.00    +0.194 C 
ATOM     12  C   UNL     1      11.642   8.150   4.843  0.00  0.00    +0.165 C 
ATOM     13  C   UNL     1      11.988   6.287   7.246  0.00  0.00    +0.089 C 
ATOM     14  C   UNL     1      12.920   7.833   5.508  0.00  0.00    +0.057 A 
ATOM     15  C   UNL     1      13.100   7.014   6.595  0.00  0.00    +0.066 A 
ATOM     19  C   UNL     1      15.029   7.741   6.104  0.00  0.00    +0.200 A 
ENDROOT
BRANCH   7   2
ATOM      2  S   UNL     1       9.050   7.341   4.613  0.00  0.00    +0.062 S 
ATOM      3  O   UNL     1       8.589   8.702   4.787  0.00  0.00    -0.153 OA
ATOM      4  O   UNL     1       8.227   6.219   5.008  0.00  0.00    -0.153 OA
BRANCH   2  16
ATOM     16  C   UNL     1       9.479   7.129   2.914  0.00  0.00    +0.113 A 
ATOM     20  C   UNL     1      10.184   6.010   2.441  0.00  0.00    +0.010 A 
ATOM     21  C   UNL     1       9.080   8.140   2.039  0.00  0.00    +0.029 A 
ATOM     22  C   UNL     1      10.489   5.915   1.063  0.00  0.00    +0.005 A 
ATOM     24  C   UNL     1      10.593   4.983   3.307  0.00  0.00    +0.010 A 
ATOM     25  C   UNL     1      11.193   4.796   0.590  0.00  0.00    +0.037 A 
ATOM     26  C   UNL     1       9.380   8.047   0.684  0.00  0.00    +0.003 A 
ATOM     27  C   UNL     1      10.079   6.942   0.197  0.00  0.00    +0.010 A 
ATOM     28  C   UNL     1      11.292   3.877   2.821  0.00  0.00    +0.002 A 
ATOM     29  C   UNL     1      11.592   3.784   1.464  0.00  0.00    +0.024 A 
BRANCH  25  10
ATOM     10  N   UNL     1      11.523   4.651  -0.779  0.00  0.00    -0.336 N 
ATOM     35  C   UNL     1      12.843   5.007  -1.252  0.00  0.00    +0.129 C 
ATOM     36  C   UNL     1      10.545   4.138  -1.715  0.00  0.00    +0.129 C 
ENDBRANCH  25  10
ENDBRANCH   2  16
ENDBRANCH   7   2
BRANCH  11  17
ATOM      6  O   UNL     1      10.967   9.075   7.672  0.00  0.00    -0.249 OA
ATOM     17  C   UNL     1      10.253   8.085   7.576  0.00  0.00    +0.326 C 
BRANCH  17   5
ATOM      5  O   UNL     1       9.021   7.920   8.137  0.00  0.00    -0.467 OA
ATOM     32  C   UNL     1       8.669   6.572   8.463  0.00  0.00    +0.280 C 
ENDBRANCH  17   5
ENDBRANCH  11  17
BRANCH   8  18
ATOM     18  C   UNL     1      14.513   9.211   4.137  0.00  0.00    +0.158 C 
BRANCH  18  23
ATOM      1 CL   UNL     1      16.167   6.429  -0.938  0.00  0.00    -0.084 Cl
ATOM     23  C   UNL     1      14.927   8.514   2.864  0.00  0.00    -0.028 A 
ATOM     30  C   UNL     1      16.280   8.347   2.570  0.00  0.00    +0.007 A 
ATOM     31  C   UNL     1      13.957   8.037   1.983  0.00  0.00    +0.007 A 
ATOM     33  C   UNL     1      16.664   7.703   1.393  0.00  0.00    +0.020 A 
ATOM     34  C   UNL     1      14.340   7.394   0.807  0.00  0.00    +0.020 A 
ATOM     37  C   UNL     1      15.693   7.226   0.511  0.00  0.00    +0.041 A 
ENDBRANCH  18  23
ENDBRANCH   8  18
TORSDOF 7
ENDMDL
MODEL 8
REMARK VINA RESULT:      -5.5     24.535     26.385
REMARK  Name = 45360615
REMARK  10 active torsions:
REMARK  status: ('A' for Active; 'I' for Inactive)
REMARK    1  A    between atoms: S_2  and  N_7
REMARK    2  A    between atoms: S_2  and  C_16
REMARK    3  A    between atoms: O_5  and  C_17
REMARK    4  A    between atoms: O_5  and  C_32
REMARK    5  A    between atoms: N_8  and  C_18
REMARK    6  A    between atoms: N_10  and  C_25
REMARK    7  A    between atoms: N_10  and  C_35
REMARK    8  A    between atoms: N_10  and  C_36
REMARK    9  A    between atoms: C_11  and  C_17
REMARK   10  A    between atoms: C_18  and  C_23
REMARK                            x       y       z     vdW  Elec       q    Type
REMARK                         _______ _______ _______ _____ _____    ______ ____
ROOT
ATOM      7  N   UNL     1      -6.505  -9.911   8.634  0.00  0.00    -0.157 NA
ATOM      8  N   UNL     1      -9.204  -7.508   7.665  0.00  0.00    -0.328 N 
ATOM      9  N   UNL     1     -10.271  -9.342   6.963  0.00  0.00    -0.240 NA
ATOM     11  C   UNL     1      -6.894 -10.952   7.616  0.00  0.00    +0.194 C 
ATOM     12  C   UNL     1      -6.957  -8.498   8.352  0.00  0.00    +0.165 C 
ATOM     13  C   UNL     1      -8.424 -11.015   7.414  0.00  0.00    +0.089 C 
ATOM     14  C   UNL     1      -8.337  -8.546   7.833  0.00  0.00    +0.057 A 
ATOM     15  C   UNL     1      -9.012  -9.658   7.392  0.00  0.00    +0.066 A 
ATOM     19  C   UNL     1     -10.355  -8.038   7.138  0.00  0.00    +0.200 A 
ENDROOT
BRANCH   7   2
ATOM      2  S   UNL     1      -4.943 -10.056   9.322  0.00  0.00    +0.062 S 
ATOM      3  O   UNL     1      -4.287  -8.766   9.279  0.00  0.00    -0.153 OA
ATOM      4  O   UNL     1      -4.302 -11.237   8.784  0.00  0.00    -0.153 OA
BRANCH   2  16
ATOM     16  C   UNL     1      -5.375 -10.389  11.000  0.00  0.00    +0.113 A 
ATOM     20  C   UNL     1      -4.419 -10.507  12.023  0.00  0.00    +0.010 A 
ATOM     21  C   UNL     1      -6.735 -10.531  11.277  0.00  0.00    +0.029 A 
ATOM     22  C   UNL     1      -4.849 -10.774  13.345  0.00  0.00    +0.005 A 
ATOM     24  C   UNL     1      -3.047 -10.366  11.762  0.00  0.00    +0.010 A 
ATOM     25  C   UNL     1      -3.894 -10.892  14.367  0.00  0.00    +0.037 A 
ATOM     26  C   UNL     1      -7.157 -10.794  12.577  0.00  0.00    +0.003 A 
ATOM     27  C   UNL     1      -6.222 -10.914  13.605  0.00  0.00    +0.010 A 
ATOM     28  C   UNL     1      -2.110 -10.487  12.791  0.00  0.00    +0.002 A 
ATOM     29  C   UNL     1      -2.534 -10.750  14.091  0.00  0.00    +0.024 A 
BRANCH  25  10
ATOM     10  N   UNL     1      -4.269 -11.158  15.706  0.00  0.00    -0.336 N 
ATOM     35  C   UNL     1      -4.506 -10.067  16.627  0.00  0.00    +0.129 C 
ATOM     36  C   UNL     1      -4.427 -12.522  16.162  0.00  0.00    +0.129 C 
ENDBRANCH  25  10
ENDBRANCH   2  16
ENDBRANCH   7   2
BRANCH  11  17
ATOM      6  O   UNL     1      -5.994  -9.552   5.881  0.00  0.00    -0.249 OA
ATOM     17  C   UNL     1      -6.170 -10.673   6.339  0.00  0.00    +0.326 C 
BRANCH  17   5
ATOM      5  O   UNL     1      -5.751 -11.847   5.786  0.00  0.00    -0.467 OA
ATOM     32  C   UNL     1      -4.386 -11.873   5.356  0.00  0.00    +0.280 C 
ENDBRANCH  17   5
ENDBRANCH  11  17
BRANCH   8  18
ATOM     18  C   UNL     1      -8.970  -6.117   7.967  0.00  0.00    +0.158 C 
BRANCH  18  23
ATOM      1 CL   UNL     1     -13.331  -3.634  11.290  0.00  0.00    -0.084 Cl
ATOM     23  C   UNL     1     -10.063  -5.494   8.799  0.00  0.00    -0.028 A 
ATOM     30  C   UNL     1     -10.912  -6.304   9.553  0.00  0.00    +0.007 A 
ATOM     31  C   UNL     1     -10.225  -4.109   8.815  0.00  0.00    +0.007 A 
ATOM     33  C   UNL     1     -11.924  -5.729  10.323  0.00  0.00    +0.020 A 
ATOM     34  C   UNL     1     -11.236  -3.534   9.583  0.00  0.00    +0.020 A 
ATOM     37  C   UNL     1     -12.085  -4.343  10.338  0.00  0.00    +0.041 A 
ENDBRANCH  18  23
ENDBRANCH   8  18
TORSDOF 7
ENDMDL
MODEL 9
REMARK VINA RESULT:      -5.5     34.408     37.015
REMARK  Name = 45360615
REMARK  10 active torsions:
REMARK  status: ('A' for Active; 'I' for Inactive)
REMARK    1  A    between atoms: S_2  and  N_7
REMARK    2  A    between atoms: S_2  and  C_16
REMARK    3  A    between atoms: O_5  and  C_17
REMARK    4  A    between atoms: O_5  and  C_32
REMARK    5  A    between atoms: N_8  and  C_18
REMARK    6  A    between atoms: N_10  and  C_25
REMARK    7  A    between atoms: N_10  and  C_35
REMARK    8  A    between atoms: N_10  and  C_36
REMARK    9  A    between atoms: C_11  and  C_17
REMARK   10  A    between atoms: C_18  and  C_23
REMARK                            x       y       z     vdW  Elec       q    Type
REMARK                         _______ _______ _______ _____ _____    ______ ____
ROOT
ATOM      7  N   UNL     1       6.010  -9.409  36.756  0.00  0.00    -0.157 NA
ATOM      8  N   UNL     1       7.956  -6.485  35.469  0.00  0.00    -0.328 N 
ATOM      9  N   UNL     1       9.070  -6.666  37.397  0.00  0.00    -0.240 NA
ATOM     11  C   UNL     1       6.274  -9.103  38.209  0.00  0.00    +0.194 C 
ATOM     12  C   UNL     1       6.149  -8.254  35.795  0.00  0.00    +0.165 C 
ATOM     13  C   UNL     1       7.687  -8.521  38.427  0.00  0.00    +0.089 C 
ATOM     14  C   UNL     1       7.335  -7.466  36.182  0.00  0.00    +0.057 A 
ATOM     15  C   UNL     1       8.033  -7.555  37.361  0.00  0.00    +0.066 A 
ATOM     19  C   UNL     1       8.996  -6.034  36.243  0.00  0.00    +0.200 A 
ENDROOT
BRANCH   7   2
ATOM      2  S   UNL     1       4.725 -10.491  36.421  0.00  0.00    +0.062 S 
ATOM      3  O   UNL     1       3.576  -9.733  35.973  0.00  0.00    -0.153 OA
ATOM      4  O   UNL     1       4.615 -11.440  37.507  0.00  0.00    -0.153 OA
BRANCH   2  16
ATOM     16  C   UNL     1       5.392 -11.338  35.024  0.00  0.00    +0.113 A 
ATOM     20  C   UNL     1       4.612 -12.143  34.178  0.00  0.00    +0.010 A 
ATOM     21  C   UNL     1       6.757 -11.172  34.788  0.00  0.00    +0.029 A 
ATOM     22  C   UNL     1       5.224 -12.788  33.077  0.00  0.00    +0.005 A 
ATOM     24  C   UNL     1       3.236 -12.320  34.400  0.00  0.00    +0.010 A 
ATOM     25  C   UNL     1       4.444 -13.591  32.231  0.00  0.00    +0.037 A 
ATOM     26  C   UNL     1       7.360 -11.807  33.706  0.00  0.00    +0.003 A 
ATOM     27  C   UNL     1       6.599 -12.609  32.855  0.00  0.00    +0.010 A 
ATOM     28  C   UNL     1       2.475 -13.123  33.549  0.00  0.00    +0.002 A 
ATOM     29  C   UNL     1       3.078 -13.758  32.466  0.00  0.00    +0.024 A 
BRANCH  25  10
ATOM     10  N   UNL     1       5.006 -14.259  31.116  0.00  0.00    -0.336 N 
ATOM     35  C   UNL     1       5.482 -15.619  31.246  0.00  0.00    +0.129 C 
ATOM     36  C   UNL     1       5.100 -13.590  29.837  0.00  0.00    +0.129 C 
ENDBRANCH  25  10
ENDBRANCH   2  16
ENDBRANCH   7   2
BRANCH  11  17
ATOM      6  O   UNL     1       5.143  -6.994  38.444  0.00  0.00    -0.249 OA
ATOM     17  C   UNL     1       5.205  -8.186  38.711  0.00  0.00    +0.326 C 
BRANCH  17   5
ATOM      5  O   UNL     1       4.336  -8.885  39.496  0.00  0.00    -0.467 OA
ATOM     32  C   UNL     1       4.920  -9.553  40.618  0.00  0.00    +0.280 C 
ENDBRANCH  17   5
ENDBRANCH  11  17
BRANCH   8  18
ATOM     18  C   UNL     1       7.598  -5.997  34.159  0.00  0.00    +0.158 C 
BRANCH  18  23
ATOM      1 CL   UNL     1       7.161 -10.352  30.028  0.00  0.00    -0.084 Cl
ATOM     23  C   UNL     1       7.489  -7.089  33.124  0.00  0.00    -0.028 A 
ATOM     30  C   UNL     1       6.283  -7.297  32.456  0.00  0.00    +0.007 A 
ATOM     31  C   UNL     1       8.593  -7.890  32.836  0.00  0.00    +0.007 A 
ATOM     33  C   UNL     1       6.180  -8.307  31.499  0.00  0.00    +0.020 A 
ATOM     34  C   UNL     1       8.492  -8.899  31.880  0.00  0.00    +0.020 A 
ATOM     37  C   UNL     1       7.286  -9.108  31.211  0.00  0.00    +0.041 A 
ENDBRANCH  18  23
ENDBRANCH   8  18
TORSDOF 7
ENDMDL
MODEL 10
REMARK VINA RESULT:      -5.4      2.832      6.163
REMARK  Name = 45360615
REMARK  10 active torsions:
REMARK  status: ('A' for Active; 'I' for Inactive)
REMARK    1  A    between atoms: S_2  and  N_7
REMARK    2  A    between atoms: S_2  and  C_16
REMARK    3  A    between atoms: O_5  and  C_17
REMARK    4  A    between atoms: O_5  and  C_32
REMARK    5  A    between atoms: N_8  and  C_18
REMARK    6  A    between atoms: N_10  and  C_25
REMARK    7  A    between atoms: N_10  and  C_35
REMARK    8  A    between atoms: N_10  and  C_36
REMARK    9  A    between atoms: C_11  and  C_17
REMARK   10  A    between atoms: C_18  and  C_23
REMARK                            x       y       z     vdW  Elec       q    Type
REMARK                         _______ _______ _______ _____ _____    ______ ____
ROOT
ATOM      7  N   UNL     1      12.383   6.933   2.314  0.00  0.00    -0.157 NA
ATOM      8  N   UNL     1       9.751   8.384   4.542  0.00  0.00    -0.328 N 
ATOM      9  N   UNL     1      10.955  10.258   4.365  0.00  0.00    -0.240 NA
ATOM     11  C   UNL     1      13.453   7.907   2.737  0.00  0.00    +0.194 C 
ATOM     12  C   UNL     1      11.236   6.742   3.276  0.00  0.00    +0.165 C 
ATOM     13  C   UNL     1      12.876   9.312   3.013  0.00  0.00    +0.089 C 
ATOM     14  C   UNL     1      10.862   8.061   3.823  0.00  0.00    +0.057 A 
ATOM     15  C   UNL     1      11.587   9.224   3.733  0.00  0.00    +0.066 A 
ATOM     19  C   UNL     1       9.851   9.718   4.845  0.00  0.00    +0.200 A 
ENDROOT
BRANCH   7   2
ATOM      2  S   UNL     1      12.910   5.515   1.512  0.00  0.00    +0.062 S 
ATOM      3  O   UNL     1      12.469   4.358   2.261  0.00  0.00    -0.153 OA
ATOM      4  O   UNL     1      14.299   5.675   1.138  0.00  0.00    -0.153 OA
BRANCH   2  16
ATOM     16  C   UNL     1      11.937   5.611   0.043  0.00  0.00    +0.113 A 
ATOM     20  C   UNL     1      11.905   4.588  -0.918  0.00  0.00    +0.010 A 
ATOM     21  C   UNL     1      11.182   6.772  -0.128  0.00  0.00    +0.029 A 
ATOM     22  C   UNL     1      11.097   4.744  -2.069  0.00  0.00    +0.005 A 
ATOM     24  C   UNL     1      12.658   3.413  -0.761  0.00  0.00    +0.010 A 
ATOM     25  C   UNL     1      11.064   3.720  -3.029  0.00  0.00    +0.037 A 
ATOM     26  C   UNL     1      10.388   6.926  -1.261  0.00  0.00    +0.003 A 
ATOM     27  C   UNL     1      10.343   5.918  -2.225  0.00  0.00    +0.010 A 
ATOM     28  C   UNL     1      12.614   2.404  -1.726  0.00  0.00    +0.002 A 
ATOM     29  C   UNL     1      11.819   2.558  -2.858  0.00  0.00    +0.024 A 
BRANCH  25  10
ATOM     10  N   UNL     1      10.273   3.824  -4.199  0.00  0.00    -0.336 N 
ATOM     35  C   UNL     1      10.736   4.605  -5.325  0.00  0.00    +0.129 C 
ATOM     36  C   UNL     1       8.998   3.144  -4.279  0.00  0.00    +0.129 C 
ENDBRANCH  25  10
ENDBRANCH   2  16
ENDBRANCH   7   2
BRANCH  11  17
ATOM      6  O   UNL     1      13.629   7.085   4.990  0.00  0.00    -0.249 OA
ATOM     17  C   UNL     1      14.170   7.351   3.925  0.00  0.00    +0.326 C 
BRANCH  17   5
ATOM      5  O   UNL     1      15.492   7.195   3.629  0.00  0.00    -0.467 OA
ATOM     32  C   UNL     1      16.398   7.944   4.445  0.00  0.00    +0.280 C 
ENDBRANCH  17   5
ENDBRANCH  11  17
BRANCH   8  18
ATOM     18  C   UNL     1       8.673   7.505   4.925  0.00  0.00    +0.158 C 
BRANCH  18  23
ATOM      1 CL   UNL     1       9.674   4.634  10.120  0.00  0.00    -0.084 Cl
ATOM     23  C   UNL     1       8.923   6.785   6.227  0.00  0.00    -0.028 A 
ATOM     30  C   UNL     1       9.409   5.478   6.219  0.00  0.00    +0.007 A 
ATOM     31  C   UNL     1       8.669   7.427   7.439  0.00  0.00    +0.007 A 
ATOM     33  C   UNL     1       9.640   4.812   7.423  0.00  0.00    +0.020 A 
ATOM     34  C   UNL     1       8.900   6.762   8.643  0.00  0.00    +0.020 A 
ATOM     37  C   UNL     1       9.385   5.455   8.635  0.00  0.00    +0.041 A 
ENDBRANCH  18  23
ENDBRANCH   8  18
TORSDOF 7
ENDMDL
