MODEL 1
REMARK VINA RESULT:      -6.7      0.000      0.000
REMARK  Name = 45361508
REMARK  14 active torsions:
REMARK  status: ('A' for Active; 'I' for Inactive)
REMARK    1  A    between atoms: O_1  and  C_11
REMARK    2  A    between atoms: O_4  and  C_24
REMARK    3  A    between atoms: O_4  and  C_27
REMARK    4  A    between atoms: O_5  and  C_32
REMARK    5  A    between atoms: O_5  and  C_33
REMARK    6  A    between atoms: N_6  and  C_15
REMARK    7  A    between atoms: N_7  and  C_25
REMARK    8  A    between atoms: C_8  and  C_18
REMARK    9  A    between atoms: C_10  and  C_20
REMARK   10  A    between atoms: C_14  and  C_19
REMARK   11  A    between atoms: C_19  and  C_21
REMARK   12  A    between atoms: C_19  and  C_22
REMARK   13  A    between atoms: C_23  and  C_24
REMARK   14  A    between atoms: C_25  and  C_26
REMARK                            x       y       z     vdW  Elec       q    Type
REMARK                         _______ _______ _______ _____ _____    ______ ____
ROOT
ATOM      8  C   UNL     1     -15.784   7.501  21.522  0.00  0.00    -0.027 C 
ATOM      9  C   UNL     1     -14.488   6.731  21.943  0.00  0.00    +0.028 C 
ATOM     10  C   UNL     1     -13.370   6.879  20.850  0.00  0.00    +0.012 C 
ATOM     11  C   UNL     1     -14.814   5.272  22.375  0.00  0.00    +0.122 C 
ATOM     12  C   UNL     1     -16.822   7.430  22.667  0.00  0.00    +0.007 C 
ATOM     13  C   UNL     1     -15.435   8.990  21.294  0.00  0.00    +0.009 C 
ATOM     14  C   UNL     1     -15.927   5.202  23.446  0.00  0.00    +0.029 C 
ATOM     15  C   UNL     1     -13.080   8.381  20.576  0.00  0.00    +0.076 C 
ATOM     16  C   UNL     1     -17.172   6.002  23.065  0.00  0.00    +0.007 C 
ATOM     17  C   UNL     1     -14.336   9.194  20.262  0.00  0.00    +0.023 C 
ATOM     18  C   UNL     1     -16.425   6.924  20.234  0.00  0.00    +0.011 C 
ATOM     20  C   UNL     1     -12.056   6.168  21.215  0.00  0.00    +0.010 C 
ENDROOT
BRANCH  15   6
ATOM      3  O   UNL     1     -11.010  10.390  20.366  0.00  0.00    -0.273 OA
ATOM      6  N   UNL     1     -12.138   8.556  19.490  0.00  0.00    -0.310 N 
ATOM     23  C   UNL     1     -11.179   9.553  19.483  0.00  0.00    +0.239 C 
ATOM     34  H   UNL     1     -12.232   7.955  18.675  0.00  0.00    +0.149 HD
BRANCH  23  24
ATOM     24  C   UNL     1     -10.331   9.503  18.230  0.00  0.00    +0.255 C 
BRANCH  24   4
ATOM      4  O   UNL     1     -10.490   8.266  17.570  0.00  0.00    -0.374 OA
ATOM     27  C   UNL     1     -10.488   8.416  16.153  0.00  0.00    +0.194 C 
ENDBRANCH  24   4
ENDBRANCH  23  24
ENDBRANCH  15   6
BRANCH  11   1
ATOM      1  O   UNL     1     -13.653   4.675  22.952  0.00  0.00    -0.391 OA
ATOM     35  H   UNL     1     -12.927   4.738  22.307  0.00  0.00    +0.210 HD
ENDBRANCH  11   1
BRANCH  14  19
ATOM     19  C   UNL     1     -16.324   3.755  23.761  0.00  0.00    +0.077 C 
ATOM     21  C   UNL     1     -17.218   3.204  22.656  0.00  0.00    +0.017 C 
BRANCH  19  22
ATOM      2  O   UNL     1     -18.129   3.195  25.276  0.00  0.00    -0.276 OA
ATOM      7  N   UNL     1     -16.248   4.246  26.133  0.00  0.00    -0.311 N 
ATOM     22  C   UNL     1     -17.015   3.689  25.120  0.00  0.00    +0.216 C 
ATOM     36  H   UNL     1     -15.313   4.587  25.933  0.00  0.00    +0.149 HD
BRANCH   7  25
ATOM     25  C   UNL     1     -16.689   4.302  27.507  0.00  0.00    +0.139 C 
BRANCH  25  26
ATOM     26  C   UNL     1     -15.993   3.283  28.363  0.00  0.00    -0.030 A 
ATOM     28  C   UNL     1     -16.245   1.925  28.176  0.00  0.00    +0.009 A 
ATOM     29  C   UNL     1     -15.091   3.697  29.344  0.00  0.00    +0.009 A 
ATOM     30  C   UNL     1     -15.598   0.979  28.971  0.00  0.00    +0.046 A 
ATOM     31  C   UNL     1     -14.444   2.752  30.140  0.00  0.00    +0.046 A 
ATOM     32  C   UNL     1     -14.697   1.392  29.953  0.00  0.00    +0.120 A 
BRANCH  32   5
ATOM      5  O   UNL     1     -14.064   0.469  30.728  0.00  0.00    -0.495 OA
ATOM     33  C   UNL     1     -13.451  -0.631  30.058  0.00  0.00    +0.277 C 
ENDBRANCH  32   5
ENDBRANCH  25  26
ENDBRANCH   7  25
ENDBRANCH  19  22
ENDBRANCH  14  19
TORSDOF 9
ENDMDL
MODEL 2
REMARK VINA RESULT:      -6.6     19.313     21.366
REMARK  Name = 45361508
REMARK  14 active torsions:
REMARK  status: ('A' for Active; 'I' for Inactive)
REMARK    1  A    between atoms: O_1  and  C_11
REMARK    2  A    between atoms: O_4  and  C_24
REMARK    3  A    between atoms: O_4  and  C_27
REMARK    4  A    between atoms: O_5  and  C_32
REMARK    5  A    between atoms: O_5  and  C_33
REMARK    6  A    between atoms: N_6  and  C_15
REMARK    7  A    between atoms: N_7  and  C_25
REMARK    8  A    between atoms: C_8  and  C_18
REMARK    9  A    between atoms: C_10  and  C_20
REMARK   10  A    between atoms: C_14  and  C_19
REMARK   11  A    between atoms: C_19  and  C_21
REMARK   12  A    between atoms: C_19  and  C_22
REMARK   13  A    between atoms: C_23  and  C_24
REMARK   14  A    between atoms: C_25  and  C_26
REMARK                            x       y       z     vdW  Elec       q    Type
REMARK                         _______ _______ _______ _____ _____    ______ ____
ROOT
ATOM      8  C   UNL     1      -3.686 -10.502  10.419  0.00  0.00    -0.027 C 
ATOM      9  C   UNL     1      -5.006 -10.255  11.222  0.00  0.00    +0.028 C 
ATOM     10  C   UNL     1      -5.842  -9.090  10.582  0.00  0.00    +0.012 C 
ATOM     11  C   UNL     1      -4.721 -10.115  12.746  0.00  0.00    +0.122 C 
ATOM     12  C   UNL     1      -2.944 -11.725  11.007  0.00  0.00    +0.007 C 
ATOM     13  C   UNL     1      -4.043 -10.828   8.950  0.00  0.00    +0.009 C 
ATOM     14  C   UNL     1      -3.889 -11.292  13.306  0.00  0.00    +0.029 C 
ATOM     15  C   UNL     1      -6.131  -9.394   9.085  0.00  0.00    +0.076 C 
ATOM     16  C   UNL     1      -2.629 -11.574  12.489  0.00  0.00    +0.007 C 
ATOM     17  C   UNL     1      -4.877  -9.744   8.283  0.00  0.00    +0.023 C 
ATOM     18  C   UNL     1      -2.733  -9.280  10.453  0.00  0.00    +0.011 C 
ATOM     20  C   UNL     1      -7.169  -8.813  11.308  0.00  0.00    +0.010 C 
ENDROOT
BRANCH  15   6
ATOM      3  O   UNL     1      -8.258  -9.546   7.131  0.00  0.00    -0.273 OA
ATOM      6  N   UNL     1      -6.798  -8.288   8.432  0.00  0.00    -0.310 N 
ATOM     23  C   UNL     1      -7.811  -8.465   7.506  0.00  0.00    +0.239 C 
ATOM     34  H   UNL     1      -6.461  -7.348   8.622  0.00  0.00    +0.149 HD
BRANCH  23  24
ATOM     24  C   UNL     1      -8.329  -7.142   6.985  0.00  0.00    +0.255 C 
BRANCH  24   4
ATOM      4  O   UNL     1      -8.003  -6.095   7.874  0.00  0.00    -0.374 OA
ATOM     27  C   UNL     1      -9.168  -5.456   8.391  0.00  0.00    +0.194 C 
ENDBRANCH  24   4
ENDBRANCH  23  24
ENDBRANCH  15   6
BRANCH  11   1
ATOM      1  O   UNL     1      -5.955 -10.109  13.463  0.00  0.00    -0.391 OA
ATOM     35  H   UNL     1      -6.411  -9.270  13.274  0.00  0.00    +0.210 HD
ENDBRANCH  11   1
BRANCH  14  19
ATOM     19  C   UNL     1      -3.508 -11.071  14.775  0.00  0.00    +0.077 C 
ATOM     21  C   UNL     1      -1.992 -11.113  14.936  0.00  0.00    +0.017 C 
BRANCH  19  22
ATOM      2  O   UNL     1      -4.899 -13.009  15.194  0.00  0.00    -0.276 OA
ATOM      7  N   UNL     1      -3.916 -11.938  17.001  0.00  0.00    -0.311 N 
ATOM     22  C   UNL     1      -4.189 -12.117  15.653  0.00  0.00    +0.216 C 
ATOM     36  H   UNL     1      -3.276 -11.208  17.296  0.00  0.00    +0.149 HD
BRANCH   7  25
ATOM     25  C   UNL     1      -4.448 -12.803  18.027  0.00  0.00    +0.139 C 
BRANCH  25  26
ATOM     26  C   UNL     1      -5.740 -12.279  18.588  0.00  0.00    -0.030 A 
ATOM     28  C   UNL     1      -5.776 -11.034  19.213  0.00  0.00    +0.009 A 
ATOM     29  C   UNL     1      -6.905 -13.040  18.481  0.00  0.00    +0.009 A 
ATOM     30  C   UNL     1      -6.976 -10.548  19.733  0.00  0.00    +0.046 A 
ATOM     31  C   UNL     1      -8.104 -12.556  19.002  0.00  0.00    +0.046 A 
ATOM     32  C   UNL     1      -8.140 -11.309  19.627  0.00  0.00    +0.120 A 
BRANCH  32   5
ATOM      5  O   UNL     1      -9.311 -10.835  20.134  0.00  0.00    -0.495 OA
ATOM     33  C   UNL     1     -10.456 -11.679  20.022  0.00  0.00    +0.277 C 
ENDBRANCH  32   5
ENDBRANCH  25  26
ENDBRANCH   7  25
ENDBRANCH  19  22
ENDBRANCH  14  19
TORSDOF 9
ENDMDL
MODEL 3
REMARK VINA RESULT:      -6.6     26.430     31.476
REMARK  Name = 45361508
REMARK  14 active torsions:
REMARK  status: ('A' for Active; 'I' for Inactive)
REMARK    1  A    between atoms: O_1  and  C_11
REMARK    2  A    between atoms: O_4  and  C_24
REMARK    3  A    between atoms: O_4  and  C_27
REMARK    4  A    between atoms: O_5  and  C_32
REMARK    5  A    between atoms: O_5  and  C_33
REMARK    6  A    between atoms: N_6  and  C_15
REMARK    7  A    between atoms: N_7  and  C_25
REMARK    8  A    between atoms: C_8  and  C_18
REMARK    9  A    between atoms: C_10  and  C_20
REMARK   10  A    between atoms: C_14  and  C_19
REMARK   11  A    between atoms: C_19  and  C_21
REMARK   12  A    between atoms: C_19  and  C_22
REMARK   13  A    between atoms: C_23  and  C_24
REMARK   14  A    between atoms: C_25  and  C_26
REMARK                            x       y       z     vdW  Elec       q    Type
REMARK                         _______ _______ _______ _____ _____    ______ ____
ROOT
ATOM      8  C   UNL     1      15.858  10.121  21.469  0.00  0.00    -0.027 C 
ATOM      9  C   UNL     1      15.549   8.604  21.698  0.00  0.00    +0.028 C 
ATOM     10  C   UNL     1      16.669   7.704  21.064  0.00  0.00    +0.012 C 
ATOM     11  C   UNL     1      14.092   8.255  21.279  0.00  0.00    +0.122 C 
ATOM     12  C   UNL     1      14.799  10.980  22.200  0.00  0.00    +0.007 C 
ATOM     13  C   UNL     1      17.238  10.453  22.079  0.00  0.00    +0.009 C 
ATOM     14  C   UNL     1      13.045   9.185  21.934  0.00  0.00    +0.029 C 
ATOM     15  C   UNL     1      18.062   8.098  21.630  0.00  0.00    +0.076 C 
ATOM     16  C   UNL     1      13.374  10.668  21.763  0.00  0.00    +0.007 C 
ATOM     17  C   UNL     1      18.362   9.593  21.521  0.00  0.00    +0.023 C 
ATOM     18  C   UNL     1      15.857  10.506  19.967  0.00  0.00    +0.011 C 
ATOM     20  C   UNL     1      16.443   6.198  21.278  0.00  0.00    +0.010 C 
ENDROOT
BRANCH  15   6
ATOM      3  O   UNL     1      19.947   6.288  22.872  0.00  0.00    -0.273 OA
ATOM      6  N   UNL     1      19.131   7.368  20.981  0.00  0.00    -0.310 N 
ATOM     23  C   UNL     1      19.984   6.521  21.667  0.00  0.00    +0.239 C 
ATOM     34  H   UNL     1      19.292   7.537  19.992  0.00  0.00    +0.149 HD
BRANCH  23  24
ATOM     24  C   UNL     1      21.004   5.889  20.743  0.00  0.00    +0.255 C 
BRANCH  24   4
ATOM      4  O   UNL     1      20.622   4.574  20.404  0.00  0.00    -0.374 OA
ATOM     27  C   UNL     1      21.391   3.600  21.105  0.00  0.00    +0.194 C 
ENDBRANCH  24   4
ENDBRANCH  23  24
ENDBRANCH  15   6
BRANCH  11   1
ATOM      1  O   UNL     1      13.780   6.927  21.700  0.00  0.00    -0.391 OA
ATOM     35  H   UNL     1      14.540   6.581  22.200  0.00  0.00    +0.210 HD
ENDBRANCH  11   1
BRANCH  14  19
ATOM     19  C   UNL     1      11.631   8.910  21.408  0.00  0.00    +0.077 C 
ATOM     21  C   UNL     1      10.867   8.032  22.394  0.00  0.00    +0.017 C 
BRANCH  19  22
ATOM      2  O   UNL     1      11.553   7.056  19.851  0.00  0.00    -0.276 OA
ATOM      7  N   UNL     1      11.964   9.183  19.023  0.00  0.00    -0.311 N 
ATOM     22  C   UNL     1      11.706   8.262  20.029  0.00  0.00    +0.216 C 
ATOM     36  H   UNL     1      12.026  10.171  19.245  0.00  0.00    +0.149 HD
BRANCH   7  25
ATOM     25  C   UNL     1      12.082   8.809  17.633  0.00  0.00    +0.139 C 
BRANCH  25  26
ATOM     26  C   UNL     1      13.155   9.590  16.931  0.00  0.00    -0.030 A 
ATOM     28  C   UNL     1      13.474  10.879  17.357  0.00  0.00    +0.009 A 
ATOM     29  C   UNL     1      13.836   9.023  15.852  0.00  0.00    +0.009 A 
ATOM     30  C   UNL     1      14.471  11.603  16.704  0.00  0.00    +0.046 A 
ATOM     31  C   UNL     1      14.833   9.747  15.199  0.00  0.00    +0.046 A 
ATOM     32  C   UNL     1      15.151  11.037  15.625  0.00  0.00    +0.120 A 
BRANCH  32   5
ATOM      5  O   UNL     1      16.125  11.744  14.989  0.00  0.00    -0.495 OA
ATOM     33  C   UNL     1      17.027  12.487  15.807  0.00  0.00    +0.277 C 
ENDBRANCH  32   5
ENDBRANCH  25  26
ENDBRANCH   7  25
ENDBRANCH  19  22
ENDBRANCH  14  19
TORSDOF 9
ENDMDL
MODEL 4
REMARK VINA RESULT:      -6.5     18.973     22.564
REMARK  Name = 45361508
REMARK  14 active torsions:
REMARK  status: ('A' for Active; 'I' for Inactive)
REMARK    1  A    between atoms: O_1  and  C_11
REMARK    2  A    between atoms: O_4  and  C_24
REMARK    3  A    between atoms: O_4  and  C_27
REMARK    4  A    between atoms: O_5  and  C_32
REMARK    5  A    between atoms: O_5  and  C_33
REMARK    6  A    between atoms: N_6  and  C_15
REMARK    7  A    between atoms: N_7  and  C_25
REMARK    8  A    between atoms: C_8  and  C_18
REMARK    9  A    between atoms: C_10  and  C_20
REMARK   10  A    between atoms: C_14  and  C_19
REMARK   11  A    between atoms: C_19  and  C_21
REMARK   12  A    between atoms: C_19  and  C_22
REMARK   13  A    between atoms: C_23  and  C_24
REMARK   14  A    between atoms: C_25  and  C_26
REMARK                            x       y       z     vdW  Elec       q    Type
REMARK                         _______ _______ _______ _____ _____    ______ ____
ROOT
ATOM      8  C   UNL     1      -4.711 -11.022  16.812  0.00  0.00    -0.027 C 
ATOM      9  C   UNL     1      -5.491 -10.459  15.579  0.00  0.00    +0.028 C 
ATOM     10  C   UNL     1      -7.040 -10.637  15.768  0.00  0.00    +0.012 C 
ATOM     11  C   UNL     1      -4.912 -11.012  14.245  0.00  0.00    +0.122 C 
ATOM     12  C   UNL     1      -3.201 -10.730  16.645  0.00  0.00    +0.007 C 
ATOM     13  C   UNL     1      -5.193 -10.296  18.089  0.00  0.00    +0.009 C 
ATOM     14  C   UNL     1      -3.384 -10.809  14.130  0.00  0.00    +0.029 C 
ATOM     15  C   UNL     1      -7.502  -9.968  17.093  0.00  0.00    +0.076 C 
ATOM     16  C   UNL     1      -2.622 -11.304  15.359  0.00  0.00    +0.007 C 
ATOM     17  C   UNL     1      -6.693 -10.412  18.312  0.00  0.00    +0.023 C 
ATOM     18  C   UNL     1      -4.904 -12.550  16.990  0.00  0.00    +0.011 C 
ATOM     20  C   UNL     1      -7.872 -10.078  14.602  0.00  0.00    +0.010 C 
ENDROOT
BRANCH  15   6
ATOM      3  O   UNL     1      -9.557  -7.993  17.591  0.00  0.00    -0.273 OA
ATOM      6  N   UNL     1      -8.904 -10.213  17.358  0.00  0.00    -0.310 N 
ATOM     23  C   UNL     1      -9.813  -9.195  17.585  0.00  0.00    +0.239 C 
ATOM     34  H   UNL     1      -9.212 -11.178  17.440  0.00  0.00    +0.149 HD
BRANCH  23  24
ATOM     24  C   UNL     1     -11.205  -9.735  17.833  0.00  0.00    +0.255 C 
BRANCH  24   4
ATOM      4  O   UNL     1     -11.602  -9.496  19.167  0.00  0.00    -0.374 OA
ATOM     27  C   UNL     1     -10.810 -10.231  20.096  0.00  0.00    +0.194 C 
ENDBRANCH  24   4
ENDBRANCH  23  24
ENDBRANCH  15   6
BRANCH  11   1
ATOM      1  O   UNL     1      -5.501 -10.317  13.145  0.00  0.00    -0.391 OA
ATOM     35  H   UNL     1      -5.028 -10.577  12.335  0.00  0.00    +0.210 HD
ENDBRANCH  11   1
BRANCH  14  19
ATOM     19  C   UNL     1      -2.814 -11.475  12.871  0.00  0.00    +0.077 C 
ATOM     21  C   UNL     1      -1.601 -12.326  13.232  0.00  0.00    +0.017 C 
BRANCH  19  22
ATOM      2  O   UNL     1      -1.358  -9.871  11.788  0.00  0.00    -0.276 OA
ATOM      7  N   UNL     1      -3.513 -10.139  10.975  0.00  0.00    -0.311 N 
ATOM     22  C   UNL     1      -2.460 -10.413  11.835  0.00  0.00    +0.216 C 
ATOM     36  H   UNL     1      -4.377 -10.667  11.045  0.00  0.00    +0.149 HD
BRANCH   7  25
ATOM     25  C   UNL     1      -3.420  -9.167   9.910  0.00  0.00    +0.139 C 
BRANCH  25  26
ATOM     26  C   UNL     1      -4.703  -9.056   9.137  0.00  0.00    -0.030 A 
ATOM     28  C   UNL     1      -5.692  -8.165   9.550  0.00  0.00    +0.009 A 
ATOM     29  C   UNL     1      -4.904  -9.845   8.004  0.00  0.00    +0.009 A 
ATOM     30  C   UNL     1      -6.883  -8.062   8.832  0.00  0.00    +0.046 A 
ATOM     31  C   UNL     1      -6.095  -9.743   7.285  0.00  0.00    +0.046 A 
ATOM     32  C   UNL     1      -7.085  -8.851   7.699  0.00  0.00    +0.120 A 
BRANCH  32   5
ATOM      5  O   UNL     1      -8.246  -8.749   6.997  0.00  0.00    -0.495 OA
ATOM     33  C   UNL     1      -8.899  -7.480   7.000  0.00  0.00    +0.277 C 
ENDBRANCH  32   5
ENDBRANCH  25  26
ENDBRANCH   7  25
ENDBRANCH  19  22
ENDBRANCH  14  19
TORSDOF 9
ENDMDL
MODEL 5
REMARK VINA RESULT:      -6.4     20.808     22.859
REMARK  Name = 45361508
REMARK  14 active torsions:
REMARK  status: ('A' for Active; 'I' for Inactive)
REMARK    1  A    between atoms: O_1  and  C_11
REMARK    2  A    between atoms: O_4  and  C_24
REMARK    3  A    between atoms: O_4  and  C_27
REMARK    4  A    between atoms: O_5  and  C_32
REMARK    5  A    between atoms: O_5  and  C_33
REMARK    6  A    between atoms: N_6  and  C_15
REMARK    7  A    between atoms: N_7  and  C_25
REMARK    8  A    between atoms: C_8  and  C_18
REMARK    9  A    between atoms: C_10  and  C_20
REMARK   10  A    between atoms: C_14  and  C_19
REMARK   11  A    between atoms: C_19  and  C_21
REMARK   12  A    between atoms: C_19  and  C_22
REMARK   13  A    between atoms: C_23  and  C_24
REMARK   14  A    between atoms: C_25  and  C_26
REMARK                            x       y       z     vdW  Elec       q    Type
REMARK                         _______ _______ _______ _____ _____    ______ ____
ROOT
ATOM      8  C   UNL     1      -5.100 -12.583   9.918  0.00  0.00    -0.027 C 
ATOM      9  C   UNL     1      -4.613 -11.121  10.192  0.00  0.00    +0.028 C 
ATOM     10  C   UNL     1      -4.626 -10.271   8.871  0.00  0.00    +0.012 C 
ATOM     11  C   UNL     1      -3.272 -11.111  10.980  0.00  0.00    +0.122 C 
ATOM     12  C   UNL     1      -5.182 -13.359  11.254  0.00  0.00    +0.007 C 
ATOM     13  C   UNL     1      -6.521 -12.536   9.311  0.00  0.00    +0.009 C 
ATOM     14  C   UNL     1      -3.329 -11.974  12.263  0.00  0.00    +0.029 C 
ATOM     15  C   UNL     1      -6.042 -10.293   8.230  0.00  0.00    +0.076 C 
ATOM     16  C   UNL     1      -3.860 -13.384  12.010  0.00  0.00    +0.007 C 
ATOM     17  C   UNL     1      -6.601 -11.703   8.041  0.00  0.00    +0.023 C 
ATOM     18  C   UNL     1      -4.158 -13.351   8.955  0.00  0.00    +0.011 C 
ATOM     20  C   UNL     1      -4.185  -8.811   9.074  0.00  0.00    +0.010 C 
ENDROOT
BRANCH  15   6
ATOM      3  O   UNL     1      -8.314  -9.037   6.954  0.00  0.00    -0.273 OA
ATOM      6  N   UNL     1      -6.062  -9.616   6.950  0.00  0.00    -0.310 N 
ATOM     23  C   UNL     1      -7.207  -9.044   6.423  0.00  0.00    +0.239 C 
ATOM     34  H   UNL     1      -5.211  -9.620   6.395  0.00  0.00    +0.149 HD
BRANCH  23  24
ATOM     24  C   UNL     1      -6.941  -8.405   5.077  0.00  0.00    +0.255 C 
BRANCH  24   4
ATOM      4  O   UNL     1      -7.993  -8.681   4.178  0.00  0.00    -0.374 OA
ATOM     27  C   UNL     1      -7.777  -9.897   3.466  0.00  0.00    +0.194 C 
ENDBRANCH  24   4
ENDBRANCH  23  24
ENDBRANCH  15   6
BRANCH  11   1
ATOM      1  O   UNL     1      -2.973  -9.779  11.397  0.00  0.00    -0.391 OA
ATOM     35  H   UNL     1      -3.303  -9.167  10.716  0.00  0.00    +0.210 HD
ENDBRANCH  11   1
BRANCH  14  19
ATOM     19  C   UNL     1      -1.963 -12.057  12.954  0.00  0.00    +0.077 C 
ATOM     21  C   UNL     1      -1.671 -13.496  13.367  0.00  0.00    +0.017 C 
BRANCH  19  22
ATOM      2  O   UNL     1      -1.510  -9.963  14.086  0.00  0.00    -0.276 OA
ATOM      7  N   UNL     1      -2.419 -11.711  15.309  0.00  0.00    -0.311 N 
ATOM     22  C   UNL     1      -1.930 -11.116  14.155  0.00  0.00    +0.216 C 
ATOM     36  H   UNL     1      -2.797 -12.652  15.274  0.00  0.00    +0.149 HD
BRANCH   7  25
ATOM     25  C   UNL     1      -2.487 -11.021  16.576  0.00  0.00    +0.139 C 
BRANCH  25  26
ATOM     26  C   UNL     1      -3.904 -10.811  17.026  0.00  0.00    -0.030 A 
ATOM     28  C   UNL     1      -4.792 -10.092  16.227  0.00  0.00    +0.009 A 
ATOM     29  C   UNL     1      -4.334 -11.340  18.244  0.00  0.00    +0.009 A 
ATOM     30  C   UNL     1      -6.108  -9.899  16.645  0.00  0.00    +0.046 A 
ATOM     31  C   UNL     1      -5.649 -11.146  18.663  0.00  0.00    +0.046 A 
ATOM     32  C   UNL     1      -6.537 -10.426  17.864  0.00  0.00    +0.120 A 
BRANCH  32   5
ATOM      5  O   UNL     1      -7.822 -10.238  18.271  0.00  0.00    -0.495 OA
ATOM     33  C   UNL     1      -8.336 -11.151  19.240  0.00  0.00    +0.277 C 
ENDBRANCH  32   5
ENDBRANCH  25  26
ENDBRANCH   7  25
ENDBRANCH  19  22
ENDBRANCH  14  19
TORSDOF 9
ENDMDL
MODEL 6
REMARK VINA RESULT:      -6.4     27.675     34.110
REMARK  Name = 45361508
REMARK  14 active torsions:
REMARK  status: ('A' for Active; 'I' for Inactive)
REMARK    1  A    between atoms: O_1  and  C_11
REMARK    2  A    between atoms: O_4  and  C_24
REMARK    3  A    between atoms: O_4  and  C_27
REMARK    4  A    between atoms: O_5  and  C_32
REMARK    5  A    between atoms: O_5  and  C_33
REMARK    6  A    between atoms: N_6  and  C_15
REMARK    7  A    between atoms: N_7  and  C_25
REMARK    8  A    between atoms: C_8  and  C_18
REMARK    9  A    between atoms: C_10  and  C_20
REMARK   10  A    between atoms: C_14  and  C_19
REMARK   11  A    between atoms: C_19  and  C_21
REMARK   12  A    between atoms: C_19  and  C_22
REMARK   13  A    between atoms: C_23  and  C_24
REMARK   14  A    between atoms: C_25  and  C_26
REMARK                            x       y       z     vdW  Elec       q    Type
REMARK                         _______ _______ _______ _____ _____    ______ ____
ROOT
ATOM      8  C   UNL     1       9.412   6.461   6.358  0.00  0.00    -0.027 C 
ATOM      9  C   UNL     1      10.512   7.446   5.842  0.00  0.00    +0.028 C 
ATOM     10  C   UNL     1      10.151   8.930   6.211  0.00  0.00    +0.012 C 
ATOM     11  C   UNL     1      10.840   7.191   4.342  0.00  0.00    +0.122 C 
ATOM     12  C   UNL     1       9.851   5.004   6.078  0.00  0.00    +0.007 C 
ATOM     13  C   UNL     1       9.266   6.624   7.888  0.00  0.00    +0.009 C 
ATOM     14  C   UNL     1      11.178   5.710   4.051  0.00  0.00    +0.029 C 
ATOM     15  C   UNL     1       9.934   9.066   7.744  0.00  0.00    +0.076 C 
ATOM     16  C   UNL     1      10.136   4.740   4.605  0.00  0.00    +0.007 C 
ATOM     17  C   UNL     1       8.942   8.049   8.309  0.00  0.00    +0.023 C 
ATOM     18  C   UNL     1       8.036   6.702   5.685  0.00  0.00    +0.011 C 
ATOM     20  C   UNL     1      11.208   9.952   5.757  0.00  0.00    +0.010 C 
ENDROOT
BRANCH  15   6
ATOM      3  O   UNL     1      11.302  10.970   9.438  0.00  0.00    -0.273 OA
ATOM      6  N   UNL     1       9.485  10.394   8.106  0.00  0.00    -0.310 N 
ATOM     23  C   UNL     1      10.217  11.234   8.928  0.00  0.00    +0.239 C 
ATOM     34  H   UNL     1       8.566  10.690   7.790  0.00  0.00    +0.149 HD
BRANCH  23  24
ATOM     24  C   UNL     1       9.515  12.558   9.139  0.00  0.00    +0.255 C 
BRANCH  24   4
ATOM      4  O   UNL     1       8.171  12.355   9.522  0.00  0.00    -0.374 OA
ATOM     27  C   UNL     1       7.901  12.890  10.815  0.00  0.00    +0.194 C 
ENDBRANCH  24   4
ENDBRANCH  23  24
ENDBRANCH  15   6
BRANCH  11   1
ATOM      1  O   UNL     1      11.988   7.954   3.969  0.00  0.00    -0.391 OA
ATOM     35  H   UNL     1      11.767   8.460   3.168  0.00  0.00    +0.210 HD
ENDBRANCH  11   1
BRANCH  14  19
ATOM     19  C   UNL     1      11.369   5.455   2.551  0.00  0.00    +0.077 C 
ATOM     21  C   UNL     1      10.533   4.257   2.112  0.00  0.00    +0.017 C 
BRANCH  19  22
ATOM      2  O   UNL     1      13.678   6.146   2.310  0.00  0.00    -0.276 OA
ATOM      7  N   UNL     1      13.134   3.932   1.886  0.00  0.00    -0.311 N 
ATOM     22  C   UNL     1      12.849   5.242   2.244  0.00  0.00    +0.216 C 
ATOM     36  H   UNL     1      12.401   3.230   1.906  0.00  0.00    +0.149 HD
BRANCH   7  25
ATOM     25  C   UNL     1      14.465   3.486   1.549  0.00  0.00    +0.139 C 
BRANCH  25  26
ATOM     26  C   UNL     1      14.858   3.894   0.158  0.00  0.00    -0.030 A 
ATOM     28  C   UNL     1      16.171   4.279  -0.112  0.00  0.00    +0.009 A 
ATOM     29  C   UNL     1      13.909   3.885  -0.865  0.00  0.00    +0.009 A 
ATOM     30  C   UNL     1      16.535   4.657  -1.405  0.00  0.00    +0.046 A 
ATOM     31  C   UNL     1      14.273   4.264  -2.157  0.00  0.00    +0.046 A 
ATOM     32  C   UNL     1      15.586   4.650  -2.427  0.00  0.00    +0.120 A 
BRANCH  32   5
ATOM      5  O   UNL     1      15.942   5.017  -3.688  0.00  0.00    -0.495 OA
ATOM     33  C   UNL     1      15.011   5.813  -4.420  0.00  0.00    +0.277 C 
ENDBRANCH  32   5
ENDBRANCH  25  26
ENDBRANCH   7  25
ENDBRANCH  19  22
ENDBRANCH  14  19
TORSDOF 9
ENDMDL
MODEL 7
REMARK VINA RESULT:      -6.4     19.623     23.336
REMARK  Name = 45361508
REMARK  14 active torsions:
REMARK  status: ('A' for Active; 'I' for Inactive)
REMARK    1  A    between atoms: O_1  and  C_11
REMARK    2  A    between atoms: O_4  and  C_24
REMARK    3  A    between atoms: O_4  and  C_27
REMARK    4  A    between atoms: O_5  and  C_32
REMARK    5  A    between atoms: O_5  and  C_33
REMARK    6  A    between atoms: N_6  and  C_15
REMARK    7  A    between atoms: N_7  and  C_25
REMARK    8  A    between atoms: C_8  and  C_18
REMARK    9  A    between atoms: C_10  and  C_20
REMARK   10  A    between atoms: C_14  and  C_19
REMARK   11  A    between atoms: C_19  and  C_21
REMARK   12  A    between atoms: C_19  and  C_22
REMARK   13  A    between atoms: C_23  and  C_24
REMARK   14  A    between atoms: C_25  and  C_26
REMARK                            x       y       z     vdW  Elec       q    Type
REMARK                         _______ _______ _______ _____ _____    ______ ____
ROOT
ATOM      8  C   UNL     1      -5.398 -11.217  17.798  0.00  0.00    -0.027 C 
ATOM      9  C   UNL     1      -5.650 -12.384  16.786  0.00  0.00    +0.028 C 
ATOM     10  C   UNL     1      -6.397 -13.577  17.482  0.00  0.00    +0.012 C 
ATOM     11  C   UNL     1      -4.346 -12.763  16.027  0.00  0.00    +0.122 C 
ATOM     12  C   UNL     1      -4.764 -10.017  17.056  0.00  0.00    +0.007 C 
ATOM     13  C   UNL     1      -6.754 -10.750  18.377  0.00  0.00    +0.009 C 
ATOM     14  C   UNL     1      -3.660 -11.541  15.374  0.00  0.00    +0.029 C 
ATOM     15  C   UNL     1      -7.722 -13.080  18.125  0.00  0.00    +0.076 C 
ATOM     16  C   UNL     1      -3.466 -10.376  16.344  0.00  0.00    +0.007 C 
ATOM     17  C   UNL     1      -7.537 -11.872  19.043  0.00  0.00    +0.023 C 
ATOM     18  C   UNL     1      -4.462 -11.632  18.962  0.00  0.00    +0.011 C 
ATOM     20  C   UNL     1      -6.703 -14.749  16.535  0.00  0.00    +0.010 C 
ENDROOT
BRANCH  15   6
ATOM      3  O   UNL     1     -10.570 -13.526  18.376  0.00  0.00    -0.273 OA
ATOM      6  N   UNL     1      -8.380 -14.129  18.876  0.00  0.00    -0.310 N 
ATOM     23  C   UNL     1      -9.757 -14.259  18.934  0.00  0.00    +0.239 C 
ATOM     34  H   UNL     1      -7.802 -14.754  19.430  0.00  0.00    +0.149 HD
BRANCH  23  24
ATOM     24  C   UNL     1     -10.171 -15.439  19.786  0.00  0.00    +0.255 C 
BRANCH  24   4
ATOM      4  O   UNL     1     -10.983 -15.018  20.861  0.00  0.00    -0.374 OA
ATOM     27  C   UNL     1     -10.211 -14.699  22.016  0.00  0.00    +0.194 C 
ENDBRANCH  24   4
ENDBRANCH  23  24
ENDBRANCH  15   6
BRANCH  11   1
ATOM      1  O   UNL     1      -4.656 -13.671  14.970  0.00  0.00    -0.391 OA
ATOM     35  H   UNL     1      -5.445 -14.178  15.228  0.00  0.00    +0.210 HD
ENDBRANCH  11   1
BRANCH  14  19
ATOM     19  C   UNL     1      -2.312 -11.913  14.744  0.00  0.00    +0.077 C 
ATOM     21  C   UNL     1      -1.210 -11.013  15.294  0.00  0.00    +0.017 C 
BRANCH  19  22
ATOM      2  O   UNL     1      -2.628 -12.788  12.508  0.00  0.00    -0.276 OA
ATOM      7  N   UNL     1      -2.202 -10.523  12.762  0.00  0.00    -0.311 N 
ATOM     22  C   UNL     1      -2.403 -11.815  13.224  0.00  0.00    +0.216 C 
ATOM     36  H   UNL     1      -2.073  -9.763  13.423  0.00  0.00    +0.149 HD
BRANCH   7  25
ATOM     25  C   UNL     1      -2.238 -10.179  11.360  0.00  0.00    +0.139 C 
BRANCH  25  26
ATOM     26  C   UNL     1      -3.599  -9.706  10.933  0.00  0.00    -0.030 A 
ATOM     28  C   UNL     1      -3.802  -9.251   9.631  0.00  0.00    +0.009 A 
ATOM     29  C   UNL     1      -4.659  -9.725  11.840  0.00  0.00    +0.009 A 
ATOM     30  C   UNL     1      -5.066  -8.811   9.235  0.00  0.00    +0.046 A 
ATOM     31  C   UNL     1      -5.922  -9.286  11.445  0.00  0.00    +0.046 A 
ATOM     32  C   UNL     1      -6.126  -8.829  10.142  0.00  0.00    +0.120 A 
BRANCH  32   5
ATOM      5  O   UNL     1      -7.359  -8.402   9.755  0.00  0.00    -0.495 OA
ATOM     33  C   UNL     1      -7.446  -7.710   8.510  0.00  0.00    +0.277 C 
ENDBRANCH  32   5
ENDBRANCH  25  26
ENDBRANCH   7  25
ENDBRANCH  19  22
ENDBRANCH  14  19
TORSDOF 9
ENDMDL
MODEL 8
REMARK VINA RESULT:      -6.3      1.972      3.237
REMARK  Name = 45361508
REMARK  14 active torsions:
REMARK  status: ('A' for Active; 'I' for Inactive)
REMARK    1  A    between atoms: O_1  and  C_11
REMARK    2  A    between atoms: O_4  and  C_24
REMARK    3  A    between atoms: O_4  and  C_27
REMARK    4  A    between atoms: O_5  and  C_32
REMARK    5  A    between atoms: O_5  and  C_33
REMARK    6  A    between atoms: N_6  and  C_15
REMARK    7  A    between atoms: N_7  and  C_25
REMARK    8  A    between atoms: C_8  and  C_18
REMARK    9  A    between atoms: C_10  and  C_20
REMARK   10  A    between atoms: C_14  and  C_19
REMARK   11  A    between atoms: C_19  and  C_21
REMARK   12  A    between atoms: C_19  and  C_22
REMARK   13  A    between atoms: C_23  and  C_24
REMARK   14  A    between atoms: C_25  and  C_26
REMARK                            x       y       z     vdW  Elec       q    Type
REMARK                         _______ _______ _______ _____ _____    ______ ____
ROOT
ATOM      8  C   UNL     1     -12.994   7.096  20.978  0.00  0.00    -0.027 C 
ATOM      9  C   UNL     1     -14.067   7.017  19.842  0.00  0.00    +0.028 C 
ATOM     10  C   UNL     1     -13.900   8.207  18.830  0.00  0.00    +0.012 C 
ATOM     11  C   UNL     1     -15.497   6.832  20.427  0.00  0.00    +0.122 C 
ATOM     12  C   UNL     1     -13.115   5.852  21.890  0.00  0.00    +0.007 C 
ATOM     13  C   UNL     1     -11.585   7.081  20.343  0.00  0.00    +0.009 C 
ATOM     14  C   UNL     1     -15.586   5.649  21.419  0.00  0.00    +0.029 C 
ATOM     15  C   UNL     1     -12.456   8.226  18.255  0.00  0.00    +0.076 C 
ATOM     16  C   UNL     1     -14.503   5.690  22.496  0.00  0.00    +0.007 C 
ATOM     17  C   UNL     1     -11.372   8.198  19.333  0.00  0.00    +0.023 C 
ATOM     18  C   UNL     1     -13.148   8.368  21.851  0.00  0.00    +0.011 C 
ATOM     20  C   UNL     1     -14.907   8.174  17.669  0.00  0.00    +0.010 C 
ENDROOT
BRANCH  15   6
ATOM      3  O   UNL     1     -10.494   8.488  16.145  0.00  0.00    -0.273 OA
ATOM      6  N   UNL     1     -12.230   9.379  17.409  0.00  0.00    -0.310 N 
ATOM     23  C   UNL     1     -11.262   9.406  16.421  0.00  0.00    +0.239 C 
ATOM     34  H   UNL     1     -12.769  10.221  17.596  0.00  0.00    +0.149 HD
BRANCH  23  24
ATOM     24  C   UNL     1     -11.246  10.732  15.691  0.00  0.00    +0.255 C 
BRANCH  24   4
ATOM      4  O   UNL     1     -10.995  11.792  16.588  0.00  0.00    -0.374 OA
ATOM     27  C   UNL     1      -9.660  11.762  17.086  0.00  0.00    +0.194 C 
ENDBRANCH  24   4
ENDBRANCH  23  24
ENDBRANCH  15   6
BRANCH  11   1
ATOM      1  O   UNL     1     -16.412   6.549  19.369  0.00  0.00    -0.391 OA
ATOM     35  H   UNL     1     -17.300   6.452  19.755  0.00  0.00    +0.210 HD
ENDBRANCH  11   1
BRANCH  14  19
ATOM     19  C   UNL     1     -16.966   5.565  22.082  0.00  0.00    +0.077 C 
ATOM     21  C   UNL     1     -17.003   6.443  23.328  0.00  0.00    +0.017 C 
BRANCH  19  22
ATOM      2  O   UNL     1     -17.603   3.287  21.558  0.00  0.00    -0.276 OA
ATOM      7  N   UNL     1     -17.210   3.847  23.774  0.00  0.00    -0.311 N 
ATOM     22  C   UNL     1     -17.296   4.113  22.415  0.00  0.00    +0.216 C 
ATOM     36  H   UNL     1     -16.898   4.571  24.413  0.00  0.00    +0.149 HD
BRANCH   7  25
ATOM     25  C   UNL     1     -17.478   2.544  24.334  0.00  0.00    +0.139 C 
BRANCH  25  26
ATOM     26  C   UNL     1     -16.947   2.413  25.733  0.00  0.00    -0.030 A 
ATOM     28  C   UNL     1     -16.945   1.170  26.365  0.00  0.00    +0.009 A 
ATOM     29  C   UNL     1     -16.454   3.535  26.398  0.00  0.00    +0.009 A 
ATOM     30  C   UNL     1     -16.451   1.049  27.664  0.00  0.00    +0.046 A 
ATOM     31  C   UNL     1     -15.961   3.416  27.697  0.00  0.00    +0.046 A 
ATOM     32  C   UNL     1     -15.959   2.172  28.330  0.00  0.00    +0.120 A 
BRANCH  32   5
ATOM      5  O   UNL     1     -15.476   2.054  29.597  0.00  0.00    -0.495 OA
ATOM     33  C   UNL     1     -14.587   3.073  30.051  0.00  0.00    +0.277 C 
ENDBRANCH  32   5
ENDBRANCH  25  26
ENDBRANCH   7  25
ENDBRANCH  19  22
ENDBRANCH  14  19
TORSDOF 9
ENDMDL
MODEL 9
REMARK VINA RESULT:      -6.2     29.723     33.858
REMARK  Name = 45361508
REMARK  14 active torsions:
REMARK  status: ('A' for Active; 'I' for Inactive)
REMARK    1  A    between atoms: O_1  and  C_11
REMARK    2  A    between atoms: O_4  and  C_24
REMARK    3  A    between atoms: O_4  and  C_27
REMARK    4  A    between atoms: O_5  and  C_32
REMARK    5  A    between atoms: O_5  and  C_33
REMARK    6  A    between atoms: N_6  and  C_15
REMARK    7  A    between atoms: N_7  and  C_25
REMARK    8  A    between atoms: C_8  and  C_18
REMARK    9  A    between atoms: C_10  and  C_20
REMARK   10  A    between atoms: C_14  and  C_19
REMARK   11  A    between atoms: C_19  and  C_21
REMARK   12  A    between atoms: C_19  and  C_22
REMARK   13  A    between atoms: C_23  and  C_24
REMARK   14  A    between atoms: C_25  and  C_26
REMARK                            x       y       z     vdW  Elec       q    Type
REMARK                         _______ _______ _______ _____ _____    ______ ____
ROOT
ATOM      8  C   UNL     1      17.116   9.937  20.917  0.00  0.00    -0.027 C 
ATOM      9  C   UNL     1      17.035   8.458  20.413  0.00  0.00    +0.028 C 
ATOM     10  C   UNL     1      15.546   8.043  20.134  0.00  0.00    +0.012 C 
ATOM     11  C   UNL     1      17.834   7.500  21.343  0.00  0.00    +0.122 C 
ATOM     12  C   UNL     1      18.599  10.349  21.074  0.00  0.00    +0.007 C 
ATOM     13  C   UNL     1      16.477  10.866  19.860  0.00  0.00    +0.009 C 
ATOM     14  C   UNL     1      19.287   7.974  21.579  0.00  0.00    +0.029 C 
ATOM     15  C   UNL     1      14.891   9.029  19.126  0.00  0.00    +0.076 C 
ATOM     16  C   UNL     1      19.374   9.436  22.014  0.00  0.00    +0.007 C 
ATOM     17  C   UNL     1      15.039  10.496  19.529  0.00  0.00    +0.023 C 
ATOM     18  C   UNL     1      16.398  10.141  22.276  0.00  0.00    +0.011 C 
ATOM     20  C   UNL     1      15.396   6.606  19.607  0.00  0.00    +0.010 C 
ENDROOT
BRANCH  15   6
ATOM      3  O   UNL     1      13.648   7.838  16.801  0.00  0.00    -0.273 OA
ATOM      6  N   UNL     1      13.484   8.745  18.936  0.00  0.00    -0.310 N 
ATOM     23  C   UNL     1      12.985   8.170  17.780  0.00  0.00    +0.239 C 
ATOM     34  H   UNL     1      12.836   9.040  19.661  0.00  0.00    +0.149 HD
BRANCH  23  24
ATOM     24  C   UNL     1      11.484   7.986  17.852  0.00  0.00    +0.255 C 
BRANCH  24   4
ATOM      4  O   UNL     1      10.940   7.820  16.560  0.00  0.00    -0.374 OA
ATOM     27  C   UNL     1      10.734   9.070  15.907  0.00  0.00    +0.194 C 
ENDBRANCH  24   4
ENDBRANCH  23  24
ENDBRANCH  15   6
BRANCH  11   1
ATOM      1  O   UNL     1      17.918   6.209  20.739  0.00  0.00    -0.391 OA
ATOM     35  H   UNL     1      18.150   6.328  19.801  0.00  0.00    +0.210 HD
ENDBRANCH  11   1
BRANCH  14  19
ATOM     19  C   UNL     1      20.015   7.091  22.599  0.00  0.00    +0.077 C 
ATOM     21  C   UNL     1      20.334   7.895  23.855  0.00  0.00    +0.017 C 
BRANCH  19  22
ATOM      2  O   UNL     1      22.374   7.066  22.047  0.00  0.00    -0.276 OA
ATOM      7  N   UNL     1      21.048   5.305  21.327  0.00  0.00    -0.311 N 
ATOM     22  C   UNL     1      21.280   6.510  21.974  0.00  0.00    +0.216 C 
ATOM     36  H   UNL     1      20.125   4.884  21.356  0.00  0.00    +0.149 HD
BRANCH   7  25
ATOM     25  C   UNL     1      22.090   4.563  20.658  0.00  0.00    +0.139 C 
BRANCH  25  26
ATOM     26  C   UNL     1      22.668   3.490  21.536  0.00  0.00    -0.030 A 
ATOM     28  C   UNL     1      22.326   3.433  22.886  0.00  0.00    +0.009 A 
ATOM     29  C   UNL     1      23.545   2.547  20.999  0.00  0.00    +0.009 A 
ATOM     30  C   UNL     1      22.862   2.436  23.701  0.00  0.00    +0.046 A 
ATOM     31  C   UNL     1      24.081   1.550  21.812  0.00  0.00    +0.046 A 
ATOM     32  C   UNL     1      23.740   1.494  23.164  0.00  0.00    +0.120 A 
BRANCH  32   5
ATOM      5  O   UNL     1      24.262   0.520  23.959  0.00  0.00    -0.495 OA
ATOM     33  C   UNL     1      25.665   0.280  23.856  0.00  0.00    +0.277 C 
ENDBRANCH  32   5
ENDBRANCH  25  26
ENDBRANCH   7  25
ENDBRANCH  19  22
ENDBRANCH  14  19
TORSDOF 9
ENDMDL
MODEL 10
REMARK VINA RESULT:      -6.2     28.452     31.481
REMARK  Name = 45361508
REMARK  14 active torsions:
REMARK  status: ('A' for Active; 'I' for Inactive)
REMARK    1  A    between atoms: O_1  and  C_11
REMARK    2  A    between atoms: O_4  and  C_24
REMARK    3  A    between atoms: O_4  and  C_27
REMARK    4  A    between atoms: O_5  and  C_32
REMARK    5  A    between atoms: O_5  and  C_33
REMARK    6  A    between atoms: N_6  and  C_15
REMARK    7  A    between atoms: N_7  and  C_25
REMARK    8  A    between atoms: C_8  and  C_18
REMARK    9  A    between atoms: C_10  and  C_20
REMARK   10  A    between atoms: C_14  and  C_19
REMARK   11  A    between atoms: C_19  and  C_21
REMARK   12  A    between atoms: C_19  and  C_22
REMARK   13  A    between atoms: C_23  and  C_24
REMARK   14  A    between atoms: C_25  and  C_26
REMARK                            x       y       z     vdW  Elec       q    Type
REMARK                         _______ _______ _______ _____ _____    ______ ____
ROOT
ATOM      8  C   UNL     1       9.809   6.502   6.559  0.00  0.00    -0.027 C 
ATOM      9  C   UNL     1      10.324   7.448   5.424  0.00  0.00    +0.028 C 
ATOM     10  C   UNL     1      11.412   6.731   4.548  0.00  0.00    +0.012 C 
ATOM     11  C   UNL     1      10.732   8.839   5.991  0.00  0.00    +0.122 C 
ATOM     12  C   UNL     1       8.662   7.197   7.330  0.00  0.00    +0.007 C 
ATOM     13  C   UNL     1       9.236   5.215   5.922  0.00  0.00    +0.009 C 
ATOM     14  C   UNL     1       9.617   9.483   6.848  0.00  0.00    +0.029 C 
ATOM     15  C   UNL     1      10.849   5.400   3.974  0.00  0.00    +0.076 C 
ATOM     16  C   UNL     1       9.070   8.541   7.920  0.00  0.00    +0.007 C 
ATOM     17  C   UNL     1      10.239   4.489   5.039  0.00  0.00    +0.023 C 
ATOM     18  C   UNL     1      10.924   6.121   7.566  0.00  0.00    +0.011 C 
ATOM     20  C   UNL     1      11.942   7.596   3.393  0.00  0.00    +0.010 C 
ENDROOT
BRANCH  15   6
ATOM      3  O   UNL     1      10.519   3.941   1.498  0.00  0.00    -0.273 OA
ATOM      6  N   UNL     1      11.862   4.654   3.257  0.00  0.00    -0.310 N 
ATOM     23  C   UNL     1      11.604   3.986   2.073  0.00  0.00    +0.239 C 
ATOM     34  H   UNL     1      12.783   4.572   3.680  0.00  0.00    +0.149 HD
BRANCH  23  24
ATOM     24  C   UNL     1      12.841   3.293   1.543  0.00  0.00    +0.255 C 
BRANCH  24   4
ATOM      4  O   UNL     1      12.764   3.141   0.141  0.00  0.00    -0.374 OA
ATOM     27  C   UNL     1      13.826   3.820  -0.524  0.00  0.00    +0.194 C 
ENDBRANCH  24   4
ENDBRANCH  23  24
ENDBRANCH  15   6
BRANCH  11   1
ATOM      1  O   UNL     1      10.988   9.737   4.911  0.00  0.00    -0.391 OA
ATOM     35  H   UNL     1      10.995   9.224   4.085  0.00  0.00    +0.210 HD
ENDBRANCH  11   1
BRANCH  14  19
ATOM     19  C   UNL     1      10.085  10.788   7.503  0.00  0.00    +0.077 C 
ATOM     21  C   UNL     1      10.115  10.632   9.020  0.00  0.00    +0.017 C 
BRANCH  19  22
ATOM      2  O   UNL     1       9.008  12.941   7.769  0.00  0.00    -0.276 OA
ATOM      7  N   UNL     1       8.574  11.714   5.850  0.00  0.00    -0.311 N 
ATOM     22  C   UNL     1       9.176  11.938   7.079  0.00  0.00    +0.216 C 
ATOM     36  H   UNL     1       8.805  10.882   5.316  0.00  0.00    +0.149 HD
BRANCH   7  25
ATOM     25  C   UNL     1       7.669  12.659   5.239  0.00  0.00    +0.139 C 
BRANCH  25  26
ATOM     26  C   UNL     1       6.581  11.973   4.463  0.00  0.00    -0.030 A 
ATOM     28  C   UNL     1       6.780  10.683   3.972  0.00  0.00    +0.009 A 
ATOM     29  C   UNL     1       5.370  12.628   4.235  0.00  0.00    +0.009 A 
ATOM     30  C   UNL     1       5.769  10.047   3.252  0.00  0.00    +0.046 A 
ATOM     31  C   UNL     1       4.359  11.993   3.514  0.00  0.00    +0.046 A 
ATOM     32  C   UNL     1       4.558  10.702   3.022  0.00  0.00    +0.120 A 
BRANCH  32   5
ATOM      5  O   UNL     1       3.572  10.081   2.320  0.00  0.00    -0.495 OA
ATOM     33  C   UNL     1       2.393  10.838   2.047  0.00  0.00    +0.277 C 
ENDBRANCH  32   5
ENDBRANCH  25  26
ENDBRANCH   7  25
ENDBRANCH  19  22
ENDBRANCH  14  19
TORSDOF 9
ENDMDL
