MODEL 1
REMARK VINA RESULT:      -7.2      0.000      0.000
REMARK  Name = 26742287
REMARK  6 active torsions:
REMARK  status: ('A' for Active; 'I' for Inactive)
REMARK    1  A    between atoms: O_3  and  C_20
REMARK    2  A    between atoms: O_3  and  C_26
REMARK    3  A    between atoms: O_4  and  C_25
REMARK    4  A    between atoms: O_4  and  C_29
REMARK    5  A    between atoms: C_14  and  C_19
REMARK    6  A    between atoms: C_16  and  C_20
REMARK                            x       y       z     vdW  Elec       q    Type
REMARK                         _______ _______ _______ _____ _____    ______ ____
ROOT
ATOM      1  O   UNL     1       7.168   9.038   4.385  0.00  0.00    -0.268 OA
ATOM      2  O   UNL     1      11.316   9.994   7.485  0.00  0.00    -0.272 OA
ATOM      5  N   UNL     1      11.230   7.731   6.969  0.00  0.00    -0.298 N 
ATOM      6  N   UNL     1       8.778   7.437   4.961  0.00  0.00    -0.311 N 
ATOM      7  C   UNL     1       9.042   6.609   7.373  0.00  0.00    +0.027 C 
ATOM      8  C   UNL     1      10.535   5.762   5.614  0.00  0.00    +0.054 C 
ATOM      9  C   UNL     1       9.576   5.341   6.726  0.00  0.00    +0.018 C 
ATOM     10  C   UNL     1      10.191   7.448   7.959  0.00  0.00    +0.113 C 
ATOM     11  C   UNL     1       8.242   7.388   6.328  0.00  0.00    +0.130 C 
ATOM     12  C   UNL     1      11.708   6.560   6.221  0.00  0.00    +0.117 C 
ATOM     13  C   UNL     1       9.827   6.595   4.541  0.00  0.00    +0.034 A 
ATOM     14  C   UNL     1      10.189   6.566   3.233  0.00  0.00    +0.002 A 
ATOM     15  C   UNL     1       8.097   8.292   4.076  0.00  0.00    +0.252 A 
ATOM     16  C   UNL     1      11.733   9.026   6.846  0.00  0.00    +0.253 C 
ATOM     17  C   UNL     1       9.511   7.437   2.291  0.00  0.00    +0.015 A 
ATOM     18  C   UNL     1       8.536   8.267   2.662  0.00  0.00    +0.071 A 
ENDROOT
BRANCH  14  19
ATOM     19  C   UNL     1      11.270   5.683   2.742  0.00  0.00    -0.016 A 
ATOM     21  C   UNL     1      11.016   4.331   2.514  0.00  0.00    +0.012 A 
ATOM     22  C   UNL     1      12.543   6.202   2.511  0.00  0.00    +0.012 A 
ATOM     23  C   UNL     1      12.035   3.498   2.053  0.00  0.00    +0.046 A 
ATOM     24  C   UNL     1      13.563   5.370   2.050  0.00  0.00    +0.046 A 
ATOM     25  C   UNL     1      13.308   4.017   1.821  0.00  0.00    +0.120 A 
BRANCH  25   4
ATOM      4  O   UNL     1      14.303   3.203   1.372  0.00  0.00    -0.495 OA
ATOM     29  C   UNL     1      15.416   3.829   0.735  0.00  0.00    +0.277 C 
ENDBRANCH  25   4
ENDBRANCH  14  19
BRANCH  16  20
ATOM     20  C   UNL     1      12.851   9.224   5.854  0.00  0.00    +0.324 C 
BRANCH  20   3
ATOM      3  O   UNL     1      14.054   9.034   6.560  0.00  0.00    -0.483 OA
BRANCH   3  26
ATOM     26  C   UNL     1      15.175   8.719   5.826  0.00  0.00    +0.121 A 
ATOM     27  C   UNL     1      15.065   7.906   4.698  0.00  0.00    +0.045 A 
ATOM     28  C   UNL     1      16.422   9.211   6.211  0.00  0.00    +0.045 A 
ATOM     30  C   UNL     1      16.201   7.586   3.954  0.00  0.00    +0.004 A 
ATOM     31  C   UNL     1      17.558   8.890   5.469  0.00  0.00    +0.004 A 
ATOM     32  C   UNL     1      17.448   8.078   4.340  0.00  0.00    +0.000 A 
ENDBRANCH   3  26
ENDBRANCH  20   3
ENDBRANCH  16  20
TORSDOF 5
ENDMDL
MODEL 2
REMARK VINA RESULT:      -6.8      1.427      1.916
REMARK  Name = 26742287
REMARK  6 active torsions:
REMARK  status: ('A' for Active; 'I' for Inactive)
REMARK    1  A    between atoms: O_3  and  C_20
REMARK    2  A    between atoms: O_3  and  C_26
REMARK    3  A    between atoms: O_4  and  C_25
REMARK    4  A    between atoms: O_4  and  C_29
REMARK    5  A    between atoms: C_14  and  C_19
REMARK    6  A    between atoms: C_16  and  C_20
REMARK                            x       y       z     vdW  Elec       q    Type
REMARK                         _______ _______ _______ _____ _____    ______ ____
ROOT
ATOM      1  O   UNL     1       7.168   9.141   4.441  0.00  0.00    -0.268 OA
ATOM      2  O   UNL     1      11.415  10.043   7.422  0.00  0.00    -0.272 OA
ATOM      5  N   UNL     1      11.252   7.773   6.960  0.00  0.00    -0.298 N 
ATOM      6  N   UNL     1       8.746   7.507   5.016  0.00  0.00    -0.311 N 
ATOM      7  C   UNL     1       9.043   6.725   7.440  0.00  0.00    +0.027 C 
ATOM      8  C   UNL     1      10.468   5.795   5.667  0.00  0.00    +0.054 C 
ATOM      9  C   UNL     1       9.524   5.427   6.810  0.00  0.00    +0.018 C 
ATOM     10  C   UNL     1      10.229   7.542   7.980  0.00  0.00    +0.113 C 
ATOM     11  C   UNL     1       8.241   7.503   6.397  0.00  0.00    +0.130 C 
ATOM     12  C   UNL     1      11.678   6.572   6.228  0.00  0.00    +0.117 C 
ATOM     13  C   UNL     1       9.759   6.625   4.592  0.00  0.00    +0.034 A 
ATOM     14  C   UNL     1      10.089   6.556   3.277  0.00  0.00    +0.002 A 
ATOM     15  C   UNL     1       8.069   8.361   4.128  0.00  0.00    +0.252 A 
ATOM     16  C   UNL     1      11.789   9.049   6.795  0.00  0.00    +0.253 C 
ATOM     17  C   UNL     1       9.415   7.425   2.331  0.00  0.00    +0.015 A 
ATOM     18  C   UNL     1       8.473   8.291   2.705  0.00  0.00    +0.071 A 
ENDROOT
BRANCH  14  19
ATOM     19  C   UNL     1      11.132   5.631   2.782  0.00  0.00    -0.016 A 
ATOM     21  C   UNL     1      10.824   4.290   2.552  0.00  0.00    +0.012 A 
ATOM     22  C   UNL     1      12.425   6.098   2.548  0.00  0.00    +0.012 A 
ATOM     23  C   UNL     1      11.807   3.418   2.087  0.00  0.00    +0.046 A 
ATOM     24  C   UNL     1      13.409   5.226   2.082  0.00  0.00    +0.046 A 
ATOM     25  C   UNL     1      13.099   3.885   1.853  0.00  0.00    +0.120 A 
BRANCH  25   4
ATOM      4  O   UNL     1      14.059   3.033   1.399  0.00  0.00    -0.495 OA
ATOM     29  C   UNL     1      15.356   3.580   1.168  0.00  0.00    +0.277 C 
ENDBRANCH  25   4
ENDBRANCH  14  19
BRANCH  16  20
ATOM     20  C   UNL     1      12.889   9.192   5.774  0.00  0.00    +0.324 C 
BRANCH  20   3
ATOM      3  O   UNL     1      12.318   9.827   4.655  0.00  0.00    -0.483 OA
BRANCH   3  26
ATOM     26  C   UNL     1      12.902   9.593   3.430  0.00  0.00    +0.121 A 
ATOM     27  C   UNL     1      12.165   9.778   2.259  0.00  0.00    +0.045 A 
ATOM     28  C   UNL     1      14.228   9.169   3.358  0.00  0.00    +0.045 A 
ATOM     30  C   UNL     1      12.755   9.540   1.018  0.00  0.00    +0.004 A 
ATOM     31  C   UNL     1      14.818   8.931   2.117  0.00  0.00    +0.004 A 
ATOM     32  C   UNL     1      14.082   9.117   0.947  0.00  0.00    +0.000 A 
ENDBRANCH   3  26
ENDBRANCH  20   3
ENDBRANCH  16  20
TORSDOF 5
ENDMDL
MODEL 3
REMARK VINA RESULT:      -6.5     24.553     28.021
REMARK  Name = 26742287
REMARK  6 active torsions:
REMARK  status: ('A' for Active; 'I' for Inactive)
REMARK    1  A    between atoms: O_3  and  C_20
REMARK    2  A    between atoms: O_3  and  C_26
REMARK    3  A    between atoms: O_4  and  C_25
REMARK    4  A    between atoms: O_4  and  C_29
REMARK    5  A    between atoms: C_14  and  C_19
REMARK    6  A    between atoms: C_16  and  C_20
REMARK                            x       y       z     vdW  Elec       q    Type
REMARK                         _______ _______ _______ _____ _____    ______ ____
ROOT
ATOM      1  O   UNL     1      -1.019 -12.456  13.638  0.00  0.00    -0.268 OA
ATOM      2  O   UNL     1      -5.563 -13.008  11.034  0.00  0.00    -0.272 OA
ATOM      5  N   UNL     1      -5.811 -13.776  13.212  0.00  0.00    -0.298 N 
ATOM      6  N   UNL     1      -3.021 -13.173  14.620  0.00  0.00    -0.311 N 
ATOM      7  C   UNL     1      -4.099 -15.411  13.986  0.00  0.00    +0.027 C 
ATOM      8  C   UNL     1      -5.197 -13.939  15.619  0.00  0.00    +0.054 C 
ATOM      9  C   UNL     1      -4.687 -15.360  15.388  0.00  0.00    +0.018 C 
ATOM     10  C   UNL     1      -5.164 -15.058  12.935  0.00  0.00    +0.113 C 
ATOM     11  C   UNL     1      -2.901 -14.463  13.927  0.00  0.00    +0.130 C 
ATOM     12  C   UNL     1      -6.299 -13.614  14.588  0.00  0.00    +0.117 C 
ATOM     13  C   UNL     1      -4.067 -12.910  15.527  0.00  0.00    +0.034 A 
ATOM     14  C   UNL     1      -4.056 -11.765  16.258  0.00  0.00    +0.002 A 
ATOM     15  C   UNL     1      -1.963 -12.272  14.407  0.00  0.00    +0.252 A 
ATOM     16  C   UNL     1      -5.982 -12.850  12.183  0.00  0.00    +0.253 C 
ATOM     17  C   UNL     1      -2.982 -10.810  16.063  0.00  0.00    +0.015 A 
ATOM     18  C   UNL     1      -1.995 -11.016  15.191  0.00  0.00    +0.071 A 
ENDROOT
BRANCH  14  19
ATOM     19  C   UNL     1      -5.122 -11.455  17.237  0.00  0.00    -0.016 A 
ATOM     21  C   UNL     1      -5.032 -11.940  18.542  0.00  0.00    +0.012 A 
ATOM     22  C   UNL     1      -6.216 -10.681  16.855  0.00  0.00    +0.012 A 
ATOM     23  C   UNL     1      -6.036 -11.650  19.465  0.00  0.00    +0.046 A 
ATOM     24  C   UNL     1      -7.221 -10.390  17.777  0.00  0.00    +0.046 A 
ATOM     25  C   UNL     1      -7.131 -10.875  19.083  0.00  0.00    +0.120 A 
BRANCH  25   4
ATOM      4  O   UNL     1      -8.111 -10.593  19.983  0.00  0.00    -0.495 OA
ATOM     29  C   UNL     1      -9.446 -10.944  19.622  0.00  0.00    +0.277 C 
ENDBRANCH  25   4
ENDBRANCH  14  19
BRANCH  16  20
ATOM     20  C   UNL     1      -6.721 -11.583  12.531  0.00  0.00    +0.324 C 
BRANCH  20   3
ATOM      3  O   UNL     1      -5.750 -10.649  12.938  0.00  0.00    -0.483 OA
BRANCH   3  26
ATOM     26  C   UNL     1      -4.966 -10.084  11.956  0.00  0.00    +0.121 A 
ATOM     27  C   UNL     1      -5.543  -9.257  10.992  0.00  0.00    +0.045 A 
ATOM     28  C   UNL     1      -3.595 -10.340  11.925  0.00  0.00    +0.045 A 
ATOM     30  C   UNL     1      -4.749  -8.685   9.998  0.00  0.00    +0.004 A 
ATOM     31  C   UNL     1      -2.802  -9.768  10.930  0.00  0.00    +0.004 A 
ATOM     32  C   UNL     1      -3.379  -8.941   9.967  0.00  0.00    +0.000 A 
ENDBRANCH   3  26
ENDBRANCH  20   3
ENDBRANCH  16  20
TORSDOF 5
ENDMDL
MODEL 4
REMARK VINA RESULT:      -6.5      3.456      8.402
REMARK  Name = 26742287
REMARK  6 active torsions:
REMARK  status: ('A' for Active; 'I' for Inactive)
REMARK    1  A    between atoms: O_3  and  C_20
REMARK    2  A    between atoms: O_3  and  C_26
REMARK    3  A    between atoms: O_4  and  C_25
REMARK    4  A    between atoms: O_4  and  C_29
REMARK    5  A    between atoms: C_14  and  C_19
REMARK    6  A    between atoms: C_16  and  C_20
REMARK                            x       y       z     vdW  Elec       q    Type
REMARK                         _______ _______ _______ _____ _____    ______ ____
ROOT
ATOM      1  O   UNL     1      13.580   6.982   6.443  0.00  0.00    -0.268 OA
ATOM      2  O   UNL     1       9.345   6.757   3.321  0.00  0.00    -0.272 OA
ATOM      5  N   UNL     1       8.691   7.264   5.491  0.00  0.00    -0.298 N 
ATOM      6  N   UNL     1      11.407   7.525   7.130  0.00  0.00    -0.311 N 
ATOM      7  C   UNL     1       9.562   5.750   7.267  0.00  0.00    +0.027 C 
ATOM      8  C   UNL     1       9.054   8.093   7.811  0.00  0.00    +0.054 C 
ATOM      9  C   UNL     1       8.967   6.659   8.331  0.00  0.00    +0.018 C 
ATOM     10  C   UNL     1       8.787   5.877   5.945  0.00  0.00    +0.113 C 
ATOM     11  C   UNL     1      11.040   6.102   7.099  0.00  0.00    +0.130 C 
ATOM     12  C   UNL     1       8.233   8.219   6.510  0.00  0.00    +0.117 C 
ATOM     13  C   UNL     1      10.505   8.517   7.563  0.00  0.00    +0.034 A 
ATOM     14  C   UNL     1      10.931   9.797   7.719  0.00  0.00    +0.002 A 
ATOM     15  C   UNL     1      12.747   7.810   6.813  0.00  0.00    +0.252 A 
ATOM     16  C   UNL     1       8.961   7.576   4.159  0.00  0.00    +0.253 C 
ATOM     17  C   UNL     1      12.307  10.130   7.399  0.00  0.00    +0.015 A 
ATOM     18  C   UNL     1      13.176   9.220   6.959  0.00  0.00    +0.071 A 
ENDROOT
BRANCH  14  19
ATOM     19  C   UNL     1      10.026  10.868   8.191  0.00  0.00    -0.016 A 
ATOM     21  C   UNL     1       9.417  11.722   7.271  0.00  0.00    +0.012 A 
ATOM     22  C   UNL     1       9.784  11.026   9.555  0.00  0.00    +0.012 A 
ATOM     23  C   UNL     1       8.565  12.732   7.716  0.00  0.00    +0.046 A 
ATOM     24  C   UNL     1       8.932  12.037  10.000  0.00  0.00    +0.046 A 
ATOM     25  C   UNL     1       8.323  12.890   9.080  0.00  0.00    +0.120 A 
BRANCH  25   4
ATOM      4  O   UNL     1       7.492  13.877   9.513  0.00  0.00    -0.495 OA
ATOM     29  C   UNL     1       6.139  13.514   9.786  0.00  0.00    +0.277 C 
ENDBRANCH  25   4
ENDBRANCH  14  19
BRANCH  16  20
ATOM     20  C   UNL     1       8.772   9.015   3.751  0.00  0.00    +0.324 C 
BRANCH  20   3
ATOM      3  O   UNL     1       7.514   9.094   3.125  0.00  0.00    -0.483 OA
BRANCH   3  26
ATOM     26  C   UNL     1       6.670  10.105   3.526  0.00  0.00    +0.121 A 
ATOM     27  C   UNL     1       5.371  10.171   3.021  0.00  0.00    +0.045 A 
ATOM     28  C   UNL     1       7.114  11.065   4.436  0.00  0.00    +0.045 A 
ATOM     30  C   UNL     1       4.516  11.196   3.427  0.00  0.00    +0.004 A 
ATOM     31  C   UNL     1       6.259  12.090   4.841  0.00  0.00    +0.004 A 
ATOM     32  C   UNL     1       4.960  12.155   4.337  0.00  0.00    +0.000 A 
ENDBRANCH   3  26
ENDBRANCH  20   3
ENDBRANCH  16  20
TORSDOF 5
ENDMDL
MODEL 5
REMARK VINA RESULT:      -6.5     25.193     28.553
REMARK  Name = 26742287
REMARK  6 active torsions:
REMARK  status: ('A' for Active; 'I' for Inactive)
REMARK    1  A    between atoms: O_3  and  C_20
REMARK    2  A    between atoms: O_3  and  C_26
REMARK    3  A    between atoms: O_4  and  C_25
REMARK    4  A    between atoms: O_4  and  C_29
REMARK    5  A    between atoms: C_14  and  C_19
REMARK    6  A    between atoms: C_16  and  C_20
REMARK                            x       y       z     vdW  Elec       q    Type
REMARK                         _______ _______ _______ _____ _____    ______ ____
ROOT
ATOM      1  O   UNL     1      -7.094 -14.918  17.081  0.00  0.00    -0.268 OA
ATOM      2  O   UNL     1      -8.919 -10.292  18.812  0.00  0.00    -0.272 OA
ATOM      5  N   UNL     1      -6.880  -9.978  17.745  0.00  0.00    -0.298 N 
ATOM      6  N   UNL     1      -6.080 -12.853  16.638  0.00  0.00    -0.311 N 
ATOM      7  C   UNL     1      -5.021 -11.452  18.506  0.00  0.00    +0.027 C 
ATOM      8  C   UNL     1      -5.035 -10.610  16.197  0.00  0.00    +0.054 C 
ATOM      9  C   UNL     1      -4.136 -10.905  17.396  0.00  0.00    +0.018 C 
ATOM     10  C   UNL     1      -6.100 -10.428  18.898  0.00  0.00    +0.113 C 
ATOM     11  C   UNL     1      -5.630 -12.773  18.035  0.00  0.00    +0.130 C 
ATOM     12  C   UNL     1      -6.082  -9.546  16.589  0.00  0.00    +0.117 C 
ATOM     13  C   UNL     1      -5.731 -11.875  15.686  0.00  0.00    +0.034 A 
ATOM     14  C   UNL     1      -6.039 -12.064  14.377  0.00  0.00    +0.002 A 
ATOM     15  C   UNL     1      -6.775 -14.026  16.295  0.00  0.00    +0.252 A 
ATOM     16  C   UNL     1      -8.270  -9.922  17.830  0.00  0.00    +0.253 C 
ATOM     17  C   UNL     1      -6.760 -13.261  13.985  0.00  0.00    +0.015 A 
ATOM     18  C   UNL     1      -7.130 -14.190  14.866  0.00  0.00    +0.071 A 
ENDROOT
BRANCH  14  19
ATOM     19  C   UNL     1      -5.676 -11.074  13.339  0.00  0.00    -0.016 A 
ATOM     21  C   UNL     1      -6.572 -10.062  12.996  0.00  0.00    +0.012 A 
ATOM     22  C   UNL     1      -4.438 -11.155  12.702  0.00  0.00    +0.012 A 
ATOM     23  C   UNL     1      -6.230  -9.130  12.017  0.00  0.00    +0.046 A 
ATOM     24  C   UNL     1      -4.095 -10.223  11.723  0.00  0.00    +0.046 A 
ATOM     25  C   UNL     1      -4.993  -9.210  11.380  0.00  0.00    +0.120 A 
BRANCH  25   4
ATOM      4  O   UNL     1      -4.660  -8.301  10.424  0.00  0.00    -0.495 OA
ATOM     29  C   UNL     1      -4.096  -8.807   9.214  0.00  0.00    +0.277 C 
ENDBRANCH  25   4
ENDBRANCH  14  19
BRANCH  16  20
ATOM     20  C   UNL     1      -8.999  -9.381  16.627  0.00  0.00    +0.324 C 
BRANCH  20   3
ATOM      3  O   UNL     1      -9.287  -8.032  16.904  0.00  0.00    -0.483 OA
BRANCH   3  26
ATOM     26  C   UNL     1     -10.492  -7.537  16.459  0.00  0.00    +0.121 A 
ATOM     27  C   UNL     1     -11.675  -8.222  16.742  0.00  0.00    +0.045 A 
ATOM     28  C   UNL     1     -10.532  -6.353  15.723  0.00  0.00    +0.045 A 
ATOM     30  C   UNL     1     -12.896  -7.722  16.291  0.00  0.00    +0.004 A 
ATOM     31  C   UNL     1     -11.753  -5.854  15.271  0.00  0.00    +0.004 A 
ATOM     32  C   UNL     1     -12.935  -6.537  15.555  0.00  0.00    +0.000 A 
ENDBRANCH   3  26
ENDBRANCH  20   3
ENDBRANCH  16  20
TORSDOF 5
ENDMDL
MODEL 6
REMARK VINA RESULT:      -6.3     26.878     30.065
REMARK  Name = 26742287
REMARK  6 active torsions:
REMARK  status: ('A' for Active; 'I' for Inactive)
REMARK    1  A    between atoms: O_3  and  C_20
REMARK    2  A    between atoms: O_3  and  C_26
REMARK    3  A    between atoms: O_4  and  C_25
REMARK    4  A    between atoms: O_4  and  C_29
REMARK    5  A    between atoms: C_14  and  C_19
REMARK    6  A    between atoms: C_16  and  C_20
REMARK                            x       y       z     vdW  Elec       q    Type
REMARK                         _______ _______ _______ _____ _____    ______ ____
ROOT
ATOM      1  O   UNL     1      -6.876 -14.795  15.450  0.00  0.00    -0.268 OA
ATOM      2  O   UNL     1      -4.350 -12.093  19.199  0.00  0.00    -0.272 OA
ATOM      5  N   UNL     1      -4.933 -10.664  17.463  0.00  0.00    -0.298 N 
ATOM      6  N   UNL     1      -6.589 -12.470  15.431  0.00  0.00    -0.311 N 
ATOM      7  C   UNL     1      -4.270 -11.407  15.179  0.00  0.00    +0.027 C 
ATOM      8  C   UNL     1      -6.250  -9.979  15.464  0.00  0.00    +0.054 C 
ATOM      9  C   UNL     1      -5.031 -10.235  14.579  0.00  0.00    +0.018 C 
ATOM     10  C   UNL     1      -3.819 -11.087  16.614  0.00  0.00    +0.113 C 
ATOM     11  C   UNL     1      -5.163 -12.646  15.123  0.00  0.00    +0.130 C 
ATOM     12  C   UNL     1      -5.783  -9.612  16.888  0.00  0.00    +0.117 C 
ATOM     13  C   UNL     1      -7.181 -11.194  15.509  0.00  0.00    +0.034 A 
ATOM     14  C   UNL     1      -8.528 -11.080  15.645  0.00  0.00    +0.002 A 
ATOM     15  C   UNL     1      -7.338 -13.656  15.524  0.00  0.00    +0.252 A 
ATOM     16  C   UNL     1      -5.077 -11.209  18.738  0.00  0.00    +0.253 C 
ATOM     17  C   UNL     1      -9.333 -12.282  15.748  0.00  0.00    +0.015 A 
ATOM     18  C   UNL     1      -8.799 -13.503  15.708  0.00  0.00    +0.071 A 
ENDROOT
BRANCH  14  19
ATOM     19  C   UNL     1      -9.196  -9.762  15.711  0.00  0.00    -0.016 A 
ATOM     21  C   UNL     1      -9.208  -9.044  16.907  0.00  0.00    +0.012 A 
ATOM     22  C   UNL     1      -9.817  -9.237  14.578  0.00  0.00    +0.012 A 
ATOM     23  C   UNL     1      -9.839  -7.802  16.970  0.00  0.00    +0.046 A 
ATOM     24  C   UNL     1     -10.449  -7.996  14.640  0.00  0.00    +0.046 A 
ATOM     25  C   UNL     1     -10.460  -7.278  15.837  0.00  0.00    +0.120 A 
BRANCH  25   4
ATOM      4  O   UNL     1     -11.076  -6.067  15.898  0.00  0.00    -0.495 OA
ATOM     29  C   UNL     1     -11.963  -5.734  14.831  0.00  0.00    +0.277 C 
ENDBRANCH  25   4
ENDBRANCH  14  19
BRANCH  16  20
ATOM     20  C   UNL     1      -6.207 -10.671  19.579  0.00  0.00    +0.324 C 
BRANCH  20   3
ATOM      3  O   UNL     1      -6.805 -11.779  20.206  0.00  0.00    -0.483 OA
BRANCH   3  26
ATOM     26  C   UNL     1      -8.090 -12.101  19.831  0.00  0.00    +0.121 A 
ATOM     27  C   UNL     1      -9.047 -11.096  19.687  0.00  0.00    +0.045 A 
ATOM     28  C   UNL     1      -8.436 -13.431  19.597  0.00  0.00    +0.045 A 
ATOM     30  C   UNL     1     -10.350 -11.422  19.307  0.00  0.00    +0.004 A 
ATOM     31  C   UNL     1      -9.738 -13.757  19.219  0.00  0.00    +0.004 A 
ATOM     32  C   UNL     1     -10.695 -12.753  19.074  0.00  0.00    +0.000 A 
ENDBRANCH   3  26
ENDBRANCH  20   3
ENDBRANCH  16  20
TORSDOF 5
ENDMDL
MODEL 7
REMARK VINA RESULT:      -6.1     23.236     25.250
REMARK  Name = 26742287
REMARK  6 active torsions:
REMARK  status: ('A' for Active; 'I' for Inactive)
REMARK    1  A    between atoms: O_3  and  C_20
REMARK    2  A    between atoms: O_3  and  C_26
REMARK    3  A    between atoms: O_4  and  C_25
REMARK    4  A    between atoms: O_4  and  C_29
REMARK    5  A    between atoms: C_14  and  C_19
REMARK    6  A    between atoms: C_16  and  C_20
REMARK                            x       y       z     vdW  Elec       q    Type
REMARK                         _______ _______ _______ _____ _____    ______ ____
ROOT
ATOM      1  O   UNL     1      19.560  -4.788  21.248  0.00  0.00    -0.268 OA
ATOM      2  O   UNL     1      20.933  -1.317  24.963  0.00  0.00    -0.272 OA
ATOM      5  N   UNL     1      18.714  -1.937  25.255  0.00  0.00    -0.298 N 
ATOM      6  N   UNL     1      18.180  -4.151  23.031  0.00  0.00    -0.311 N 
ATOM      7  C   UNL     1      17.267  -1.764  23.234  0.00  0.00    +0.027 C 
ATOM      8  C   UNL     1      16.743  -3.430  24.964  0.00  0.00    +0.054 C 
ATOM      9  C   UNL     1      16.126  -2.420  23.997  0.00  0.00    +0.018 C 
ATOM     10  C   UNL     1      18.229  -1.050  24.198  0.00  0.00    +0.113 C 
ATOM     11  C   UNL     1      17.978  -2.836  22.407  0.00  0.00    +0.130 C 
ATOM     12  C   UNL     1      17.668  -2.694  25.956  0.00  0.00    +0.117 C 
ATOM     13  C   UNL     1      17.523  -4.520  24.222  0.00  0.00    +0.034 A 
ATOM     14  C   UNL     1      17.619  -5.794  24.681  0.00  0.00    +0.002 A 
ATOM     15  C   UNL     1      18.974  -5.051  22.299  0.00  0.00    +0.252 A 
ATOM     16  C   UNL     1      20.072  -1.962  25.567  0.00  0.00    +0.253 C 
ATOM     17  C   UNL     1      18.433  -6.749  23.954  0.00  0.00    +0.015 A 
ATOM     18  C   UNL     1      19.091  -6.424  22.842  0.00  0.00    +0.071 A 
ENDROOT
BRANCH  14  19
ATOM     19  C   UNL     1      16.930  -6.232  25.916  0.00  0.00    -0.016 A 
ATOM     21  C   UNL     1      15.711  -6.904  25.833  0.00  0.00    +0.012 A 
ATOM     22  C   UNL     1      17.499  -5.970  27.162  0.00  0.00    +0.012 A 
ATOM     23  C   UNL     1      15.061  -7.315  26.995  0.00  0.00    +0.046 A 
ATOM     24  C   UNL     1      16.849  -6.382  28.325  0.00  0.00    +0.046 A 
ATOM     25  C   UNL     1      15.629  -7.054  28.242  0.00  0.00    +0.120 A 
BRANCH  25   4
ATOM      4  O   UNL     1      14.994  -7.455  29.376  0.00  0.00    -0.495 OA
ATOM     29  C   UNL     1      13.966  -6.605  29.881  0.00  0.00    +0.277 C 
ENDBRANCH  25   4
ENDBRANCH  14  19
BRANCH  16  20
ATOM     20  C   UNL     1      20.485  -2.848  26.715  0.00  0.00    +0.324 C 
BRANCH  20   3
ATOM      3  O   UNL     1      21.739  -3.388  26.375  0.00  0.00    -0.483 OA
BRANCH   3  26
ATOM     26  C   UNL     1      21.773  -4.703  25.968  0.00  0.00    +0.121 A 
ATOM     27  C   UNL     1      22.403  -5.047  24.771  0.00  0.00    +0.045 A 
ATOM     28  C   UNL     1      21.175  -5.691  26.750  0.00  0.00    +0.045 A 
ATOM     30  C   UNL     1      22.436  -6.380  24.358  0.00  0.00    +0.004 A 
ATOM     31  C   UNL     1      21.207  -7.023  26.337  0.00  0.00    +0.004 A 
ATOM     32  C   UNL     1      21.838  -7.367  25.141  0.00  0.00    +0.000 A 
ENDBRANCH   3  26
ENDBRANCH  20   3
ENDBRANCH  16  20
TORSDOF 5
ENDMDL
MODEL 8
REMARK VINA RESULT:      -5.9     23.393     25.617
REMARK  Name = 26742287
REMARK  6 active torsions:
REMARK  status: ('A' for Active; 'I' for Inactive)
REMARK    1  A    between atoms: O_3  and  C_20
REMARK    2  A    between atoms: O_3  and  C_26
REMARK    3  A    between atoms: O_4  and  C_25
REMARK    4  A    between atoms: O_4  and  C_29
REMARK    5  A    between atoms: C_14  and  C_19
REMARK    6  A    between atoms: C_16  and  C_20
REMARK                            x       y       z     vdW  Elec       q    Type
REMARK                         _______ _______ _______ _____ _____    ______ ____
ROOT
ATOM      1  O   UNL     1      19.866  -5.086  21.566  0.00  0.00    -0.268 OA
ATOM      2  O   UNL     1      20.735  -1.100  24.895  0.00  0.00    -0.272 OA
ATOM      5  N   UNL     1      18.539  -1.826  25.101  0.00  0.00    -0.298 N 
ATOM      6  N   UNL     1      18.313  -4.328  23.147  0.00  0.00    -0.311 N 
ATOM      7  C   UNL     1      17.251  -2.001  22.975  0.00  0.00    +0.027 C 
ATOM      8  C   UNL     1      16.686  -3.472  24.862  0.00  0.00    +0.054 C 
ATOM      9  C   UNL     1      16.093  -2.632  23.731  0.00  0.00    +0.018 C 
ATOM     10  C   UNL     1      18.090  -1.110  23.907  0.00  0.00    +0.113 C 
ATOM     11  C   UNL     1      18.087  -3.117  22.347  0.00  0.00    +0.130 C 
ATOM     12  C   UNL     1      17.485  -2.559  25.816  0.00  0.00    +0.117 C 
ATOM     13  C   UNL     1      17.584  -4.590  24.325  0.00  0.00    +0.034 A 
ATOM     14  C   UNL     1      17.716  -5.788  24.949  0.00  0.00    +0.002 A 
ATOM     15  C   UNL     1      19.214  -5.256  22.596  0.00  0.00    +0.252 A 
ATOM     16  C   UNL     1      19.867  -1.721  25.512  0.00  0.00    +0.253 C 
ATOM     17  C   UNL     1      18.640  -6.770  24.412  0.00  0.00    +0.015 A 
ATOM     18  C   UNL     1      19.365  -6.541  23.318  0.00  0.00    +0.071 A 
ENDROOT
BRANCH  14  19
ATOM     19  C   UNL     1      16.957  -6.116  26.176  0.00  0.00    -0.016 A 
ATOM     21  C   UNL     1      15.813  -6.910  26.097  0.00  0.00    +0.012 A 
ATOM     22  C   UNL     1      17.383  -5.628  27.411  0.00  0.00    +0.012 A 
ATOM     23  C   UNL     1      15.096  -7.217  27.253  0.00  0.00    +0.046 A 
ATOM     24  C   UNL     1      16.666  -5.935  28.568  0.00  0.00    +0.046 A 
ATOM     25  C   UNL     1      15.522  -6.730  28.488  0.00  0.00    +0.120 A 
BRANCH  25   4
ATOM      4  O   UNL     1      14.821  -7.030  29.616  0.00  0.00    -0.495 OA
ATOM     29  C   UNL     1      14.319  -5.934  30.379  0.00  0.00    +0.277 C 
ENDBRANCH  25   4
ENDBRANCH  14  19
BRANCH  16  20
ATOM     20  C   UNL     1      20.236  -2.429  26.791  0.00  0.00    +0.324 C 
BRANCH  20   3
ATOM      3  O   UNL     1      20.469  -1.429  27.752  0.00  0.00    -0.483 OA
BRANCH   3  26
ATOM     26  C   UNL     1      19.792  -1.529  28.947  0.00  0.00    +0.121 A 
ATOM     27  C   UNL     1      18.699  -2.390  29.059  0.00  0.00    +0.045 A 
ATOM     28  C   UNL     1      20.196  -0.769  30.044  0.00  0.00    +0.045 A 
ATOM     30  C   UNL     1      18.012  -2.491  30.269  0.00  0.00    +0.004 A 
ATOM     31  C   UNL     1      19.508  -0.869  31.253  0.00  0.00    +0.004 A 
ATOM     32  C   UNL     1      18.417  -1.731  31.366  0.00  0.00    +0.000 A 
ENDBRANCH   3  26
ENDBRANCH  20   3
ENDBRANCH  16  20
TORSDOF 5
ENDMDL
MODEL 9
REMARK VINA RESULT:      -5.9     26.629     30.881
REMARK  Name = 26742287
REMARK  6 active torsions:
REMARK  status: ('A' for Active; 'I' for Inactive)
REMARK    1  A    between atoms: O_3  and  C_20
REMARK    2  A    between atoms: O_3  and  C_26
REMARK    3  A    between atoms: O_4  and  C_25
REMARK    4  A    between atoms: O_4  and  C_29
REMARK    5  A    between atoms: C_14  and  C_19
REMARK    6  A    between atoms: C_16  and  C_20
REMARK                            x       y       z     vdW  Elec       q    Type
REMARK                         _______ _______ _______ _____ _____    ______ ____
ROOT
ATOM      1  O   UNL     1     -14.988   5.006  23.982  0.00  0.00    -0.268 OA
ATOM      2  O   UNL     1     -18.434   6.191  20.180  0.00  0.00    -0.272 OA
ATOM      5  N   UNL     1     -16.907   7.925  20.421  0.00  0.00    -0.298 N 
ATOM      6  N   UNL     1     -14.845   6.906  22.620  0.00  0.00    -0.311 N 
ATOM      7  C   UNL     1     -16.593   8.777  22.741  0.00  0.00    +0.027 C 
ATOM      8  C   UNL     1     -14.742   8.928  21.130  0.00  0.00    +0.054 C 
ATOM      9  C   UNL     1     -15.460   9.669  22.257  0.00  0.00    +0.018 C 
ATOM     10  C   UNL     1     -17.577   8.478  21.598  0.00  0.00    +0.113 C 
ATOM     11  C   UNL     1     -15.989   7.500  23.325  0.00  0.00    +0.130 C 
ATOM     12  C   UNL     1     -15.729   8.677  19.970  0.00  0.00    +0.117 C 
ATOM     13  C   UNL     1     -14.146   7.603  21.614  0.00  0.00    +0.034 A 
ATOM     14  C   UNL     1     -13.005   7.080  21.096  0.00  0.00    +0.002 A 
ATOM     15  C   UNL     1     -14.425   5.652  23.099  0.00  0.00    +0.252 A 
ATOM     16  C   UNL     1     -17.442   6.806  19.782  0.00  0.00    +0.253 C 
ATOM     17  C   UNL     1     -12.543   5.786  21.563  0.00  0.00    +0.015 A 
ATOM     18  C   UNL     1     -13.198   5.089  22.491  0.00  0.00    +0.071 A 
ENDROOT
BRANCH  14  19
ATOM     19  C   UNL     1     -12.227   7.785  20.054  0.00  0.00    -0.016 A 
ATOM     21  C   UNL     1     -12.538   7.599  18.707  0.00  0.00    +0.012 A 
ATOM     22  C   UNL     1     -11.182   8.633  20.417  0.00  0.00    +0.012 A 
ATOM     23  C   UNL     1     -11.804   8.263  17.724  0.00  0.00    +0.046 A 
ATOM     24  C   UNL     1     -10.448   9.297  19.435  0.00  0.00    +0.046 A 
ATOM     25  C   UNL     1     -10.759   9.111  18.087  0.00  0.00    +0.120 A 
BRANCH  25   4
ATOM      4  O   UNL     1     -10.042   9.757  17.128  0.00  0.00    -0.495 OA
ATOM     29  C   UNL     1     -10.485   9.614  15.779  0.00  0.00    +0.277 C 
ENDBRANCH  25   4
ENDBRANCH  14  19
BRANCH  16  20
ATOM     20  C   UNL     1     -16.735   6.339  18.535  0.00  0.00    +0.324 C 
BRANCH  20   3
ATOM      3  O   UNL     1     -17.197   7.150  17.483  0.00  0.00    -0.483 OA
BRANCH   3  26
ATOM     26  C   UNL     1     -16.428   7.205  16.342  0.00  0.00    +0.121 A 
ATOM     27  C   UNL     1     -15.308   8.035  16.295  0.00  0.00    +0.045 A 
ATOM     28  C   UNL     1     -16.770   6.432  15.233  0.00  0.00    +0.045 A 
ATOM     30  C   UNL     1     -14.529   8.091  15.139  0.00  0.00    +0.004 A 
ATOM     31  C   UNL     1     -15.992   6.489  14.077  0.00  0.00    +0.004 A 
ATOM     32  C   UNL     1     -14.872   7.318  14.030  0.00  0.00    +0.000 A 
ENDBRANCH   3  26
ENDBRANCH  20   3
ENDBRANCH  16  20
TORSDOF 5
ENDMDL
MODEL 10
REMARK VINA RESULT:      -5.9     23.579     26.016
REMARK  Name = 26742287
REMARK  6 active torsions:
REMARK  status: ('A' for Active; 'I' for Inactive)
REMARK    1  A    between atoms: O_3  and  C_20
REMARK    2  A    between atoms: O_3  and  C_26
REMARK    3  A    between atoms: O_4  and  C_25
REMARK    4  A    between atoms: O_4  and  C_29
REMARK    5  A    between atoms: C_14  and  C_19
REMARK    6  A    between atoms: C_16  and  C_20
REMARK                            x       y       z     vdW  Elec       q    Type
REMARK                         _______ _______ _______ _____ _____    ______ ____
ROOT
ATOM      1  O   UNL     1      15.508  -2.837  22.794  0.00  0.00    -0.268 OA
ATOM      2  O   UNL     1      16.082  -6.629  26.403  0.00  0.00    -0.272 OA
ATOM      5  N   UNL     1      18.171  -5.885  25.711  0.00  0.00    -0.298 N 
ATOM      6  N   UNL     1      17.568  -3.498  23.694  0.00  0.00    -0.311 N 
ATOM      7  C   UNL     1      18.540  -5.828  23.248  0.00  0.00    +0.027 C 
ATOM      8  C   UNL     1      19.749  -4.250  24.693  0.00  0.00    +0.054 C 
ATOM      9  C   UNL     1      19.884  -5.151  23.466  0.00  0.00    +0.018 C 
ATOM     10  C   UNL     1      18.145  -6.667  24.475  0.00  0.00    +0.113 C 
ATOM     11  C   UNL     1      17.500  -4.753  22.932  0.00  0.00    +0.130 C 
ATOM     12  C   UNL     1      19.400  -5.109  25.927  0.00  0.00    +0.117 C 
ATOM     13  C   UNL     1      18.685  -3.167  24.485  0.00  0.00    +0.034 A 
ATOM     14  C   UNL     1      18.773  -1.935  25.050  0.00  0.00    +0.002 A 
ATOM     15  C   UNL     1      16.501  -2.606  23.484  0.00  0.00    +0.252 A 
ATOM     16  C   UNL     1      17.105  -5.970  26.606  0.00  0.00    +0.253 C 
ATOM     17  C   UNL     1      17.691  -0.989  24.859  0.00  0.00    +0.015 A 
ATOM     18  C   UNL     1      16.607  -1.283  24.141  0.00  0.00    +0.071 A 
ENDROOT
BRANCH  14  19
ATOM     19  C   UNL     1      19.937  -1.536  25.872  0.00  0.00    -0.016 A 
ATOM     21  C   UNL     1      21.044  -0.937  25.269  0.00  0.00    +0.012 A 
ATOM     22  C   UNL     1      19.929  -1.759  27.248  0.00  0.00    +0.012 A 
ATOM     23  C   UNL     1      22.141  -0.562  26.043  0.00  0.00    +0.046 A 
ATOM     24  C   UNL     1      21.026  -1.384  28.023  0.00  0.00    +0.046 A 
ATOM     25  C   UNL     1      22.133  -0.786  27.420  0.00  0.00    +0.120 A 
BRANCH  25   4
ATOM      4  O   UNL     1      23.205  -0.420  28.175  0.00  0.00    -0.495 OA
ATOM     29  C   UNL     1      23.178   0.885  28.752  0.00  0.00    +0.277 C 
ENDBRANCH  25   4
ENDBRANCH  14  19
BRANCH  16  20
ATOM     20  C   UNL     1      17.237  -5.191  27.890  0.00  0.00    +0.324 C 
BRANCH  20   3
ATOM      3  O   UNL     1      16.913  -6.077  28.934  0.00  0.00    -0.483 OA
BRANCH   3  26
ATOM     26  C   UNL     1      15.868  -5.727  29.759  0.00  0.00    +0.121 A 
ATOM     27  C   UNL     1      16.006  -4.657  30.645  0.00  0.00    +0.045 A 
ATOM     28  C   UNL     1      14.671  -6.441  29.710  0.00  0.00    +0.045 A 
ATOM     30  C   UNL     1      14.947  -4.303  31.481  0.00  0.00    +0.004 A 
ATOM     31  C   UNL     1      13.613  -6.088  30.547  0.00  0.00    +0.004 A 
ATOM     32  C   UNL     1      13.751  -5.019  31.432  0.00  0.00    +0.000 A 
ENDBRANCH   3  26
ENDBRANCH  20   3
ENDBRANCH  16  20
TORSDOF 5
ENDMDL
