MODEL 1
REMARK VINA RESULT:      -6.4      0.000      0.000
REMARK  Name = 75536914
REMARK  5 active torsions:
REMARK  status: ('A' for Active; 'I' for Inactive)
REMARK    1  A    between atoms: O_2  and  C_6
REMARK    2  A    between atoms: O_2  and  C_18
REMARK    3  A    between atoms: N_3  and  C_7
REMARK    4  A    between atoms: N_4  and  C_17
REMARK    5  A    between atoms: C_7  and  C_9
REMARK                            x       y       z     vdW  Elec       q    Type
REMARK                         _______ _______ _______ _____ _____    ______ ____
ROOT
ATOM      1  O   UNL     1      -3.613 -13.893  12.552  0.00  0.00    -0.375 OA
ATOM      3  N   UNL     1      -3.291 -11.606  14.271  0.00  0.00    -0.292 NA
ATOM      5  C   UNL     1      -2.695 -11.073  13.047  0.00  0.00    +0.131 C 
ATOM      6  C   UNL     1      -3.468 -11.545  11.808  0.00  0.00    +0.213 C 
ATOM      8  C   UNL     1      -2.808 -12.939  14.651  0.00  0.00    +0.113 C 
ATOM     10  C   UNL     1      -3.318 -13.025  11.464  0.00  0.00    +0.205 C 
ATOM     11  C   UNL     1      -2.564 -13.928  13.514  0.00  0.00    +0.175 C 
ENDROOT
BRANCH   6   2
ATOM      2  O   UNL     1      -3.024 -10.774  10.691  0.00  0.00    -0.485 OA
BRANCH   2  18
ATOM     18  C   UNL     1      -3.992 -10.134   9.968  0.00  0.00    +0.121 A 
ATOM     21  C   UNL     1      -4.474 -10.703   8.789  0.00  0.00    +0.045 A 
ATOM     22  C   UNL     1      -4.498  -8.910  10.409  0.00  0.00    +0.045 A 
ATOM     23  C   UNL     1      -5.461 -10.050   8.051  0.00  0.00    +0.004 A 
ATOM     24  C   UNL     1      -5.485  -8.258   9.671  0.00  0.00    +0.004 A 
ATOM     25  C   UNL     1      -5.967  -8.826   8.493  0.00  0.00    +0.000 A 
ENDBRANCH   2  18
ENDBRANCH   6   2
BRANCH   3   7
ATOM      7  C   UNL     1      -3.134 -10.679  15.391  0.00  0.00    +0.122 C 
BRANCH   7   9
ATOM      4  N   UNL     1      -6.502  -9.845  16.617  0.00  0.00    -0.349 N 
ATOM      9  C   UNL     1      -4.428 -10.471  16.132  0.00  0.00    -0.008 A 
ATOM     12  C   UNL     1      -4.727 -10.907  17.453  0.00  0.00    +0.004 A 
ATOM     13  C   UNL     1      -6.034 -10.502  17.733  0.00  0.00    +0.049 A 
ATOM     14  C   UNL     1      -5.539  -9.822  15.644  0.00  0.00    +0.091 A 
ATOM     15  C   UNL     1      -4.009 -11.609  18.442  0.00  0.00    +0.010 A 
ATOM     16  C   UNL     1      -6.661 -10.766  18.956  0.00  0.00    +0.026 A 
ATOM     17  C   UNL     1      -7.818  -9.260  16.476  0.00  0.00    +0.149 C 
ATOM     19  C   UNL     1      -4.623 -11.880  19.669  0.00  0.00    +0.001 A 
ATOM     20  C   UNL     1      -5.929 -11.463  19.921  0.00  0.00    +0.002 A 
ENDBRANCH   7   9
ENDBRANCH   3   7
TORSDOF 4
ENDMDL
MODEL 2
REMARK VINA RESULT:      -6.1      1.742      2.374
REMARK  Name = 75536914
REMARK  5 active torsions:
REMARK  status: ('A' for Active; 'I' for Inactive)
REMARK    1  A    between atoms: O_2  and  C_6
REMARK    2  A    between atoms: O_2  and  C_18
REMARK    3  A    between atoms: N_3  and  C_7
REMARK    4  A    between atoms: N_4  and  C_17
REMARK    5  A    between atoms: C_7  and  C_9
REMARK                            x       y       z     vdW  Elec       q    Type
REMARK                         _______ _______ _______ _____ _____    ______ ____
ROOT
ATOM      1  O   UNL     1      -4.816 -13.767  13.945  0.00  0.00    -0.375 OA
ATOM      3  N   UNL     1      -4.775 -11.623  15.865  0.00  0.00    -0.292 NA
ATOM      5  C   UNL     1      -3.763 -11.131  14.933  0.00  0.00    +0.131 C 
ATOM      6  C   UNL     1      -4.157 -11.435  13.481  0.00  0.00    +0.213 C 
ATOM      8  C   UNL     1      -4.605 -13.026  16.262  0.00  0.00    +0.113 C 
ATOM     10  C   UNL     1      -4.088 -12.906  13.077  0.00  0.00    +0.205 C 
ATOM     11  C   UNL     1      -4.137 -13.991  15.175  0.00  0.00    +0.175 C 
ENDROOT
BRANCH   6   2
ATOM      2  O   UNL     1      -3.292 -10.689  12.624  0.00  0.00    -0.485 OA
BRANCH   2  18
ATOM     18  C   UNL     1      -3.893  -9.968  11.630  0.00  0.00    +0.121 A 
ATOM     21  C   UNL     1      -5.203  -9.518  11.787  0.00  0.00    +0.045 A 
ATOM     22  C   UNL     1      -3.194  -9.683  10.456  0.00  0.00    +0.045 A 
ATOM     23  C   UNL     1      -5.816  -8.783  10.773  0.00  0.00    +0.004 A 
ATOM     24  C   UNL     1      -3.807  -8.948   9.442  0.00  0.00    +0.004 A 
ATOM     25  C   UNL     1      -5.117  -8.498   9.599  0.00  0.00    +0.000 A 
ENDBRANCH   2  18
ENDBRANCH   6   2
BRANCH   3   7
ATOM      7  C   UNL     1      -4.868 -10.775  17.054  0.00  0.00    +0.122 C 
BRANCH   7   9
ATOM      4  N   UNL     1      -8.272  -9.436  17.452  0.00  0.00    -0.349 N 
ATOM      9  C   UNL     1      -6.296 -10.447  17.398  0.00  0.00    -0.008 A 
ATOM     12  C   UNL     1      -7.140 -11.167  18.289  0.00  0.00    +0.004 A 
ATOM     13  C   UNL     1      -8.374 -10.512  18.305  0.00  0.00    +0.049 A 
ATOM     14  C   UNL     1      -7.021  -9.388  16.899  0.00  0.00    +0.091 A 
ATOM     15  C   UNL     1      -6.972 -12.316  19.087  0.00  0.00    +0.010 A 
ATOM     16  C   UNL     1      -9.451 -10.952  19.082  0.00  0.00    +0.026 A 
ATOM     17  C   UNL     1      -9.326  -8.485  17.170  0.00  0.00    +0.149 C 
ATOM     19  C   UNL     1      -8.041 -12.768  19.868  0.00  0.00    +0.001 A 
ATOM     20  C   UNL     1      -9.261 -12.093  19.865  0.00  0.00    +0.002 A 
ENDBRANCH   7   9
ENDBRANCH   3   7
TORSDOF 4
ENDMDL
MODEL 3
REMARK VINA RESULT:      -6.0     27.390     28.732
REMARK  Name = 75536914
REMARK  5 active torsions:
REMARK  status: ('A' for Active; 'I' for Inactive)
REMARK    1  A    between atoms: O_2  and  C_6
REMARK    2  A    between atoms: O_2  and  C_18
REMARK    3  A    between atoms: N_3  and  C_7
REMARK    4  A    between atoms: N_4  and  C_17
REMARK    5  A    between atoms: C_7  and  C_9
REMARK                            x       y       z     vdW  Elec       q    Type
REMARK                         _______ _______ _______ _____ _____    ______ ____
ROOT
ATOM      1  O   UNL     1      16.491  13.611  18.998  0.00  0.00    -0.375 OA
ATOM      3  N   UNL     1      14.969  11.979  20.816  0.00  0.00    -0.292 NA
ATOM      5  C   UNL     1      14.250  11.692  19.576  0.00  0.00    +0.131 C 
ATOM      6  C   UNL     1      15.220  11.586  18.391  0.00  0.00    +0.213 C 
ATOM      8  C   UNL     1      15.207  13.406  21.064  0.00  0.00    +0.113 C 
ATOM     10  C   UNL     1      15.855  12.900  17.942  0.00  0.00    +0.205 C 
ATOM     11  C   UNL     1      15.555  14.262  19.850  0.00  0.00    +0.175 C 
ENDROOT
BRANCH   6   2
ATOM      2  O   UNL     1      14.506  11.029  17.286  0.00  0.00    -0.485 OA
BRANCH   2  18
ATOM     18  C   UNL     1      13.871   9.838  17.509  0.00  0.00    +0.121 A 
ATOM     21  C   UNL     1      14.604   8.717  17.895  0.00  0.00    +0.045 A 
ATOM     22  C   UNL     1      12.487   9.745  17.349  0.00  0.00    +0.045 A 
ATOM     23  C   UNL     1      13.957   7.503  18.121  0.00  0.00    +0.004 A 
ATOM     24  C   UNL     1      11.840   8.531  17.575  0.00  0.00    +0.004 A 
ATOM     25  C   UNL     1      12.574   7.409  17.961  0.00  0.00    +0.000 A 
ENDBRANCH   2  18
ENDBRANCH   6   2
BRANCH   3   7
ATOM      7  C   UNL     1      14.308  11.373  21.972  0.00  0.00    +0.122 C 
BRANCH   7   9
ATOM      4  N   UNL     1      14.756   7.730  21.709  0.00  0.00    -0.349 N 
ATOM      9  C   UNL     1      14.206   9.877  21.839  0.00  0.00    -0.008 A 
ATOM     12  C   UNL     1      13.012   9.120  21.677  0.00  0.00    +0.004 A 
ATOM     13  C   UNL     1      13.385   7.777  21.598  0.00  0.00    +0.049 A 
ATOM     14  C   UNL     1      15.261   8.994  21.855  0.00  0.00    +0.091 A 
ATOM     15  C   UNL     1      11.645   9.451  21.589  0.00  0.00    +0.010 A 
ATOM     16  C   UNL     1      12.455   6.744  21.435  0.00  0.00    +0.026 A 
ATOM     17  C   UNL     1      15.562   6.528  21.677  0.00  0.00    +0.149 C 
ATOM     19  C   UNL     1      10.704   8.429  21.426  0.00  0.00    +0.001 A 
ATOM     20  C   UNL     1      11.105   7.096  21.350  0.00  0.00    +0.002 A 
ENDBRANCH   7   9
ENDBRANCH   3   7
TORSDOF 4
ENDMDL
MODEL 4
REMARK VINA RESULT:      -6.0     22.526     25.385
REMARK  Name = 75536914
REMARK  5 active torsions:
REMARK  status: ('A' for Active; 'I' for Inactive)
REMARK    1  A    between atoms: O_2  and  C_6
REMARK    2  A    between atoms: O_2  and  C_18
REMARK    3  A    between atoms: N_3  and  C_7
REMARK    4  A    between atoms: N_4  and  C_17
REMARK    5  A    between atoms: C_7  and  C_9
REMARK                            x       y       z     vdW  Elec       q    Type
REMARK                         _______ _______ _______ _____ _____    ______ ____
ROOT
ATOM      1  O   UNL     1     -16.128  -0.043  29.876  0.00  0.00    -0.375 OA
ATOM      3  N   UNL     1     -14.754   1.837  31.568  0.00  0.00    -0.292 NA
ATOM      5  C   UNL     1     -14.536   2.476  30.271  0.00  0.00    +0.131 C 
ATOM      6  C   UNL     1     -15.779   2.348  29.380  0.00  0.00    +0.213 C 
ATOM      8  C   UNL     1     -14.452   0.401  31.595  0.00  0.00    +0.113 C 
ATOM     10  C   UNL     1     -16.068   0.945  28.853  0.00  0.00    +0.205 C 
ATOM     11  C   UNL     1     -14.837  -0.402  30.355  0.00  0.00    +0.175 C 
ENDROOT
BRANCH   6   2
ATOM      2  O   UNL     1     -15.613   3.225  28.265  0.00  0.00    -0.485 OA
BRANCH   2  18
ATOM     18  C   UNL     1     -16.369   4.365  28.267  0.00  0.00    +0.121 A 
ATOM     21  C   UNL     1     -16.461   5.139  29.423  0.00  0.00    +0.045 A 
ATOM     22  C   UNL     1     -17.049   4.752  27.111  0.00  0.00    +0.045 A 
ATOM     23  C   UNL     1     -17.232   6.301  29.425  0.00  0.00    +0.004 A 
ATOM     24  C   UNL     1     -17.820   5.914  27.114  0.00  0.00    +0.004 A 
ATOM     25  C   UNL     1     -17.912   6.689  28.270  0.00  0.00    +0.000 A 
ENDBRANCH   2  18
ENDBRANCH   6   2
BRANCH   3   7
ATOM      7  C   UNL     1     -14.022   2.522  32.633  0.00  0.00    +0.122 C 
BRANCH   7   9
ATOM      4  N   UNL     1     -14.201   6.197  32.678  0.00  0.00    -0.349 N 
ATOM      9  C   UNL     1     -14.374   3.984  32.705  0.00  0.00    -0.008 A 
ATOM     12  C   UNL     1     -15.664   4.534  32.949  0.00  0.00    +0.004 A 
ATOM     13  C   UNL     1     -15.528   5.924  32.927  0.00  0.00    +0.049 A 
ATOM     14  C   UNL     1     -13.497   5.031  32.542  0.00  0.00    +0.091 A 
ATOM     15  C   UNL     1     -16.938   3.980  33.188  0.00  0.00    +0.010 A 
ATOM     16  C   UNL     1     -16.607   6.791  33.132  0.00  0.00    +0.026 A 
ATOM     17  C   UNL     1     -13.621   7.518  32.572  0.00  0.00    +0.149 C 
ATOM     19  C   UNL     1     -18.026   4.835  33.394  0.00  0.00    +0.001 A 
ATOM     20  C   UNL     1     -17.860   6.220  33.367  0.00  0.00    +0.002 A 
ENDBRANCH   7   9
ENDBRANCH   3   7
TORSDOF 4
ENDMDL
MODEL 5
REMARK VINA RESULT:      -5.9      2.230      3.560
REMARK  Name = 75536914
REMARK  5 active torsions:
REMARK  status: ('A' for Active; 'I' for Inactive)
REMARK    1  A    between atoms: O_2  and  C_6
REMARK    2  A    between atoms: O_2  and  C_18
REMARK    3  A    between atoms: N_3  and  C_7
REMARK    4  A    between atoms: N_4  and  C_17
REMARK    5  A    between atoms: C_7  and  C_9
REMARK                            x       y       z     vdW  Elec       q    Type
REMARK                         _______ _______ _______ _____ _____    ______ ____
ROOT
ATOM      1  O   UNL     1      -5.230 -14.108  15.193  0.00  0.00    -0.375 OA
ATOM      3  N   UNL     1      -5.427 -11.772  16.864  0.00  0.00    -0.292 NA
ATOM      5  C   UNL     1      -4.154 -11.488  16.203  0.00  0.00    +0.131 C 
ATOM      6  C   UNL     1      -4.192 -11.918  14.730  0.00  0.00    +0.213 C 
ATOM      8  C   UNL     1      -5.539 -13.130  17.409  0.00  0.00    +0.113 C 
ATOM     10  C   UNL     1      -4.201 -13.425  14.486  0.00  0.00    +0.205 C 
ATOM     11  C   UNL     1      -4.927 -14.253  16.576  0.00  0.00    +0.175 C 
ENDROOT
BRANCH   6   2
ATOM      2  O   UNL     1      -3.049 -11.361  14.080  0.00  0.00    -0.485 OA
BRANCH   2  18
ATOM     18  C   UNL     1      -3.279 -10.686  12.913  0.00  0.00    +0.121 A 
ATOM     21  C   UNL     1      -4.571 -10.276  12.587  0.00  0.00    +0.045 A 
ATOM     22  C   UNL     1      -2.220 -10.408  12.048  0.00  0.00    +0.045 A 
ATOM     23  C   UNL     1      -4.806  -9.589  11.397  0.00  0.00    +0.004 A 
ATOM     24  C   UNL     1      -2.455  -9.721  10.858  0.00  0.00    +0.004 A 
ATOM     25  C   UNL     1      -3.747  -9.311  10.531  0.00  0.00    +0.000 A 
ENDBRANCH   2  18
ENDBRANCH   6   2
BRANCH   3   7
ATOM      7  C   UNL     1      -5.722 -10.789  17.906  0.00  0.00    +0.122 C 
BRANCH   7   9
ATOM      4  N   UNL     1      -8.834  -9.003  17.088  0.00  0.00    -0.349 N 
ATOM      9  C   UNL     1      -7.112 -10.227  17.771  0.00  0.00    -0.008 A 
ATOM     12  C   UNL     1      -8.264 -10.632  18.502  0.00  0.00    +0.004 A 
ATOM     13  C   UNL     1      -9.330  -9.849  18.054  0.00  0.00    +0.049 A 
ATOM     14  C   UNL     1      -7.495  -9.224  16.910  0.00  0.00    +0.091 A 
ATOM     15  C   UNL     1      -8.502 -11.593  19.505  0.00  0.00    +0.010 A 
ATOM     16  C   UNL     1     -10.628  -9.980  18.561  0.00  0.00    +0.026 A 
ATOM     17  C   UNL     1      -9.602  -8.018  16.357  0.00  0.00    +0.149 C 
ATOM     19  C   UNL     1      -9.795 -11.736  20.021  0.00  0.00    +0.001 A 
ATOM     20  C   UNL     1     -10.840 -10.939  19.555  0.00  0.00    +0.002 A 
ENDBRANCH   7   9
ENDBRANCH   3   7
TORSDOF 4
ENDMDL
MODEL 6
REMARK VINA RESULT:      -5.9     26.078     27.981
REMARK  Name = 75536914
REMARK  5 active torsions:
REMARK  status: ('A' for Active; 'I' for Inactive)
REMARK    1  A    between atoms: O_2  and  C_6
REMARK    2  A    between atoms: O_2  and  C_18
REMARK    3  A    between atoms: N_3  and  C_7
REMARK    4  A    between atoms: N_4  and  C_17
REMARK    5  A    between atoms: C_7  and  C_9
REMARK                            x       y       z     vdW  Elec       q    Type
REMARK                         _______ _______ _______ _____ _____    ______ ____
ROOT
ATOM      1  O   UNL     1      23.108  -0.956  25.650  0.00  0.00    -0.375 OA
ATOM      3  N   UNL     1      22.248  -3.701  25.544  0.00  0.00    -0.292 NA
ATOM      5  C   UNL     1      21.005  -3.077  25.996  0.00  0.00    +0.131 C 
ATOM      6  C   UNL     1      20.788  -1.722  25.307  0.00  0.00    +0.213 C 
ATOM      8  C   UNL     1      23.442  -3.288  26.291  0.00  0.00    +0.113 C 
ATOM     10  C   UNL     1      21.732  -0.604  25.743  0.00  0.00    +0.205 C 
ATOM     11  C   UNL     1      23.516  -1.821  26.704  0.00  0.00    +0.175 C 
ENDROOT
BRANCH   6   2
ATOM      2  O   UNL     1      19.446  -1.308  25.565  0.00  0.00    -0.485 OA
BRANCH   2  18
ATOM     18  C   UNL     1      18.470  -1.897  24.810  0.00  0.00    +0.121 A 
ATOM     21  C   UNL     1      17.172  -2.005  25.308  0.00  0.00    +0.045 A 
ATOM     22  C   UNL     1      18.773  -2.392  23.541  0.00  0.00    +0.045 A 
ATOM     23  C   UNL     1      16.176  -2.607  24.539  0.00  0.00    +0.004 A 
ATOM     24  C   UNL     1      17.778  -2.994  22.772  0.00  0.00    +0.004 A 
ATOM     25  C   UNL     1      16.480  -3.102  23.270  0.00  0.00    +0.000 A 
ENDBRANCH   2  18
ENDBRANCH   6   2
BRANCH   3   7
ATOM      7  C   UNL     1      22.143  -5.160  25.534  0.00  0.00    +0.122 C 
BRANCH   7   9
ATOM      4  N   UNL     1      20.218  -6.348  22.631  0.00  0.00    -0.349 N 
ATOM      9  C   UNL     1      21.133  -5.643  24.528  0.00  0.00    -0.008 A 
ATOM     12  C   UNL     1      19.748  -5.873  24.760  0.00  0.00    +0.004 A 
ATOM     13  C   UNL     1      19.198  -6.315  23.555  0.00  0.00    +0.049 A 
ATOM     14  C   UNL     1      21.391  -5.944  23.210  0.00  0.00    +0.091 A 
ATOM     15  C   UNL     1      18.908  -5.747  25.885  0.00  0.00    +0.010 A 
ATOM     16  C   UNL     1      17.843  -6.638  23.418  0.00  0.00    +0.026 A 
ATOM     17  C   UNL     1      20.087  -6.749  21.247  0.00  0.00    +0.149 C 
ATOM     19  C   UNL     1      17.551  -6.068  25.762  0.00  0.00    +0.001 A 
ATOM     20  C   UNL     1      17.029  -6.505  24.546  0.00  0.00    +0.002 A 
ENDBRANCH   7   9
ENDBRANCH   3   7
TORSDOF 4
ENDMDL
MODEL 7
REMARK VINA RESULT:      -5.9     24.324     26.608
REMARK  Name = 75536914
REMARK  5 active torsions:
REMARK  status: ('A' for Active; 'I' for Inactive)
REMARK    1  A    between atoms: O_2  and  C_6
REMARK    2  A    between atoms: O_2  and  C_18
REMARK    3  A    between atoms: N_3  and  C_7
REMARK    4  A    between atoms: N_4  and  C_17
REMARK    5  A    between atoms: C_7  and  C_9
REMARK                            x       y       z     vdW  Elec       q    Type
REMARK                         _______ _______ _______ _____ _____    ______ ____
ROOT
ATOM      1  O   UNL     1      16.304   8.693   4.533  0.00  0.00    -0.375 OA
ATOM      3  N   UNL     1      14.169   7.479   6.035  0.00  0.00    -0.292 NA
ATOM      5  C   UNL     1      13.541   7.521   4.716  0.00  0.00    +0.131 C 
ATOM      6  C   UNL     1      14.561   7.210   3.612  0.00  0.00    +0.213 C 
ATOM      8  C   UNL     1      14.794   8.740   6.452  0.00  0.00    +0.113 C 
ATOM     10  C   UNL     1      15.607   8.293   3.359  0.00  0.00    +0.205 C 
ATOM     11  C   UNL     1      15.516   9.535   5.367  0.00  0.00    +0.175 C 
ENDROOT
BRANCH   6   2
ATOM      2  O   UNL     1      13.842   6.984   2.399  0.00  0.00    -0.485 OA
BRANCH   2  18
ATOM     18  C   UNL     1      13.526   5.685   2.109  0.00  0.00    +0.121 A 
ATOM     21  C   UNL     1      14.523   4.800   1.699  0.00  0.00    +0.045 A 
ATOM     22  C   UNL     1      12.207   5.246   2.223  0.00  0.00    +0.045 A 
ATOM     23  C   UNL     1      14.201   3.476   1.402  0.00  0.00    +0.004 A 
ATOM     24  C   UNL     1      11.885   3.922   1.927  0.00  0.00    +0.004 A 
ATOM     25  C   UNL     1      12.882   3.036   1.517  0.00  0.00    +0.000 A 
ENDBRANCH   2  18
ENDBRANCH   6   2
BRANCH   3   7
ATOM      7  C   UNL     1      13.232   7.022   7.061  0.00  0.00    +0.122 C 
BRANCH   7   9
ATOM      4  N   UNL     1      10.155   9.029   6.851  0.00  0.00    -0.349 N 
ATOM      9  C   UNL     1      11.857   7.605   6.864  0.00  0.00    -0.008 A 
ATOM     12  C   UNL     1      10.724   6.938   6.321  0.00  0.00    +0.004 A 
ATOM     13  C   UNL     1       9.669   7.853   6.323  0.00  0.00    +0.049 A 
ATOM     14  C   UNL     1      11.476   8.888   7.180  0.00  0.00    +0.091 A 
ATOM     15  C   UNL     1      10.494   5.638   5.826  0.00  0.00    +0.010 A 
ATOM     16  C   UNL     1       8.391   7.532   5.853  0.00  0.00    +0.026 A 
ATOM     17  C   UNL     1       9.392  10.245   7.036  0.00  0.00    +0.149 C 
ATOM     19  C   UNL     1       9.221   5.304   5.352  0.00  0.00    +0.001 A 
ATOM     20  C   UNL     1       8.186   6.238   5.368  0.00  0.00    +0.002 A 
ENDBRANCH   7   9
ENDBRANCH   3   7
TORSDOF 4
ENDMDL
MODEL 8
REMARK VINA RESULT:      -5.9     25.277     27.267
REMARK  Name = 75536914
REMARK  5 active torsions:
REMARK  status: ('A' for Active; 'I' for Inactive)
REMARK    1  A    between atoms: O_2  and  C_6
REMARK    2  A    between atoms: O_2  and  C_18
REMARK    3  A    between atoms: N_3  and  C_7
REMARK    4  A    between atoms: N_4  and  C_17
REMARK    5  A    between atoms: C_7  and  C_9
REMARK                            x       y       z     vdW  Elec       q    Type
REMARK                         _______ _______ _______ _____ _____    ______ ____
ROOT
ATOM      1  O   UNL     1      19.117  -7.889  28.949  0.00  0.00    -0.375 OA
ATOM      3  N   UNL     1      17.663  -6.944  26.652  0.00  0.00    -0.292 NA
ATOM      5  C   UNL     1      17.963  -5.663  27.290  0.00  0.00    +0.131 C 
ATOM      6  C   UNL     1      19.371  -5.670  27.901  0.00  0.00    +0.213 C 
ATOM      8  C   UNL     1      17.112  -7.960  27.556  0.00  0.00    +0.113 C 
ATOM     10  C   UNL     1      19.545  -6.546  29.140  0.00  0.00    +0.205 C 
ATOM     11  C   UNL     1      17.699  -8.010  28.964  0.00  0.00    +0.175 C 
ENDROOT
BRANCH   6   2
ATOM      2  O   UNL     1      19.707  -4.326  28.246  0.00  0.00    -0.485 OA
BRANCH   2  18
ATOM     18  C   UNL     1      19.931  -3.467  27.206  0.00  0.00    +0.121 A 
ATOM     21  C   UNL     1      19.383  -2.185  27.229  0.00  0.00    +0.045 A 
ATOM     22  C   UNL     1      20.707  -3.873  26.120  0.00  0.00    +0.045 A 
ATOM     23  C   UNL     1      19.610  -1.309  26.168  0.00  0.00    +0.004 A 
ATOM     24  C   UNL     1      20.934  -2.997  25.059  0.00  0.00    +0.004 A 
ATOM     25  C   UNL     1      20.386  -1.715  25.082  0.00  0.00    +0.000 A 
ENDBRANCH   2  18
ENDBRANCH   6   2
BRANCH   3   7
ATOM      7  C   UNL     1      16.782  -6.773  25.496  0.00  0.00    +0.122 C 
BRANCH   7   9
ATOM      4  N   UNL     1      18.746  -5.578  22.622  0.00  0.00    -0.349 N 
ATOM      9  C   UNL     1      17.463  -6.031  24.377  0.00  0.00    -0.008 A 
ATOM     12  C   UNL     1      17.303  -4.655  24.052  0.00  0.00    +0.004 A 
ATOM     13  C   UNL     1      18.119  -4.397  22.948  0.00  0.00    +0.049 A 
ATOM     14  C   UNL     1      18.356  -6.571  23.479  0.00  0.00    +0.091 A 
ATOM     15  C   UNL     1      16.541  -3.601  24.594  0.00  0.00    +0.010 A 
ATOM     16  C   UNL     1      18.209  -3.132  22.357  0.00  0.00    +0.026 A 
ATOM     17  C   UNL     1      19.683  -5.760  21.535  0.00  0.00    +0.149 C 
ATOM     19  C   UNL     1      16.621  -2.331  24.013  0.00  0.00    +0.001 A 
ATOM     20  C   UNL     1      17.444  -2.102  22.911  0.00  0.00    +0.002 A 
ENDBRANCH   7   9
ENDBRANCH   3   7
TORSDOF 4
ENDMDL
MODEL 9
REMARK VINA RESULT:      -5.8     24.675     27.249
REMARK  Name = 75536914
REMARK  5 active torsions:
REMARK  status: ('A' for Active; 'I' for Inactive)
REMARK    1  A    between atoms: O_2  and  C_6
REMARK    2  A    between atoms: O_2  and  C_18
REMARK    3  A    between atoms: N_3  and  C_7
REMARK    4  A    between atoms: N_4  and  C_17
REMARK    5  A    between atoms: C_7  and  C_9
REMARK                            x       y       z     vdW  Elec       q    Type
REMARK                         _______ _______ _______ _____ _____    ______ ____
ROOT
ATOM      1  O   UNL     1       8.618  11.264   4.160  0.00  0.00    -0.375 OA
ATOM      3  N   UNL     1      10.443  11.192   6.385  0.00  0.00    -0.292 NA
ATOM      5  C   UNL     1       9.387  10.329   6.912  0.00  0.00    +0.131 C 
ATOM      6  C   UNL     1       8.805   9.437   5.806  0.00  0.00    +0.213 C 
ATOM      8  C   UNL     1       9.964  12.456   5.812  0.00  0.00    +0.113 C 
ATOM     10  C   UNL     1       7.957  10.156   4.760  0.00  0.00    +0.205 C 
ATOM     11  C   UNL     1       8.661  12.397   5.020  0.00  0.00    +0.175 C 
ENDROOT
BRANCH   6   2
ATOM      2  O   UNL     1       8.000   8.434   6.428  0.00  0.00    -0.485 OA
BRANCH   2  18
ATOM     18  C   UNL     1       8.634   7.274   6.779  0.00  0.00    +0.121 A 
ATOM     21  C   UNL     1       8.898   7.001   8.121  0.00  0.00    +0.045 A 
ATOM     22  C   UNL     1       9.018   6.364   5.793  0.00  0.00    +0.045 A 
ATOM     23  C   UNL     1       9.545   5.818   8.479  0.00  0.00    +0.004 A 
ATOM     24  C   UNL     1       9.665   5.181   6.151  0.00  0.00    +0.004 A 
ATOM     25  C   UNL     1       9.929   4.908   7.493  0.00  0.00    +0.000 A 
ENDBRANCH   2  18
ENDBRANCH   6   2
BRANCH   3   7
ATOM      7  C   UNL     1      11.471  11.457   7.392  0.00  0.00    +0.122 C 
BRANCH   7   9
ATOM      4  N   UNL     1      14.929  10.649   6.426  0.00  0.00    -0.349 N 
ATOM      9  C   UNL     1      12.797  10.854   7.011  0.00  0.00    -0.008 A 
ATOM     12  C   UNL     1      13.093   9.468   6.886  0.00  0.00    +0.004 A 
ATOM     13  C   UNL     1      14.436   9.367   6.519  0.00  0.00    +0.049 A 
ATOM     14  C   UNL     1      13.946  11.555   6.722  0.00  0.00    +0.091 A 
ATOM     15  C   UNL     1      12.343   8.286   7.051  0.00  0.00    +0.010 A 
ATOM     16  C   UNL     1      15.070   8.137   6.308  0.00  0.00    +0.026 A 
ATOM     17  C   UNL     1      16.285  11.005   6.070  0.00  0.00    +0.149 C 
ATOM     19  C   UNL     1      12.964   7.049   6.844  0.00  0.00    +0.001 A 
ATOM     20  C   UNL     1      14.308   6.979   6.476  0.00  0.00    +0.002 A 
ENDBRANCH   7   9
ENDBRANCH   3   7
TORSDOF 4
ENDMDL
MODEL 10
REMARK VINA RESULT:      -5.8      2.712      7.428
REMARK  Name = 75536914
REMARK  5 active torsions:
REMARK  status: ('A' for Active; 'I' for Inactive)
REMARK    1  A    between atoms: O_2  and  C_6
REMARK    2  A    between atoms: O_2  and  C_18
REMARK    3  A    between atoms: N_3  and  C_7
REMARK    4  A    between atoms: N_4  and  C_17
REMARK    5  A    between atoms: C_7  and  C_9
REMARK                            x       y       z     vdW  Elec       q    Type
REMARK                         _______ _______ _______ _____ _____    ______ ____
ROOT
ATOM      1  O   UNL     1      -9.672 -10.077  14.793  0.00  0.00    -0.375 OA
ATOM      3  N   UNL     1      -7.490 -11.011  13.165  0.00  0.00    -0.292 NA
ATOM      5  C   UNL     1      -6.761 -10.097  14.042  0.00  0.00    +0.131 C 
ATOM      6  C   UNL     1      -7.303 -10.162  15.477  0.00  0.00    +0.213 C 
ATOM      8  C   UNL     1      -8.712 -10.447  12.579  0.00  0.00    +0.113 C 
ATOM     10  C   UNL     1      -8.690  -9.558  15.683  0.00  0.00    +0.205 C 
ATOM     11  C   UNL     1      -9.546  -9.541  13.481  0.00  0.00    +0.175 C 
ENDROOT
BRANCH   6   2
ATOM      2  O   UNL     1      -6.381  -9.479  16.327  0.00  0.00    -0.485 OA
BRANCH   2  18
ATOM     18  C   UNL     1      -5.713 -10.245  17.242  0.00  0.00    +0.121 A 
ATOM     21  C   UNL     1      -4.414 -10.677  16.976  0.00  0.00    +0.045 A 
ATOM     22  C   UNL     1      -6.331 -10.594  18.443  0.00  0.00    +0.045 A 
ATOM     23  C   UNL     1      -3.733 -11.458  17.908  0.00  0.00    +0.004 A 
ATOM     24  C   UNL     1      -5.650 -11.375  19.376  0.00  0.00    +0.004 A 
ATOM     25  C   UNL     1      -4.352 -11.808  19.110  0.00  0.00    +0.000 A 
ENDBRANCH   2  18
ENDBRANCH   6   2
BRANCH   3   7
ATOM      7  C   UNL     1      -6.628 -11.543  12.109  0.00  0.00    +0.122 C 
BRANCH   7   9
ATOM      4  N   UNL     1      -3.245 -11.831  13.527  0.00  0.00    -0.349 N 
ATOM      9  C   UNL     1      -5.172 -11.473  12.485  0.00  0.00    -0.008 A 
ATOM     12  C   UNL     1      -4.170 -10.689  11.848  0.00  0.00    +0.004 A 
ATOM     13  C   UNL     1      -2.970 -10.932  12.522  0.00  0.00    +0.049 A 
ATOM     14  C   UNL     1      -4.573 -12.163  13.513  0.00  0.00    +0.091 A 
ATOM     15  C   UNL     1      -4.168  -9.793  10.761  0.00  0.00    +0.010 A 
ATOM     16  C   UNL     1      -1.765 -10.321  12.159  0.00  0.00    +0.026 A 
ATOM     17  C   UNL     1      -2.282 -12.357  14.471  0.00  0.00    +0.149 C 
ATOM     19  C   UNL     1      -2.970  -9.174  10.387  0.00  0.00    +0.001 A 
ATOM     20  C   UNL     1      -1.787  -9.436  11.078  0.00  0.00    +0.002 A 
ENDBRANCH   7   9
ENDBRANCH   3   7
TORSDOF 4
ENDMDL
