MODEL 1
REMARK VINA RESULT:      -6.9      0.000      0.000
REMARK  Name = 40781655
REMARK  12 active torsions:
REMARK  status: ('A' for Active; 'I' for Inactive)
REMARK    1  A    between atoms: O_2  and  C_11
REMARK    2  A    between atoms: O_3  and  C_12
REMARK    3  A    between atoms: N_6  and  C_14
REMARK    4  A    between atoms: N_7  and  C_15
REMARK    5  A    between atoms: N_8  and  C_24
REMARK    6  A    between atoms: N_9  and  C_25
REMARK    7  A    between atoms: N_9  and  C_26
REMARK    8  A    between atoms: N_9  and  C_27
REMARK    9  A    between atoms: C_10  and  C_15
REMARK   10  A    between atoms: C_13  and  C_18
REMARK   11  A    between atoms: C_18  and  C_23
REMARK   12  A    between atoms: C_24  and  C_25
REMARK                            x       y       z     vdW  Elec       q    Type
REMARK                         _______ _______ _______ _____ _____    ______ ____
ROOT
ATOM      1  O   UNL     1      10.597   8.376  20.475  0.00  0.00    -0.366 OA
ATOM     10  C   UNL     1      10.594   7.619  21.708  0.00  0.00    +0.167 C 
ATOM     11  C   UNL     1      11.679   6.558  21.562  0.00  0.00    +0.176 C 
ATOM     12  C   UNL     1      12.653   7.230  20.617  0.00  0.00    +0.175 C 
ATOM     13  C   UNL     1      11.709   7.949  19.669  0.00  0.00    +0.158 C 
ENDROOT
BRANCH  11   2
ATOM      2  O   UNL     1      11.099   5.411  20.943  0.00  0.00    -0.387 OA
ATOM     30  H   UNL     1      10.664   4.893  21.642  0.00  0.00    +0.210 HD
ENDBRANCH  11   2
BRANCH  12   3
ATOM      3  O   UNL     1      13.494   6.321  19.940  0.00  0.00    -0.387 OA
ATOM     31  H   UNL     1      14.396   6.451  20.278  0.00  0.00    +0.210 HD
ENDBRANCH  12   3
BRANCH  10  15
ATOM     15  C   UNL     1      10.857   8.589  22.852  0.00  0.00    +0.140 C 
BRANCH  15   7
ATOM      4  O   UNL     1      12.128  11.040  23.653  0.00  0.00    -0.253 OA
ATOM      6  N   UNL     1      10.526  12.226  22.462  0.00  0.00    -0.297 N 
ATOM      7  N   UNL     1      10.450   9.918  22.506  0.00  0.00    -0.297 N 
ATOM     22  C   UNL     1      11.126  11.063  22.939  0.00  0.00    +0.300 C 
ATOM     28  H   UNL     1       9.747  12.128  21.818  0.00  0.00    +0.151 HD
ATOM     29  H   UNL     1       9.637  10.034  21.909  0.00  0.00    +0.150 HD
BRANCH   6  14
ATOM     14  C   UNL     1      11.021  13.551  22.758  0.00  0.00    +0.074 C 
ATOM     16  C   UNL     1      11.986  14.035  21.670  0.00  0.00    +0.022 C 
ATOM     17  C   UNL     1       9.866  14.540  22.956  0.00  0.00    +0.022 C 
ATOM     19  C   UNL     1      11.270  14.373  20.362  0.00  0.00    +0.002 C 
ATOM     20  C   UNL     1       9.154  14.876  21.646  0.00  0.00    +0.002 C 
ATOM     21  C   UNL     1      10.133  15.366  20.584  0.00  0.00    +0.000 C 
ENDBRANCH   6  14
ENDBRANCH  15   7
ENDBRANCH  10  15
BRANCH  13  18
ATOM     18  C   UNL     1      12.338   9.151  18.988  0.00  0.00    +0.130 C 
BRANCH  18  23
ATOM      5  O   UNL     1      13.066   7.742  17.162  0.00  0.00    -0.276 OA
ATOM      8  N   UNL     1      12.720  10.008  16.776  0.00  0.00    -0.314 N 
ATOM     23  C   UNL     1      12.750   8.861  17.556  0.00  0.00    +0.216 C 
ATOM     32  H   UNL     1      12.434  10.887  17.198  0.00  0.00    +0.149 HD
BRANCH   8  24
ATOM     24  C   UNL     1      13.069  10.017  15.373  0.00  0.00    +0.119 C 
BRANCH  24  25
ATOM     25  C   UNL     1      14.426  10.666  15.149  0.00  0.00    +0.102 C 
BRANCH  25   9
ATOM      9  N   UNL     1      14.384  11.535  13.979  0.00  0.00    -0.307 NA
ATOM     26  C   UNL     1      15.718  11.675  13.391  0.00  0.00    +0.104 C 
ATOM     27  C   UNL     1      13.845  12.849  14.331  0.00  0.00    +0.104 C 
ENDBRANCH  25   9
ENDBRANCH  24  25
ENDBRANCH   8  24
ENDBRANCH  18  23
ENDBRANCH  13  18
TORSDOF 10
ENDMDL
MODEL 2
REMARK VINA RESULT:      -6.7      2.661      3.607
REMARK  Name = 40781655
REMARK  12 active torsions:
REMARK  status: ('A' for Active; 'I' for Inactive)
REMARK    1  A    between atoms: O_2  and  C_11
REMARK    2  A    between atoms: O_3  and  C_12
REMARK    3  A    between atoms: N_6  and  C_14
REMARK    4  A    between atoms: N_7  and  C_15
REMARK    5  A    between atoms: N_8  and  C_24
REMARK    6  A    between atoms: N_9  and  C_25
REMARK    7  A    between atoms: N_9  and  C_26
REMARK    8  A    between atoms: N_9  and  C_27
REMARK    9  A    between atoms: C_10  and  C_15
REMARK   10  A    between atoms: C_13  and  C_18
REMARK   11  A    between atoms: C_18  and  C_23
REMARK   12  A    between atoms: C_24  and  C_25
REMARK                            x       y       z     vdW  Elec       q    Type
REMARK                         _______ _______ _______ _____ _____    ______ ____
ROOT
ATOM      1  O   UNL     1      10.613   8.389  20.435  0.00  0.00    -0.366 OA
ATOM     10  C   UNL     1      10.544   7.606  21.649  0.00  0.00    +0.167 C 
ATOM     11  C   UNL     1      11.592   6.507  21.511  0.00  0.00    +0.176 C 
ATOM     12  C   UNL     1      12.618   7.160  20.609  0.00  0.00    +0.175 C 
ATOM     13  C   UNL     1      11.731   7.935  19.651  0.00  0.00    +0.158 C 
ENDROOT
BRANCH  11   2
ATOM      2  O   UNL     1      10.985   5.397  20.849  0.00  0.00    -0.387 OA
ATOM     30  H   UNL     1      10.230   5.113  21.392  0.00  0.00    +0.210 HD
ENDBRANCH  11   2
BRANCH  12   3
ATOM      3  O   UNL     1      13.443   6.233  19.936  0.00  0.00    -0.387 OA
ATOM     31  H   UNL     1      12.860   5.581  19.511  0.00  0.00    +0.210 HD
ENDBRANCH  12   3
BRANCH  10  15
ATOM     15  C   UNL     1      10.811   8.541  22.822  0.00  0.00    +0.140 C 
BRANCH  15   7
ATOM      4  O   UNL     1      11.227  10.858  24.471  0.00  0.00    -0.253 OA
ATOM      6  N   UNL     1      10.470  12.196  22.732  0.00  0.00    -0.297 N 
ATOM      7  N   UNL     1      10.563   9.905  22.462  0.00  0.00    -0.297 N 
ATOM     22  C   UNL     1      10.793  10.979  23.327  0.00  0.00    +0.300 C 
ATOM     28  H   UNL     1      10.190  12.188  21.756  0.00  0.00    +0.151 HD
ATOM     29  H   UNL     1      10.213  10.102  21.529  0.00  0.00    +0.150 HD
BRANCH   6  14
ATOM     14  C   UNL     1      10.613  13.468  23.404  0.00  0.00    +0.074 C 
ATOM     16  C   UNL     1      11.959  14.120  23.072  0.00  0.00    +0.022 C 
ATOM     17  C   UNL     1       9.445  14.403  23.068  0.00  0.00    +0.022 C 
ATOM     19  C   UNL     1      12.018  14.641  21.635  0.00  0.00    +0.002 C 
ATOM     20  C   UNL     1       9.509  14.923  21.632  0.00  0.00    +0.002 C 
ATOM     21  C   UNL     1      10.853  15.577  21.329  0.00  0.00    +0.000 C 
ENDBRANCH   6  14
ENDBRANCH  15   7
ENDBRANCH  10  15
BRANCH  13  18
ATOM     18  C   UNL     1      12.426   9.126  19.016  0.00  0.00    +0.130 C 
BRANCH  18  23
ATOM      5  O   UNL     1      13.199  10.543  20.817  0.00  0.00    -0.276 OA
ATOM      8  N   UNL     1      14.746   9.293  19.617  0.00  0.00    -0.314 N 
ATOM     23  C   UNL     1      13.472   9.745  19.926  0.00  0.00    +0.216 C 
ATOM     32  H   UNL     1      14.866   8.622  18.863  0.00  0.00    +0.149 HD
BRANCH   8  24
ATOM     24  C   UNL     1      15.930   9.723  20.327  0.00  0.00    +0.119 C 
BRANCH  24  25
ATOM     25  C   UNL     1      16.929   8.585  20.472  0.00  0.00    +0.102 C 
BRANCH  25   9
ATOM      9  N   UNL     1      16.254   7.300  20.335  0.00  0.00    -0.307 NA
ATOM     26  C   UNL     1      16.225   6.593  21.618  0.00  0.00    +0.104 C 
ATOM     27  C   UNL     1      16.910   6.477  19.318  0.00  0.00    +0.104 C 
ENDBRANCH  25   9
ENDBRANCH  24  25
ENDBRANCH   8  24
ENDBRANCH  18  23
ENDBRANCH  13  18
TORSDOF 10
ENDMDL
MODEL 3
REMARK VINA RESULT:      -6.6      3.118      5.227
REMARK  Name = 40781655
REMARK  12 active torsions:
REMARK  status: ('A' for Active; 'I' for Inactive)
REMARK    1  A    between atoms: O_2  and  C_11
REMARK    2  A    between atoms: O_3  and  C_12
REMARK    3  A    between atoms: N_6  and  C_14
REMARK    4  A    between atoms: N_7  and  C_15
REMARK    5  A    between atoms: N_8  and  C_24
REMARK    6  A    between atoms: N_9  and  C_25
REMARK    7  A    between atoms: N_9  and  C_26
REMARK    8  A    between atoms: N_9  and  C_27
REMARK    9  A    between atoms: C_10  and  C_15
REMARK   10  A    between atoms: C_13  and  C_18
REMARK   11  A    between atoms: C_18  and  C_23
REMARK   12  A    between atoms: C_24  and  C_25
REMARK                            x       y       z     vdW  Elec       q    Type
REMARK                         _______ _______ _______ _____ _____    ______ ____
ROOT
ATOM      1  O   UNL     1      11.244   8.838  20.356  0.00  0.00    -0.366 OA
ATOM     10  C   UNL     1      10.977   9.092  21.755  0.00  0.00    +0.167 C 
ATOM     11  C   UNL     1      10.842   7.726  22.420  0.00  0.00    +0.176 C 
ATOM     12  C   UNL     1      11.727   6.861  21.547  0.00  0.00    +0.175 C 
ATOM     13  C   UNL     1      11.436   7.425  20.167  0.00  0.00    +0.158 C 
ENDROOT
BRANCH  11   2
ATOM      2  O   UNL     1       9.481   7.312  22.312  0.00  0.00    -0.387 OA
ATOM     30  H   UNL     1       9.339   6.608  22.968  0.00  0.00    +0.210 HD
ENDBRANCH  11   2
BRANCH  12   3
ATOM      3  O   UNL     1      11.422   5.484  21.632  0.00  0.00    -0.387 OA
ATOM     31  H   UNL     1      11.464   5.235  22.571  0.00  0.00    +0.210 HD
ENDBRANCH  12   3
BRANCH  10  15
ATOM     15  C   UNL     1      12.133   9.914  22.309  0.00  0.00    +0.140 C 
BRANCH  15   7
ATOM      4  O   UNL     1      14.135  10.245  20.273  0.00  0.00    -0.253 OA
ATOM      6  N   UNL     1      15.412   8.601  21.302  0.00  0.00    -0.297 N 
ATOM      7  N   UNL     1      13.372   9.202  22.201  0.00  0.00    -0.297 N 
ATOM     22  C   UNL     1      14.295   9.424  21.174  0.00  0.00    +0.300 C 
ATOM     28  H   UNL     1      15.476   8.012  22.126  0.00  0.00    +0.151 HD
ATOM     29  H   UNL     1      13.593   8.510  22.909  0.00  0.00    +0.150 HD
BRANCH   6  14
ATOM     14  C   UNL     1      16.522   8.625  20.375  0.00  0.00    +0.074 C 
ATOM     16  C   UNL     1      17.680   9.465  20.923  0.00  0.00    +0.022 C 
ATOM     17  C   UNL     1      16.981   7.203  20.030  0.00  0.00    +0.022 C 
ATOM     19  C   UNL     1      18.400   8.781  22.086  0.00  0.00    +0.002 C 
ATOM     20  C   UNL     1      17.702   6.524  21.195  0.00  0.00    +0.002 C 
ATOM     21  C   UNL     1      18.857   7.373  21.714  0.00  0.00    +0.000 C 
ENDBRANCH   6  14
ENDBRANCH  15   7
ENDBRANCH  10  15
BRANCH  13  18
ATOM     18  C   UNL     1      12.558   7.190  19.172  0.00  0.00    +0.130 C 
BRANCH  18  23
ATOM      5  O   UNL     1      11.516   7.492  17.010  0.00  0.00    -0.276 OA
ATOM      8  N   UNL     1      13.116   9.021  17.719  0.00  0.00    -0.314 N 
ATOM     23  C   UNL     1      12.319   7.892  17.847  0.00  0.00    +0.216 C 
ATOM     32  H   UNL     1      13.745   9.272  18.476  0.00  0.00    +0.149 HD
BRANCH   8  24
ATOM     24  C   UNL     1      13.092   9.875  16.553  0.00  0.00    +0.119 C 
BRANCH  24  25
ATOM     25  C   UNL     1      14.359   9.715  15.728  0.00  0.00    +0.102 C 
BRANCH  25   9
ATOM      9  N   UNL     1      15.192  10.905  15.845  0.00  0.00    -0.307 NA
ATOM     26  C   UNL     1      14.369  12.090  16.097  0.00  0.00    +0.104 C 
ATOM     27  C   UNL     1      15.996  11.095  14.636  0.00  0.00    +0.104 C 
ENDBRANCH  25   9
ENDBRANCH  24  25
ENDBRANCH   8  24
ENDBRANCH  18  23
ENDBRANCH  13  18
TORSDOF 10
ENDMDL
MODEL 4
REMARK VINA RESULT:      -6.2     13.572     16.271
REMARK  Name = 40781655
REMARK  12 active torsions:
REMARK  status: ('A' for Active; 'I' for Inactive)
REMARK    1  A    between atoms: O_2  and  C_11
REMARK    2  A    between atoms: O_3  and  C_12
REMARK    3  A    between atoms: N_6  and  C_14
REMARK    4  A    between atoms: N_7  and  C_15
REMARK    5  A    between atoms: N_8  and  C_24
REMARK    6  A    between atoms: N_9  and  C_25
REMARK    7  A    between atoms: N_9  and  C_26
REMARK    8  A    between atoms: N_9  and  C_27
REMARK    9  A    between atoms: C_10  and  C_15
REMARK   10  A    between atoms: C_13  and  C_18
REMARK   11  A    between atoms: C_18  and  C_23
REMARK   12  A    between atoms: C_24  and  C_25
REMARK                            x       y       z     vdW  Elec       q    Type
REMARK                         _______ _______ _______ _____ _____    ______ ____
ROOT
ATOM      1  O   UNL     1       9.904   6.236   5.774  0.00  0.00    -0.366 OA
ATOM     10  C   UNL     1       9.317   6.032   7.080  0.00  0.00    +0.167 C 
ATOM     11  C   UNL     1      10.468   5.691   8.020  0.00  0.00    +0.176 C 
ATOM     12  C   UNL     1      11.630   6.414   7.371  0.00  0.00    +0.175 C 
ATOM     13  C   UNL     1      11.337   6.198   5.896  0.00  0.00    +0.158 C 
ENDROOT
BRANCH  11   2
ATOM      2  O   UNL     1      10.675   4.279   7.974  0.00  0.00    -0.387 OA
ATOM     30  H   UNL     1       9.822   3.868   7.755  0.00  0.00    +0.210 HD
ENDBRANCH  11   2
BRANCH  12   3
ATOM      3  O   UNL     1      12.890   5.896   7.743  0.00  0.00    -0.387 OA
ATOM     31  H   UNL     1      13.399   5.756   6.926  0.00  0.00    +0.210 HD
ENDBRANCH  12   3
BRANCH  10  15
ATOM     15  C   UNL     1       8.589   7.311   7.469  0.00  0.00    +0.140 C 
BRANCH  15   7
ATOM      4  O   UNL     1       8.947   9.804   6.083  0.00  0.00    -0.253 OA
ATOM      6  N   UNL     1       7.132   9.281   4.732  0.00  0.00    -0.297 N 
ATOM      7  N   UNL     1       7.800   7.808   6.381  0.00  0.00    -0.297 N 
ATOM     22  C   UNL     1       8.042   9.037   5.759  0.00  0.00    +0.300 C 
ATOM     28  H   UNL     1       6.471   8.547   4.500  0.00  0.00    +0.151 HD
ATOM     29  H   UNL     1       7.035   7.235   6.039  0.00  0.00    +0.150 HD
BRANCH   6  14
ATOM     14  C   UNL     1       7.155  10.479   3.924  0.00  0.00    +0.074 C 
ATOM     16  C   UNL     1       7.953  10.259   2.635  0.00  0.00    +0.022 C 
ATOM     17  C   UNL     1       5.732  10.966   3.620  0.00  0.00    +0.022 C 
ATOM     19  C   UNL     1       7.222   9.357   1.640  0.00  0.00    +0.002 C 
ATOM     20  C   UNL     1       5.006  10.061   2.624  0.00  0.00    +0.002 C 
ATOM     21  C   UNL     1       5.815   9.867   1.346  0.00  0.00    +0.000 C 
ENDBRANCH   6  14
ENDBRANCH  15   7
ENDBRANCH  10  15
BRANCH  13  18
ATOM     18  C   UNL     1      11.955   7.254   4.998  0.00  0.00    +0.130 C 
BRANCH  18  23
ATOM      5  O   UNL     1      13.689   6.934   3.343  0.00  0.00    -0.276 OA
ATOM      8  N   UNL     1      11.671   5.807   3.102  0.00  0.00    -0.314 N 
ATOM     23  C   UNL     1      12.557   6.666   3.735  0.00  0.00    +0.216 C 
ATOM     32  H   UNL     1      10.756   5.646   3.514  0.00  0.00    +0.149 HD
BRANCH   8  24
ATOM     24  C   UNL     1      11.988   5.111   1.875  0.00  0.00    +0.119 C 
BRANCH  24  25
ATOM     25  C   UNL     1      12.073   3.609   2.101  0.00  0.00    +0.102 C 
BRANCH  25   9
ATOM      9  N   UNL     1      13.146   3.037   1.297  0.00  0.00    -0.307 NA
ATOM     26  C   UNL     1      14.439   3.612   1.678  0.00  0.00    +0.104 C 
ATOM     27  C   UNL     1      12.896   3.252  -0.129  0.00  0.00    +0.104 C 
ENDBRANCH  25   9
ENDBRANCH  24  25
ENDBRANCH   8  24
ENDBRANCH  18  23
ENDBRANCH  13  18
TORSDOF 10
ENDMDL
MODEL 5
REMARK VINA RESULT:      -6.1     26.800     28.828
REMARK  Name = 40781655
REMARK  12 active torsions:
REMARK  status: ('A' for Active; 'I' for Inactive)
REMARK    1  A    between atoms: O_2  and  C_11
REMARK    2  A    between atoms: O_3  and  C_12
REMARK    3  A    between atoms: N_6  and  C_14
REMARK    4  A    between atoms: N_7  and  C_15
REMARK    5  A    between atoms: N_8  and  C_24
REMARK    6  A    between atoms: N_9  and  C_25
REMARK    7  A    between atoms: N_9  and  C_26
REMARK    8  A    between atoms: N_9  and  C_27
REMARK    9  A    between atoms: C_10  and  C_15
REMARK   10  A    between atoms: C_13  and  C_18
REMARK   11  A    between atoms: C_18  and  C_23
REMARK   12  A    between atoms: C_24  and  C_25
REMARK                            x       y       z     vdW  Elec       q    Type
REMARK                         _______ _______ _______ _____ _____    ______ ____
ROOT
ATOM      1  O   UNL     1      -5.502 -10.236  18.469  0.00  0.00    -0.366 OA
ATOM     10  C   UNL     1      -4.872 -10.251  17.168  0.00  0.00    +0.167 C 
ATOM     11  C   UNL     1      -4.240 -11.630  17.013  0.00  0.00    +0.176 C 
ATOM     12  C   UNL     1      -5.142 -12.489  17.875  0.00  0.00    +0.175 C 
ATOM     13  C   UNL     1      -5.431 -11.556  19.038  0.00  0.00    +0.158 C 
ENDROOT
BRANCH  11   2
ATOM      2  O   UNL     1      -2.926 -11.581  17.568  0.00  0.00    -0.387 OA
ATOM     30  H   UNL     1      -2.740 -12.454  17.951  0.00  0.00    +0.210 HD
ENDBRANCH  11   2
BRANCH  12   3
ATOM      3  O   UNL     1      -4.534 -13.691  18.298  0.00  0.00    -0.387 OA
ATOM     31  H   UNL     1      -5.015 -14.424  17.879  0.00  0.00    +0.210 HD
ENDBRANCH  12   3
BRANCH  10  15
ATOM     15  C   UNL     1      -5.945  -9.967  16.126  0.00  0.00    +0.140 C 
BRANCH  15   7
ATOM      4  O   UNL     1      -6.124 -11.624  13.784  0.00  0.00    -0.253 OA
ATOM      6  N   UNL     1      -4.838 -10.075  12.626  0.00  0.00    -0.297 N 
ATOM      7  N   UNL     1      -5.364  -9.703  14.843  0.00  0.00    -0.297 N 
ATOM     22  C   UNL     1      -5.498 -10.565  13.750  0.00  0.00    +0.300 C 
ATOM     28  H   UNL     1      -4.415  -9.154  12.688  0.00  0.00    +0.151 HD
ATOM     29  H   UNL     1      -4.837  -8.844  14.720  0.00  0.00    +0.150 HD
BRANCH   6  14
ATOM     14  C   UNL     1      -4.816 -10.768  11.357  0.00  0.00    +0.074 C 
ATOM     16  C   UNL     1      -5.868 -10.198  10.400  0.00  0.00    +0.022 C 
ATOM     17  C   UNL     1      -3.417 -10.728  10.732  0.00  0.00    +0.022 C 
ATOM     19  C   UNL     1      -5.495  -8.809   9.880  0.00  0.00    +0.002 C 
ATOM     20  C   UNL     1      -3.049  -9.338  10.212  0.00  0.00    +0.002 C 
ATOM     21  C   UNL     1      -4.104  -8.798   9.253  0.00  0.00    +0.000 C 
ENDBRANCH   6  14
ENDBRANCH  15   7
ENDBRANCH  10  15
BRANCH  13  18
ATOM     18  C   UNL     1      -6.729 -11.873  19.758  0.00  0.00    +0.130 C 
BRANCH  18  23
ATOM      5  O   UNL     1      -8.527 -12.610  18.317  0.00  0.00    -0.276 OA
ATOM      8  N   UNL     1      -8.306 -10.345  18.785  0.00  0.00    -0.314 N 
ATOM     23  C   UNL     1      -7.948 -11.682  18.874  0.00  0.00    +0.216 C 
ATOM     32  H   UNL     1      -7.765  -9.651  19.293  0.00  0.00    +0.149 HD
BRANCH   8  24
ATOM     24  C   UNL     1      -9.431  -9.880  18.005  0.00  0.00    +0.119 C 
BRANCH  24  25
ATOM     25  C   UNL     1      -9.126  -8.546  17.341  0.00  0.00    +0.102 C 
BRANCH  25   9
ATOM      9  N   UNL     1     -10.341  -7.750  17.221  0.00  0.00    -0.307 NA
ATOM     26  C   UNL     1     -11.528  -8.597  17.356  0.00  0.00    +0.104 C 
ATOM     27  C   UNL     1     -10.370  -7.038  15.943  0.00  0.00    +0.104 C 
ENDBRANCH  25   9
ENDBRANCH  24  25
ENDBRANCH   8  24
ENDBRANCH  18  23
ENDBRANCH  13  18
TORSDOF 10
ENDMDL
MODEL 6
REMARK VINA RESULT:      -6.0     14.994     19.203
REMARK  Name = 40781655
REMARK  12 active torsions:
REMARK  status: ('A' for Active; 'I' for Inactive)
REMARK    1  A    between atoms: O_2  and  C_11
REMARK    2  A    between atoms: O_3  and  C_12
REMARK    3  A    between atoms: N_6  and  C_14
REMARK    4  A    between atoms: N_7  and  C_15
REMARK    5  A    between atoms: N_8  and  C_24
REMARK    6  A    between atoms: N_9  and  C_25
REMARK    7  A    between atoms: N_9  and  C_26
REMARK    8  A    between atoms: N_9  and  C_27
REMARK    9  A    between atoms: C_10  and  C_15
REMARK   10  A    between atoms: C_13  and  C_18
REMARK   11  A    between atoms: C_18  and  C_23
REMARK   12  A    between atoms: C_24  and  C_25
REMARK                            x       y       z     vdW  Elec       q    Type
REMARK                         _______ _______ _______ _____ _____    ______ ____
ROOT
ATOM      1  O   UNL     1      12.650   3.485   0.874  0.00  0.00    -0.366 OA
ATOM     10  C   UNL     1      13.338   4.235   1.902  0.00  0.00    +0.167 C 
ATOM     11  C   UNL     1      14.791   4.343   1.455  0.00  0.00    +0.176 C 
ATOM     12  C   UNL     1      14.662   4.293  -0.054  0.00  0.00    +0.175 C 
ATOM     13  C   UNL     1      13.549   3.274  -0.229  0.00  0.00    +0.158 C 
ENDROOT
BRANCH  11   2
ATOM      2  O   UNL     1      15.489   3.192   1.931  0.00  0.00    -0.387 OA
ATOM     30  H   UNL     1      16.219   3.020   1.313  0.00  0.00    +0.210 HD
ENDBRANCH  11   2
BRANCH  12   3
ATOM      3  O   UNL     1      15.851   3.897  -0.704  0.00  0.00    -0.387 OA
ATOM     31  H   UNL     1      16.249   4.694  -1.094  0.00  0.00    +0.210 HD
ENDBRANCH  12   3
BRANCH  10  15
ATOM     15  C   UNL     1      12.651   5.588   2.030  0.00  0.00    +0.140 C 
BRANCH  15   7
ATOM      4  O   UNL     1      10.204   4.552   3.128  0.00  0.00    -0.253 OA
ATOM      6  N   UNL     1      10.698   5.599   5.141  0.00  0.00    -0.297 N 
ATOM      7  N   UNL     1      12.153   5.791   3.358  0.00  0.00    -0.297 N 
ATOM     22  C   UNL     1      10.948   5.250   3.816  0.00  0.00    +0.300 C 
ATOM     28  H   UNL     1      11.415   6.118   5.638  0.00  0.00    +0.151 HD
ATOM     29  H   UNL     1      12.708   6.348   4.001  0.00  0.00    +0.150 HD
BRANCH   6  14
ATOM     14  C   UNL     1       9.520   5.173   5.863  0.00  0.00    +0.074 C 
ATOM     16  C   UNL     1       9.809   5.043   7.362  0.00  0.00    +0.022 C 
ATOM     17  C   UNL     1       8.342   6.120   5.604  0.00  0.00    +0.022 C 
ATOM     19  C   UNL     1       9.985   6.400   8.043  0.00  0.00    +0.002 C 
ATOM     20  C   UNL     1       8.521   7.475   6.289  0.00  0.00    +0.002 C 
ATOM     21  C   UNL     1       8.796   7.320   7.780  0.00  0.00    +0.000 C 
ENDBRANCH   6  14
ENDBRANCH  15   7
ENDBRANCH  10  15
BRANCH  13  18
ATOM     18  C   UNL     1      12.796   3.425  -1.539  0.00  0.00    +0.130 C 
BRANCH  18  23
ATOM      5  O   UNL     1      12.343   5.770  -1.922  0.00  0.00    -0.276 OA
ATOM      8  N   UNL     1      10.631   4.396  -1.160  0.00  0.00    -0.314 N 
ATOM     23  C   UNL     1      11.927   4.670  -1.572  0.00  0.00    +0.216 C 
ATOM     32  H   UNL     1      10.384   3.446  -0.898  0.00  0.00    +0.149 HD
BRANCH   8  24
ATOM     24  C   UNL     1       9.595   5.403  -1.094  0.00  0.00    +0.119 C 
BRANCH  24  25
ATOM     25  C   UNL     1       8.901   5.566  -2.438  0.00  0.00    +0.102 C 
BRANCH  25   9
ATOM      9  N   UNL     1       8.541   6.962  -2.654  0.00  0.00    -0.307 NA
ATOM     26  C   UNL     1       8.938   7.782  -1.507  0.00  0.00    +0.104 C 
ATOM     27  C   UNL     1       7.104   7.094  -2.898  0.00  0.00    +0.104 C 
ENDBRANCH  25   9
ENDBRANCH  24  25
ENDBRANCH   8  24
ENDBRANCH  18  23
ENDBRANCH  13  18
TORSDOF 10
ENDMDL
MODEL 7
REMARK VINA RESULT:      -5.9     15.573     19.821
REMARK  Name = 40781655
REMARK  12 active torsions:
REMARK  status: ('A' for Active; 'I' for Inactive)
REMARK    1  A    between atoms: O_2  and  C_11
REMARK    2  A    between atoms: O_3  and  C_12
REMARK    3  A    between atoms: N_6  and  C_14
REMARK    4  A    between atoms: N_7  and  C_15
REMARK    5  A    between atoms: N_8  and  C_24
REMARK    6  A    between atoms: N_9  and  C_25
REMARK    7  A    between atoms: N_9  and  C_26
REMARK    8  A    between atoms: N_9  and  C_27
REMARK    9  A    between atoms: C_10  and  C_15
REMARK   10  A    between atoms: C_13  and  C_18
REMARK   11  A    between atoms: C_18  and  C_23
REMARK   12  A    between atoms: C_24  and  C_25
REMARK                            x       y       z     vdW  Elec       q    Type
REMARK                         _______ _______ _______ _____ _____    ______ ____
ROOT
ATOM      1  O   UNL     1      13.450   3.160  -0.172  0.00  0.00    -0.366 OA
ATOM     10  C   UNL     1      13.358   3.366   1.257  0.00  0.00    +0.167 C 
ATOM     11  C   UNL     1      14.646   4.067   1.672  0.00  0.00    +0.176 C 
ATOM     12  C   UNL     1      15.014   4.825   0.414  0.00  0.00    +0.175 C 
ATOM     13  C   UNL     1      14.625   3.829  -0.665  0.00  0.00    +0.158 C 
ENDROOT
BRANCH  11   2
ATOM      2  O   UNL     1      15.625   3.068   1.954  0.00  0.00    -0.387 OA
ATOM     30  H   UNL     1      15.159   2.304   2.332  0.00  0.00    +0.210 HD
ENDBRANCH  11   2
BRANCH  12   3
ATOM      3  O   UNL     1      16.381   5.171   0.347  0.00  0.00    -0.387 OA
ATOM     31  H   UNL     1      16.842   4.669   1.042  0.00  0.00    +0.210 HD
ENDBRANCH  12   3
BRANCH  10  15
ATOM     15  C   UNL     1      12.111   4.196   1.529  0.00  0.00    +0.140 C 
BRANCH  15   7
ATOM      4  O   UNL     1      10.098   5.851   2.743  0.00  0.00    -0.253 OA
ATOM      6  N   UNL     1      11.274   5.763   4.744  0.00  0.00    -0.297 N 
ATOM      7  N   UNL     1      12.082   4.654   2.886  0.00  0.00    -0.297 N 
ATOM     22  C   UNL     1      11.061   5.460   3.401  0.00  0.00    +0.300 C 
ATOM     28  H   UNL     1      12.063   5.326   5.209  0.00  0.00    +0.151 HD
ATOM     29  H   UNL     1      12.834   4.371   3.507  0.00  0.00    +0.150 HD
BRANCH   6  14
ATOM     14  C   UNL     1      10.371   6.580   5.523  0.00  0.00    +0.074 C 
ATOM     16  C   UNL     1       9.243   5.736   6.124  0.00  0.00    +0.022 C 
ATOM     17  C   UNL     1      11.127   7.353   6.610  0.00  0.00    +0.022 C 
ATOM     19  C   UNL     1       9.729   4.832   7.258  0.00  0.00    +0.002 C 
ATOM     20  C   UNL     1      11.609   6.446   7.742  0.00  0.00    +0.002 C 
ATOM     21  C   UNL     1      10.467   5.625   8.332  0.00  0.00    +0.000 C 
ENDBRANCH   6  14
ENDBRANCH  15   7
ENDBRANCH  10  15
BRANCH  13  18
ATOM     18  C   UNL     1      14.321   4.478  -2.003  0.00  0.00    +0.130 C 
BRANCH  18  23
ATOM      5  O   UNL     1      12.887   3.159  -3.437  0.00  0.00    -0.276 OA
ATOM      8  N   UNL     1      11.931   4.728  -2.013  0.00  0.00    -0.314 N 
ATOM     23  C   UNL     1      12.989   4.031  -2.579  0.00  0.00    +0.216 C 
ATOM     32  H   UNL     1      12.122   5.427  -1.301  0.00  0.00    +0.149 HD
BRANCH   8  24
ATOM     24  C   UNL     1      10.551   4.503  -2.382  0.00  0.00    +0.119 C 
BRANCH  24  25
ATOM     25  C   UNL     1      10.143   5.386  -3.551  0.00  0.00    +0.102 C 
BRANCH  25   9
ATOM      9  N   UNL     1       9.284   4.647  -4.468  0.00  0.00    -0.307 NA
ATOM     26  C   UNL     1       7.923   5.186  -4.448  0.00  0.00    +0.104 C 
ATOM     27  C   UNL     1       9.270   3.223  -4.129  0.00  0.00    +0.104 C 
ENDBRANCH  25   9
ENDBRANCH  24  25
ENDBRANCH   8  24
ENDBRANCH  18  23
ENDBRANCH  13  18
TORSDOF 10
ENDMDL
MODEL 8
REMARK VINA RESULT:      -5.8     26.900     28.987
REMARK  Name = 40781655
REMARK  12 active torsions:
REMARK  status: ('A' for Active; 'I' for Inactive)
REMARK    1  A    between atoms: O_2  and  C_11
REMARK    2  A    between atoms: O_3  and  C_12
REMARK    3  A    between atoms: N_6  and  C_14
REMARK    4  A    between atoms: N_7  and  C_15
REMARK    5  A    between atoms: N_8  and  C_24
REMARK    6  A    between atoms: N_9  and  C_25
REMARK    7  A    between atoms: N_9  and  C_26
REMARK    8  A    between atoms: N_9  and  C_27
REMARK    9  A    between atoms: C_10  and  C_15
REMARK   10  A    between atoms: C_13  and  C_18
REMARK   11  A    between atoms: C_18  and  C_23
REMARK   12  A    between atoms: C_24  and  C_25
REMARK                            x       y       z     vdW  Elec       q    Type
REMARK                         _______ _______ _______ _____ _____    ______ ____
ROOT
ATOM      1  O   UNL     1      -6.456  -9.330  17.039  0.00  0.00    -0.366 OA
ATOM     10  C   UNL     1      -5.768 -10.366  17.778  0.00  0.00    +0.167 C 
ATOM     11  C   UNL     1      -6.740 -10.844  18.851  0.00  0.00    +0.176 C 
ATOM     12  C   UNL     1      -8.083 -10.580  18.202  0.00  0.00    +0.175 C 
ATOM     13  C   UNL     1      -7.821  -9.265  17.488  0.00  0.00    +0.158 C 
ENDROOT
BRANCH  11   2
ATOM      2  O   UNL     1      -6.574 -10.015  20.001  0.00  0.00    -0.387 OA
ATOM     30  H   UNL     1      -6.113 -10.543  20.675  0.00  0.00    +0.210 HD
ENDBRANCH  11   2
BRANCH  12   3
ATOM      3  O   UNL     1      -9.143 -10.478  19.129  0.00  0.00    -0.387 OA
ATOM     31  H   UNL     1      -9.953 -10.770  18.678  0.00  0.00    +0.210 HD
ENDBRANCH  12   3
BRANCH  10  15
ATOM     15  C   UNL     1      -5.379 -11.461  16.794  0.00  0.00    +0.140 C 
BRANCH  15   7
ATOM      4  O   UNL     1      -4.824 -12.922  14.381  0.00  0.00    -0.253 OA
ATOM      6  N   UNL     1      -4.444 -10.910  13.286  0.00  0.00    -0.297 N 
ATOM      7  N   UNL     1      -5.023 -10.909  15.521  0.00  0.00    -0.297 N 
ATOM     22  C   UNL     1      -4.768 -11.693  14.391  0.00  0.00    +0.300 C 
ATOM     28  H   UNL     1      -4.500  -9.901  13.386  0.00  0.00    +0.151 HD
ATOM     29  H   UNL     1      -4.963  -9.899  15.433  0.00  0.00    +0.150 HD
BRANCH   6  14
ATOM     14  C   UNL     1      -4.134 -11.465  11.987  0.00  0.00    +0.074 C 
ATOM     16  C   UNL     1      -4.897 -10.732  10.879  0.00  0.00    +0.022 C 
ATOM     17  C   UNL     1      -2.623 -11.448  11.727  0.00  0.00    +0.022 C 
ATOM     19  C   UNL     1      -4.358  -9.322  10.631  0.00  0.00    +0.002 C 
ATOM     20  C   UNL     1      -2.089 -10.036  11.479  0.00  0.00    +0.002 C 
ATOM     21  C   UNL     1      -2.856  -9.333  10.364  0.00  0.00    +0.000 C 
ENDBRANCH   6  14
ENDBRANCH  15   7
ENDBRANCH  10  15
BRANCH  13  18
ATOM     18  C   UNL     1      -8.739  -9.031  16.301  0.00  0.00    +0.130 C 
BRANCH  18  23
ATOM      5  O   UNL     1     -10.723  -8.419  17.543  0.00  0.00    -0.276 OA
ATOM      8  N   UNL     1      -9.985  -7.031  15.831  0.00  0.00    -0.314 N 
ATOM     23  C   UNL     1      -9.927  -8.151  16.648  0.00  0.00    +0.216 C 
ATOM     32  H   UNL     1      -9.270  -6.897  15.122  0.00  0.00    +0.149 HD
BRANCH   8  24
ATOM     24  C   UNL     1     -11.018  -6.026  15.943  0.00  0.00    +0.119 C 
BRANCH  24  25
ATOM     25  C   UNL     1     -11.653  -5.737  14.591  0.00  0.00    +0.102 C 
BRANCH  25   9
ATOM      9  N   UNL     1     -13.095  -5.937  14.656  0.00  0.00    -0.307 NA
ATOM     26  C   UNL     1     -13.465  -6.627  15.893  0.00  0.00    +0.104 C 
ATOM     27  C   UNL     1     -13.565  -6.693  13.494  0.00  0.00    +0.104 C 
ENDBRANCH  25   9
ENDBRANCH  24  25
ENDBRANCH   8  24
ENDBRANCH  18  23
ENDBRANCH  13  18
TORSDOF 10
ENDMDL
MODEL 9
REMARK VINA RESULT:      -5.7      4.294      6.497
REMARK  Name = 40781655
REMARK  12 active torsions:
REMARK  status: ('A' for Active; 'I' for Inactive)
REMARK    1  A    between atoms: O_2  and  C_11
REMARK    2  A    between atoms: O_3  and  C_12
REMARK    3  A    between atoms: N_6  and  C_14
REMARK    4  A    between atoms: N_7  and  C_15
REMARK    5  A    between atoms: N_8  and  C_24
REMARK    6  A    between atoms: N_9  and  C_25
REMARK    7  A    between atoms: N_9  and  C_26
REMARK    8  A    between atoms: N_9  and  C_27
REMARK    9  A    between atoms: C_10  and  C_15
REMARK   10  A    between atoms: C_13  and  C_18
REMARK   11  A    between atoms: C_18  and  C_23
REMARK   12  A    between atoms: C_24  and  C_25
REMARK                            x       y       z     vdW  Elec       q    Type
REMARK                         _______ _______ _______ _____ _____    ______ ____
ROOT
ATOM      1  O   UNL     1      13.067   7.158  19.102  0.00  0.00    -0.366 OA
ATOM     10  C   UNL     1      12.029   7.552  20.029  0.00  0.00    +0.167 C 
ATOM     11  C   UNL     1      12.582   7.294  21.427  0.00  0.00    +0.176 C 
ATOM     12  C   UNL     1      14.072   7.465  21.214  0.00  0.00    +0.175 C 
ATOM     13  C   UNL     1      14.257   6.835  19.844  0.00  0.00    +0.158 C 
ENDROOT
BRANCH  11   2
ATOM      2  O   UNL     1      12.283   5.944  21.780  0.00  0.00    -0.387 OA
ATOM     30  H   UNL     1      11.384   5.754  21.465  0.00  0.00    +0.210 HD
ENDBRANCH  11   2
BRANCH  12   3
ATOM      3  O   UNL     1      14.855   6.828  22.200  0.00  0.00    -0.387 OA
ATOM     31  H   UNL     1      15.642   7.380  22.348  0.00  0.00    +0.210 HD
ENDBRANCH  12   3
BRANCH  10  15
ATOM     15  C   UNL     1      11.708   9.018  19.775  0.00  0.00    +0.140 C 
BRANCH  15   7
ATOM      4  O   UNL     1      14.056  10.674  19.677  0.00  0.00    -0.253 OA
ATOM      6  N   UNL     1      13.958  10.626  17.358  0.00  0.00    -0.297 N 
ATOM      7  N   UNL     1      12.372   9.496  18.599  0.00  0.00    -0.297 N 
ATOM     22  C   UNL     1      13.514  10.302  18.638  0.00  0.00    +0.300 C 
ATOM     28  H   UNL     1      13.479  10.204  16.569  0.00  0.00    +0.151 HD
ATOM     29  H   UNL     1      11.999   9.229  17.693  0.00  0.00    +0.150 HD
BRANCH   6  14
ATOM     14  C   UNL     1      15.121  11.448  17.108  0.00  0.00    +0.074 C 
ATOM     16  C   UNL     1      15.596  11.304  15.659  0.00  0.00    +0.022 C 
ATOM     17  C   UNL     1      14.844  12.915  17.460  0.00  0.00    +0.022 C 
ATOM     19  C   UNL     1      14.652  11.980  14.664  0.00  0.00    +0.002 C 
ATOM     20  C   UNL     1      13.902  13.587  16.461  0.00  0.00    +0.002 C 
ATOM     21  C   UNL     1      14.402  13.441  15.028  0.00  0.00    +0.000 C 
ENDBRANCH   6  14
ENDBRANCH  15   7
ENDBRANCH  10  15
BRANCH  13  18
ATOM     18  C   UNL     1      15.478   7.351  19.103  0.00  0.00    +0.130 C 
BRANCH  18  23
ATOM      5  O   UNL     1      16.876   5.454  18.559  0.00  0.00    -0.276 OA
ATOM      8  N   UNL     1      17.514   6.873  20.285  0.00  0.00    -0.314 N 
ATOM     23  C   UNL     1      16.683   6.442  19.261  0.00  0.00    +0.216 C 
ATOM     32  H   UNL     1      17.268   7.711  20.804  0.00  0.00    +0.149 HD
BRANCH   8  24
ATOM     24  C   UNL     1      18.734   6.189  20.652  0.00  0.00    +0.119 C 
BRANCH  24  25
ATOM     25  C   UNL     1      19.307   6.745  21.947  0.00  0.00    +0.102 C 
BRANCH  25   9
ATOM      9  N   UNL     1      20.764   6.738  21.898  0.00  0.00    -0.307 NA
ATOM     26  C   UNL     1      21.236   6.993  20.535  0.00  0.00    +0.104 C 
ATOM     27  C   UNL     1      21.292   5.464  22.388  0.00  0.00    +0.104 C 
ENDBRANCH  25   9
ENDBRANCH  24  25
ENDBRANCH   8  24
ENDBRANCH  18  23
ENDBRANCH  13  18
TORSDOF 10
ENDMDL
MODEL 10
REMARK VINA RESULT:      -5.7      4.234      5.453
REMARK  Name = 40781655
REMARK  12 active torsions:
REMARK  status: ('A' for Active; 'I' for Inactive)
REMARK    1  A    between atoms: O_2  and  C_11
REMARK    2  A    between atoms: O_3  and  C_12
REMARK    3  A    between atoms: N_6  and  C_14
REMARK    4  A    between atoms: N_7  and  C_15
REMARK    5  A    between atoms: N_8  and  C_24
REMARK    6  A    between atoms: N_9  and  C_25
REMARK    7  A    between atoms: N_9  and  C_26
REMARK    8  A    between atoms: N_9  and  C_27
REMARK    9  A    between atoms: C_10  and  C_15
REMARK   10  A    between atoms: C_13  and  C_18
REMARK   11  A    between atoms: C_18  and  C_23
REMARK   12  A    between atoms: C_24  and  C_25
REMARK                            x       y       z     vdW  Elec       q    Type
REMARK                         _______ _______ _______ _____ _____    ______ ____
ROOT
ATOM      1  O   UNL     1      12.970   7.202  19.164  0.00  0.00    -0.366 OA
ATOM     10  C   UNL     1      11.953   7.571  20.124  0.00  0.00    +0.167 C 
ATOM     11  C   UNL     1      12.543   7.292  21.502  0.00  0.00    +0.176 C 
ATOM     12  C   UNL     1      14.025   7.478  21.255  0.00  0.00    +0.175 C 
ATOM     13  C   UNL     1      14.180   6.873  19.870  0.00  0.00    +0.158 C 
ENDROOT
BRANCH  11   2
ATOM      2  O   UNL     1      12.262   5.934  21.838  0.00  0.00    -0.387 OA
ATOM     30  H   UNL     1      11.356   5.743  21.542  0.00  0.00    +0.210 HD
ENDBRANCH  11   2
BRANCH  12   3
ATOM      3  O   UNL     1      14.838   6.828  22.210  0.00  0.00    -0.387 OA
ATOM     31  H   UNL     1      15.624   7.383  22.348  0.00  0.00    +0.210 HD
ENDBRANCH  12   3
BRANCH  10  15
ATOM     15  C   UNL     1      11.616   9.040  19.905  0.00  0.00    +0.140 C 
BRANCH  15   7
ATOM      4  O   UNL     1      10.266   9.710  22.352  0.00  0.00    -0.253 OA
ATOM      6  N   UNL     1      12.123  10.941  23.006  0.00  0.00    -0.297 N 
ATOM      7  N   UNL     1      12.125   9.851  20.970  0.00  0.00    -0.297 N 
ATOM     22  C   UNL     1      11.401  10.131  22.133  0.00  0.00    +0.300 C 
ATOM     28  H   UNL     1      13.081  11.169  22.758  0.00  0.00    +0.151 HD
ATOM     29  H   UNL     1      13.062  10.234  20.880  0.00  0.00    +0.150 HD
BRANCH   6  14
ATOM     14  C   UNL     1      11.611  11.381  24.284  0.00  0.00    +0.074 C 
ATOM     16  C   UNL     1      12.741  11.888  25.186  0.00  0.00    +0.022 C 
ATOM     17  C   UNL     1      10.523  12.447  24.103  0.00  0.00    +0.022 C 
ATOM     19  C   UNL     1      13.304  13.231  24.719  0.00  0.00    +0.002 C 
ATOM     20  C   UNL     1      11.091  13.788  23.638  0.00  0.00    +0.002 C 
ATOM     21  C   UNL     1      12.205  14.277  24.558  0.00  0.00    +0.000 C 
ENDBRANCH   6  14
ENDBRANCH  15   7
ENDBRANCH  10  15
BRANCH  13  18
ATOM     18  C   UNL     1      15.378   7.411  19.108  0.00  0.00    +0.130 C 
BRANCH  18  23
ATOM      5  O   UNL     1      16.787   5.541  18.501  0.00  0.00    -0.276 OA
ATOM      8  N   UNL     1      17.440   6.933  20.245  0.00  0.00    -0.314 N 
ATOM     23  C   UNL     1      16.596   6.513  19.227  0.00  0.00    +0.216 C 
ATOM     32  H   UNL     1      17.194   7.758  20.784  0.00  0.00    +0.149 HD
BRANCH   8  24
ATOM     24  C   UNL     1      18.673   6.255  20.577  0.00  0.00    +0.119 C 
BRANCH  24  25
ATOM     25  C   UNL     1      19.243   6.763  21.893  0.00  0.00    +0.102 C 
BRANCH  25   9
ATOM      9  N   UNL     1      20.700   6.749  21.852  0.00  0.00    -0.307 NA
ATOM     26  C   UNL     1      21.181   7.014  20.495  0.00  0.00    +0.104 C 
ATOM     27  C   UNL     1      21.217   5.467  22.332  0.00  0.00    +0.104 C 
ENDBRANCH  25   9
ENDBRANCH  24  25
ENDBRANCH   8  24
ENDBRANCH  18  23
ENDBRANCH  13  18
TORSDOF 10
ENDMDL
