REMARK  Name = 51137379
REMARK  5 active torsions:
REMARK  status: ('A' for Active; 'I' for Inactive)
REMARK    1  A    between atoms: N_3  and  C_8
REMARK    2  A    between atoms: C_10  and  C_17
REMARK    3  A    between atoms: C_18  and  C_20
REMARK    4  A    between atoms: C_19  and  C_21
REMARK    5  A    between atoms: C_21  and  C_22
REMARK                            x       y       z     vdW  Elec       q    Type
REMARK                         _______ _______ _______ _____ _____    ______ ____
ROOT
ATOM      1  O   UNL     1      -1.598   1.426  -0.286  0.00  0.00    -0.424 OA
ATOM      5  N   UNL     1      -1.704   3.538   0.444  0.00  0.00    -0.112 NA
ATOM      6  N   UNL     1      -2.817   3.302  -0.341  0.00  0.00    -0.112 NA
ATOM     17  C   UNL     1      -1.022   2.417   0.448  0.00  0.00    +0.222 A 
ATOM     19  C   UNL     1      -2.713   2.057  -0.746  0.00  0.00    +0.222 A 
ENDROOT
BRANCH  17  10
ATOM      3  N   UNL     1       2.204   0.755   0.957  0.00  0.00    -0.299 NA
ATOM      9  C   UNL     1       1.389   1.675   0.160  0.00  0.00    +0.097 C 
ATOM     10  C   UNL     1       0.280   2.085   1.139  0.00  0.00    +0.092 C 
ATOM     11  C   UNL     1       1.239  -0.084   1.668  0.00  0.00    +0.085 C 
ATOM     12  C   UNL     1       0.200   0.923   2.145  0.00  0.00    +0.029 C 
BRANCH   3   8
ATOM      2  O   UNL     1       7.775  -1.763   0.309  0.00  0.00    -0.276 OA
ATOM      4  N   UNL     1       5.819  -0.842  -0.540  0.00  0.00    -0.302 N 
ATOM      8  C   UNL     1       3.124  -0.029   0.137  0.00  0.00    +0.060 C 
ATOM     13  C   UNL     1       4.078   0.903  -0.622  0.00  0.00    +0.038 C 
ATOM     14  C   UNL     1       3.915  -1.004   1.018  0.00  0.00    +0.038 C 
ATOM     15  C   UNL     1       5.112   0.103  -1.413  0.00  0.00    +0.109 C 
ATOM     16  C   UNL     1       4.951  -1.766   0.194  0.00  0.00    +0.109 C 
ATOM     18  C   UNL     1       7.203  -0.935  -0.405  0.00  0.00    +0.212 C 
ATOM     20  C   UNL     1       8.027   0.053  -1.191  0.00  0.00    +0.109 C 
ENDBRANCH   3   8
ENDBRANCH  17  10
BRANCH  19  21
ATOM     21  C   UNL     1      -3.614   1.274  -1.601  0.00  0.00    +0.135 C 
BRANCH  21  22
ATOM      7  N   UNL     1      -6.237  -0.571   0.242  0.00  0.00    -0.360 N 
ATOM     22  C   UNL     1      -4.510   0.292  -0.853  0.00  0.00    -0.013 A 
ATOM     23  C   UNL     1      -4.206  -1.062  -0.540  0.00  0.00    +0.003 A 
ATOM     24  C   UNL     1      -5.765   0.565  -0.360  0.00  0.00    +0.087 A 
ATOM     25  C   UNL     1      -5.306  -1.581   0.147  0.00  0.00    +0.047 A 
ATOM     26  C   UNL     1      -3.098  -1.900  -0.775  0.00  0.00    +0.010 A 
ATOM     27  C   UNL     1      -5.353  -2.899   0.613  0.00  0.00    +0.026 A 
ATOM     28  C   UNL     1      -3.131  -3.222  -0.316  0.00  0.00    +0.001 A 
ATOM     29  C   UNL     1      -4.242  -3.712   0.368  0.00  0.00    +0.002 A 
ATOM     30  H   UNL     1      -7.138  -0.656   0.691  0.00  0.00    +0.165 HD
ENDBRANCH  21  22
ENDBRANCH  19  21
TORSDOF 4
