REMARK  Name = 51137827
REMARK  4 active torsions:
REMARK  status: ('A' for Active; 'I' for Inactive)
REMARK    1  A    between atoms: C_7  and  C_11
REMARK    2  A    between atoms: C_12  and  C_13
REMARK    3  A    between atoms: C_14  and  C_15
REMARK    4  A    between atoms: C_15  and  C_18
REMARK                            x       y       z     vdW  Elec       q    Type
REMARK                         _______ _______ _______ _____ _____    ______ ____
ROOT
ATOM      2  O   UNL     1      -2.805  -0.795   2.242  0.00  0.00    -0.270 OA
ATOM      3  N   UNL     1      -1.733  -1.738   0.411  0.00  0.00    -0.297 N 
ATOM      7  C   UNL     1      -0.159  -2.806  -1.020  0.00  0.00    +0.095 C 
ATOM      8  C   UNL     1      -0.690  -3.816   0.009  0.00  0.00    +0.033 C 
ATOM      9  C   UNL     1      -1.226  -1.703  -0.962  0.00  0.00    +0.121 C 
ATOM     10  C   UNL     1      -1.297  -2.943   1.099  0.00  0.00    +0.109 C 
ATOM     12  C   UNL     1      -2.462  -0.755   1.062  0.00  0.00    +0.247 C 
ENDROOT
BRANCH  12  13
ATOM      6  N   UNL     1      -3.565   2.696  -1.191  0.00  0.00    -0.263 NA
ATOM     13  C   UNL     1      -2.844   0.435   0.286  0.00  0.00    +0.040 A 
ATOM     16  C   UNL     1      -3.635   0.303  -0.850  0.00  0.00    +0.033 A 
ATOM     17  C   UNL     1      -2.413   1.696   0.684  0.00  0.00    +0.033 A 
ATOM     19  C   UNL     1      -3.965   1.454  -1.547  0.00  0.00    +0.111 A 
ATOM     20  C   UNL     1      -2.798   2.784  -0.082  0.00  0.00    +0.111 A 
ENDBRANCH  12  13
BRANCH   7  11
ATOM      1  O   UNL     1       1.428  -1.298   0.092  0.00  0.00    -0.424 OA
ATOM      4  N   UNL     1       2.401  -2.922  -1.101  0.00  0.00    -0.112 NA
ATOM      5  N   UNL     1       3.399  -2.153  -0.532  0.00  0.00    -0.112 NA
ATOM     11  C   UNL     1       1.268  -2.387  -0.709  0.00  0.00    +0.222 A 
ATOM     14  C   UNL     1       2.785  -1.218   0.155  0.00  0.00    +0.222 A 
BRANCH  14  15
ATOM     15  C   UNL     1       3.348  -0.128   0.961  0.00  0.00    +0.132 C 
BRANCH  15  18
ATOM     18  C   UNL     1       2.902   1.270   0.546  0.00  0.00    -0.038 A 
ATOM     21  C   UNL     1       3.506   1.900  -0.543  0.00  0.00    +0.004 A 
ATOM     22  C   UNL     1       1.890   1.919   1.254  0.00  0.00    +0.004 A 
ATOM     23  C   UNL     1       3.098   3.179  -0.923  0.00  0.00    +0.000 A 
ATOM     24  C   UNL     1       1.482   3.197   0.874  0.00  0.00    +0.000 A 
ATOM     25  C   UNL     1       2.086   3.827  -0.215  0.00  0.00    +0.000 A 
ENDBRANCH  15  18
ENDBRANCH  14  15
ENDBRANCH   7  11
TORSDOF 4
