MODEL 1
REMARK VINA RESULT:      -7.1      0.000      0.000
REMARK  Name = 40778244
REMARK  9 active torsions:
REMARK  status: ('A' for Active; 'I' for Inactive)
REMARK    1  A    between atoms: O_2  and  C_9
REMARK    2  A    between atoms: O_3  and  C_10
REMARK    3  A    between atoms: N_6  and  C_14
REMARK    4  A    between atoms: N_7  and  C_17
REMARK    5  A    between atoms: C_11  and  C_13
REMARK    6  A    between atoms: C_12  and  C_14
REMARK    7  A    between atoms: C_13  and  C_15
REMARK    8  A    between atoms: C_16  and  C_18
REMARK    9  A    between atoms: C_17  and  C_19
REMARK                            x       y       z     vdW  Elec       q    Type
REMARK                         _______ _______ _______ _____ _____    ______ ____
ROOT
ATOM      1  O   UNL     1      13.503   7.410  21.682  0.00  0.00    -0.366 OA
ATOM      9  C   UNL     1      11.617   8.010  20.400  0.00  0.00    +0.175 C 
ATOM     10  C   UNL     1      12.157   6.706  19.850  0.00  0.00    +0.176 C 
ATOM     11  C   UNL     1      12.203   8.016  21.801  0.00  0.00    +0.158 C 
ATOM     12  C   UNL     1      13.563   6.673  20.440  0.00  0.00    +0.167 C 
ENDROOT
BRANCH   9   2
ATOM      2  O   UNL     1      10.207   8.069  20.416  0.00  0.00    -0.387 OA
ATOM     29  H   UNL     1       9.876   7.155  20.393  0.00  0.00    +0.210 HD
ENDBRANCH   9   2
BRANCH  10   3
ATOM      3  O   UNL     1      11.427   5.602  20.384  0.00  0.00    -0.387 OA
ATOM     30  H   UNL     1      12.064   5.021  20.831  0.00  0.00    +0.210 HD
ENDBRANCH  10   3
BRANCH  11  13
ATOM     13  C   UNL     1      12.342   9.410  22.391  0.00  0.00    +0.130 C 
BRANCH  13  15
ATOM      4  O   UNL     1      11.502  11.300  21.139  0.00  0.00    -0.276 OA
ATOM      7  N   UNL     1      13.590  10.429  20.610  0.00  0.00    -0.311 N 
ATOM     15  C   UNL     1      12.404  10.489  21.326  0.00  0.00    +0.216 C 
ATOM     32  H   UNL     1      14.275   9.720  20.858  0.00  0.00    +0.149 HD
BRANCH   7  17
ATOM     17  C   UNL     1      13.909  11.340  19.535  0.00  0.00    +0.141 C 
BRANCH  17  19
ATOM      8  N   UNL     1      14.766  10.265  16.012  0.00  0.00    -0.263 NA
ATOM     19  C   UNL     1      13.802  10.681  18.190  0.00  0.00    -0.012 A 
ATOM     22  C   UNL     1      12.697   9.906  17.857  0.00  0.00    +0.008 A 
ATOM     23  C   UNL     1      14.800  10.829  17.240  0.00  0.00    +0.115 A 
ATOM     27  C   UNL     1      12.625   9.311  16.602  0.00  0.00    +0.020 A 
ATOM     28  C   UNL     1      13.676   9.519  15.724  0.00  0.00    +0.111 A 
ENDBRANCH  17  19
ENDBRANCH   7  17
ENDBRANCH  13  15
ENDBRANCH  11  13
BRANCH  12  14
ATOM     14  C   UNL     1      14.599   7.344  19.548  0.00  0.00    +0.138 C 
BRANCH  14   6
ATOM      5  O   UNL     1      16.711   5.599  18.690  0.00  0.00    -0.270 OA
ATOM      6  N   UNL     1      15.911   7.246  20.115  0.00  0.00    -0.309 N 
ATOM     16  C   UNL     1      16.878   6.367  19.633  0.00  0.00    +0.244 C 
ATOM     31  H   UNL     1      16.096   7.813  20.935  0.00  0.00    +0.149 HD
BRANCH  16  18
ATOM     18  C   UNL     1      18.181   6.366  20.347  0.00  0.00    +0.037 A 
ATOM     20  C   UNL     1      19.165   5.438  20.006  0.00  0.00    +0.013 A 
ATOM     21  C   UNL     1      18.420   7.294  21.360  0.00  0.00    +0.013 A 
ATOM     24  C   UNL     1      20.387   5.437  20.678  0.00  0.00    +0.001 A 
ATOM     25  C   UNL     1      19.642   7.295  22.032  0.00  0.00    +0.001 A 
ATOM     26  C   UNL     1      20.626   6.366  21.691  0.00  0.00    +0.000 A 
ENDBRANCH  16  18
ENDBRANCH  14   6
ENDBRANCH  12  14
TORSDOF 9
ENDMDL
MODEL 2
REMARK VINA RESULT:      -7.0     14.125     18.114
REMARK  Name = 40778244
REMARK  9 active torsions:
REMARK  status: ('A' for Active; 'I' for Inactive)
REMARK    1  A    between atoms: O_2  and  C_9
REMARK    2  A    between atoms: O_3  and  C_10
REMARK    3  A    between atoms: N_6  and  C_14
REMARK    4  A    between atoms: N_7  and  C_17
REMARK    5  A    between atoms: C_11  and  C_13
REMARK    6  A    between atoms: C_12  and  C_14
REMARK    7  A    between atoms: C_13  and  C_15
REMARK    8  A    between atoms: C_16  and  C_18
REMARK    9  A    between atoms: C_17  and  C_19
REMARK                            x       y       z     vdW  Elec       q    Type
REMARK                         _______ _______ _______ _____ _____    ______ ____
ROOT
ATOM      1  O   UNL     1       9.357   5.839   5.704  0.00  0.00    -0.366 OA
ATOM      9  C   UNL     1      11.462   6.631   6.412  0.00  0.00    +0.175 C 
ATOM     10  C   UNL     1      10.696   6.183   7.640  0.00  0.00    +0.176 C 
ATOM     11  C   UNL     1      10.741   5.874   5.310  0.00  0.00    +0.158 C 
ATOM     12  C   UNL     1       9.265   6.128   7.117  0.00  0.00    +0.167 C 
ENDROOT
BRANCH   9   2
ATOM      2  O   UNL     1      12.836   6.312   6.463  0.00  0.00    -0.387 OA
ATOM     29  H   UNL     1      13.187   6.665   7.297  0.00  0.00    +0.210 HD
ENDBRANCH   9   2
BRANCH  10   3
ATOM      3  O   UNL     1      11.084   4.861   8.011  0.00  0.00    -0.387 OA
ATOM     30  H   UNL     1      11.001   4.301   7.221  0.00  0.00    +0.210 HD
ENDBRANCH  10   3
BRANCH  11  13
ATOM     13  C   UNL     1      10.867   6.530   3.946  0.00  0.00    +0.130 C 
BRANCH  13  15
ATOM      4  O   UNL     1      10.134   5.646   1.818  0.00  0.00    -0.276 OA
ATOM      7  N   UNL     1      11.711   4.467   3.051  0.00  0.00    -0.311 N 
ATOM     15  C   UNL     1      10.844   5.522   2.812  0.00  0.00    +0.216 C 
ATOM     32  H   UNL     1      12.261   4.471   3.905  0.00  0.00    +0.149 HD
BRANCH   7  17
ATOM     17  C   UNL     1      11.885   3.365   2.132  0.00  0.00    +0.141 C 
BRANCH  17  19
ATOM      8  N   UNL     1      15.433   3.798   0.895  0.00  0.00    -0.263 NA
ATOM     19  C   UNL     1      13.043   3.585   1.203  0.00  0.00    -0.012 A 
ATOM     22  C   UNL     1      12.844   3.780  -0.159  0.00  0.00    +0.008 A 
ATOM     23  C   UNL     1      14.346   3.604   1.676  0.00  0.00    +0.115 A 
ATOM     27  C   UNL     1      13.937   3.984  -0.994  0.00  0.00    +0.020 A 
ATOM     28  C   UNL     1      15.199   3.984  -0.422  0.00  0.00    +0.111 A 
ENDBRANCH  17  19
ENDBRANCH   7  17
ENDBRANCH  13  15
ENDBRANCH  11  13
BRANCH  12  14
ATOM     14  C   UNL     1       8.521   7.447   7.276  0.00  0.00    +0.138 C 
BRANCH  14   6
ATOM      5  O   UNL     1       9.277   9.709   5.678  0.00  0.00    -0.270 OA
ATOM      6  N   UNL     1       7.926   7.858   6.039  0.00  0.00    -0.309 N 
ATOM     16  C   UNL     1       8.358   8.974   5.327  0.00  0.00    +0.244 C 
ATOM     31  H   UNL     1       7.123   7.325   5.723  0.00  0.00    +0.149 HD
BRANCH  16  18
ATOM     18  C   UNL     1       7.619   9.282   4.076  0.00  0.00    +0.037 A 
ATOM     20  C   UNL     1       6.402   9.960   4.132  0.00  0.00    +0.013 A 
ATOM     21  C   UNL     1       8.145   8.895   2.844  0.00  0.00    +0.013 A 
ATOM     24  C   UNL     1       5.708  10.249   2.956  0.00  0.00    +0.001 A 
ATOM     25  C   UNL     1       7.452   9.184   1.667  0.00  0.00    +0.001 A 
ATOM     26  C   UNL     1       6.234   9.861   1.724  0.00  0.00    +0.000 A 
ENDBRANCH  16  18
ENDBRANCH  14   6
ENDBRANCH  12  14
TORSDOF 9
ENDMDL
MODEL 3
REMARK VINA RESULT:      -7.0      1.950      3.295
REMARK  Name = 40778244
REMARK  9 active torsions:
REMARK  status: ('A' for Active; 'I' for Inactive)
REMARK    1  A    between atoms: O_2  and  C_9
REMARK    2  A    between atoms: O_3  and  C_10
REMARK    3  A    between atoms: N_6  and  C_14
REMARK    4  A    between atoms: N_7  and  C_17
REMARK    5  A    between atoms: C_11  and  C_13
REMARK    6  A    between atoms: C_12  and  C_14
REMARK    7  A    between atoms: C_13  and  C_15
REMARK    8  A    between atoms: C_16  and  C_18
REMARK    9  A    between atoms: C_17  and  C_19
REMARK                            x       y       z     vdW  Elec       q    Type
REMARK                         _______ _______ _______ _____ _____    ______ ____
ROOT
ATOM      1  O   UNL     1      13.541   7.676  21.688  0.00  0.00    -0.366 OA
ATOM      9  C   UNL     1      11.774   8.218  20.223  0.00  0.00    +0.175 C 
ATOM     10  C   UNL     1      12.430   6.951  19.713  0.00  0.00    +0.176 C 
ATOM     11  C   UNL     1      12.209   8.222  21.679  0.00  0.00    +0.158 C 
ATOM     12  C   UNL     1      13.766   6.968  20.448  0.00  0.00    +0.167 C 
ENDROOT
BRANCH   9   2
ATOM      2  O   UNL     1      10.369   8.213  20.090  0.00  0.00    -0.387 OA
ATOM     29  H   UNL     1      10.087   7.287  20.009  0.00  0.00    +0.210 HD
ENDBRANCH   9   2
BRANCH  10   3
ATOM      3  O   UNL     1      11.699   5.805  20.149  0.00  0.00    -0.387 OA
ATOM     30  H   UNL     1      10.773   5.932  19.882  0.00  0.00    +0.210 HD
ENDBRANCH  10   3
BRANCH  11  13
ATOM     13  C   UNL     1      12.219   9.607  22.301  0.00  0.00    +0.130 C 
BRANCH  13  15
ATOM      4  O   UNL     1      12.369  11.456  20.749  0.00  0.00    -0.276 OA
ATOM      7  N   UNL     1      14.324  10.487  21.549  0.00  0.00    -0.311 N 
ATOM     15  C   UNL     1      12.948  10.625  21.444  0.00  0.00    +0.216 C 
ATOM     32  H   UNL     1      14.697   9.769  22.165  0.00  0.00    +0.149 HD
BRANCH   7  17
ATOM     17  C   UNL     1      15.257  11.328  20.836  0.00  0.00    +0.141 C 
BRANCH  17  19
ATOM      8  N   UNL     1      18.152  11.798  23.225  0.00  0.00    -0.263 NA
ATOM     19  C   UNL     1      16.639  11.252  21.419  0.00  0.00    -0.012 A 
ATOM     22  C   UNL     1      17.668  10.604  20.744  0.00  0.00    +0.008 A 
ATOM     23  C   UNL     1      16.931  11.829  22.645  0.00  0.00    +0.115 A 
ATOM     27  C   UNL     1      18.938  10.553  21.308  0.00  0.00    +0.020 A 
ATOM     28  C   UNL     1      19.126  11.160  22.539  0.00  0.00    +0.111 A 
ENDBRANCH  17  19
ENDBRANCH   7  17
ENDBRANCH  13  15
ENDBRANCH  11  13
BRANCH  12  14
ATOM     14  C   UNL     1      14.857   7.703  19.683  0.00  0.00    +0.138 C 
BRANCH  14   6
ATOM      5  O   UNL     1      16.662   5.687  18.723  0.00  0.00    -0.270 OA
ATOM      6  N   UNL     1      16.155   7.395  20.208  0.00  0.00    -0.309 N 
ATOM     16  C   UNL     1      16.966   6.396  19.677  0.00  0.00    +0.244 C 
ATOM     31  H   UNL     1      16.443   7.907  21.034  0.00  0.00    +0.149 HD
BRANCH  16  18
ATOM     18  C   UNL     1      18.272   6.182  20.353  0.00  0.00    +0.037 A 
ATOM     20  C   UNL     1      19.180   5.254  19.842  0.00  0.00    +0.013 A 
ATOM     21  C   UNL     1      18.591   6.910  21.498  0.00  0.00    +0.013 A 
ATOM     24  C   UNL     1      20.406   5.054  20.477  0.00  0.00    +0.001 A 
ATOM     25  C   UNL     1      19.817   6.711  22.134  0.00  0.00    +0.001 A 
ATOM     26  C   UNL     1      20.724   5.782  21.623  0.00  0.00    +0.000 A 
ENDBRANCH  16  18
ENDBRANCH  14   6
ENDBRANCH  12  14
TORSDOF 9
ENDMDL
MODEL 4
REMARK VINA RESULT:      -6.9      3.000      4.896
REMARK  Name = 40778244
REMARK  9 active torsions:
REMARK  status: ('A' for Active; 'I' for Inactive)
REMARK    1  A    between atoms: O_2  and  C_9
REMARK    2  A    between atoms: O_3  and  C_10
REMARK    3  A    between atoms: N_6  and  C_14
REMARK    4  A    between atoms: N_7  and  C_17
REMARK    5  A    between atoms: C_11  and  C_13
REMARK    6  A    between atoms: C_12  and  C_14
REMARK    7  A    between atoms: C_13  and  C_15
REMARK    8  A    between atoms: C_16  and  C_18
REMARK    9  A    between atoms: C_17  and  C_19
REMARK                            x       y       z     vdW  Elec       q    Type
REMARK                         _______ _______ _______ _____ _____    ______ ____
ROOT
ATOM      1  O   UNL     1      13.400   8.494  21.918  0.00  0.00    -0.366 OA
ATOM      9  C   UNL     1      11.546   7.935  20.571  0.00  0.00    +0.175 C 
ATOM     10  C   UNL     1      12.415   6.700  20.704  0.00  0.00    +0.176 C 
ATOM     11  C   UNL     1      11.991   8.751  21.773  0.00  0.00    +0.158 C 
ATOM     12  C   UNL     1      13.734   7.293  21.187  0.00  0.00    +0.167 C 
ENDROOT
BRANCH   9   2
ATOM      2  O   UNL     1      10.164   7.652  20.605  0.00  0.00    -0.387 OA
ATOM     29  H   UNL     1      10.040   6.758  20.242  0.00  0.00    +0.210 HD
ENDBRANCH   9   2
BRANCH  10   3
ATOM      3  O   UNL     1      11.910   5.847  21.730  0.00  0.00    -0.387 OA
ATOM     30  H   UNL     1      11.753   4.975  21.331  0.00  0.00    +0.210 HD
ENDBRANCH  10   3
BRANCH  11  13
ATOM     13  C   UNL     1      11.757  10.243  21.609  0.00  0.00    +0.130 C 
BRANCH  13  15
ATOM      4  O   UNL     1      13.547  11.831  21.957  0.00  0.00    -0.276 OA
ATOM      7  N   UNL     1      12.511  10.869  23.801  0.00  0.00    -0.311 N 
ATOM     15  C   UNL     1      12.710  11.077  22.445  0.00  0.00    +0.216 C 
ATOM     32  H   UNL     1      11.780  10.227  24.095  0.00  0.00    +0.149 HD
BRANCH   7  17
ATOM     17  C   UNL     1      13.284  11.537  24.823  0.00  0.00    +0.141 C 
BRANCH  17  19
ATOM      8  N   UNL     1      12.601  14.764  26.673  0.00  0.00    -0.263 NA
ATOM     19  C   UNL     1      12.540  12.694  25.424  0.00  0.00    -0.012 A 
ATOM     22  C   UNL     1      11.157  12.792  25.317  0.00  0.00    +0.008 A 
ATOM     23  C   UNL     1      13.209  13.697  26.107  0.00  0.00    +0.115 A 
ATOM     27  C   UNL     1      10.496  13.874  25.887  0.00  0.00    +0.020 A 
ATOM     28  C   UNL     1      11.257  14.825  26.548  0.00  0.00    +0.111 A 
ENDBRANCH  17  19
ENDBRANCH   7  17
ENDBRANCH  13  15
ENDBRANCH  11  13
BRANCH  12  14
ATOM     14  C   UNL     1      14.665   7.684  20.047  0.00  0.00    +0.138 C 
BRANCH  14   6
ATOM      5  O   UNL     1      16.441   5.762  18.865  0.00  0.00    -0.270 OA
ATOM      6  N   UNL     1      16.036   7.457  20.397  0.00  0.00    -0.309 N 
ATOM     16  C   UNL     1      16.827   6.499  19.768  0.00  0.00    +0.244 C 
ATOM     31  H   UNL     1      16.401   7.994  21.176  0.00  0.00    +0.149 HD
BRANCH  16  18
ATOM     18  C   UNL     1      18.221   6.368  20.265  0.00  0.00    +0.037 A 
ATOM     20  C   UNL     1      18.992   5.263  19.904  0.00  0.00    +0.013 A 
ATOM     21  C   UNL     1      18.760   7.352  21.094  0.00  0.00    +0.013 A 
ATOM     24  C   UNL     1      20.300   5.141  20.371  0.00  0.00    +0.001 A 
ATOM     25  C   UNL     1      20.068   7.230  21.562  0.00  0.00    +0.001 A 
ATOM     26  C   UNL     1      20.839   6.125  21.200  0.00  0.00    +0.000 A 
ENDBRANCH  16  18
ENDBRANCH  14   6
ENDBRANCH  12  14
TORSDOF 9
ENDMDL
MODEL 5
REMARK VINA RESULT:      -6.8      3.816      6.192
REMARK  Name = 40778244
REMARK  9 active torsions:
REMARK  status: ('A' for Active; 'I' for Inactive)
REMARK    1  A    between atoms: O_2  and  C_9
REMARK    2  A    between atoms: O_3  and  C_10
REMARK    3  A    between atoms: N_6  and  C_14
REMARK    4  A    between atoms: N_7  and  C_17
REMARK    5  A    between atoms: C_11  and  C_13
REMARK    6  A    between atoms: C_12  and  C_14
REMARK    7  A    between atoms: C_13  and  C_15
REMARK    8  A    between atoms: C_16  and  C_18
REMARK    9  A    between atoms: C_17  and  C_19
REMARK                            x       y       z     vdW  Elec       q    Type
REMARK                         _______ _______ _______ _____ _____    ______ ____
ROOT
ATOM      1  O   UNL     1      13.178   9.129  18.204  0.00  0.00    -0.366 OA
ATOM      9  C   UNL     1      11.828   9.306  16.279  0.00  0.00    +0.175 C 
ATOM     10  C   UNL     1      13.260   9.585  15.870  0.00  0.00    +0.176 C 
ATOM     11  C   UNL     1      12.024   8.541  17.576  0.00  0.00    +0.158 C 
ATOM     12  C   UNL     1      13.922   9.874  17.213  0.00  0.00    +0.167 C 
ENDROOT
BRANCH   9   2
ATOM      2  O   UNL     1      11.110   8.555  15.324  0.00  0.00    -0.387 OA
ATOM     29  H   UNL     1      11.186   9.017  14.472  0.00  0.00    +0.210 HD
ENDBRANCH   9   2
BRANCH  10   3
ATOM      3  O   UNL     1      13.857   8.408  15.326  0.00  0.00    -0.387 OA
ATOM     30  H   UNL     1      14.798   8.421  15.569  0.00  0.00    +0.210 HD
ENDBRANCH  10   3
BRANCH  11  13
ATOM     13  C   UNL     1      10.833   8.627  18.514  0.00  0.00    +0.130 C 
BRANCH  13  15
ATOM      4  O   UNL     1      11.399   7.217  20.394  0.00  0.00    -0.276 OA
ATOM      7  N   UNL     1      11.294   9.518  20.696  0.00  0.00    -0.311 N 
ATOM     15  C   UNL     1      11.206   8.348  19.957  0.00  0.00    +0.216 C 
ATOM     32  H   UNL     1      11.124  10.405  20.228  0.00  0.00    +0.149 HD
BRANCH   7  17
ATOM     17  C   UNL     1      11.632   9.541  22.100  0.00  0.00    +0.141 C 
BRANCH  17  19
ATOM      8  N   UNL     1      10.613  12.034  24.756  0.00  0.00    -0.263 NA
ATOM     19  C   UNL     1      11.242  10.837  22.751  0.00  0.00    -0.012 A 
ATOM     22  C   UNL     1      11.137  12.009  22.011  0.00  0.00    +0.008 A 
ATOM     23  C   UNL     1      10.971  10.902  24.108  0.00  0.00    +0.115 A 
ATOM     27  C   UNL     1      10.771  13.193  22.641  0.00  0.00    +0.020 A 
ATOM     28  C   UNL     1      10.522  13.152  24.004  0.00  0.00    +0.111 A 
ENDBRANCH  17  19
ENDBRANCH   7  17
ENDBRANCH  13  15
ENDBRANCH  11  13
BRANCH  12  14
ATOM     14  C   UNL     1      13.868  11.346  17.599  0.00  0.00    +0.138 C 
BRANCH  14   6
ATOM      5  O   UNL     1      16.119  12.047  19.237  0.00  0.00    -0.270 OA
ATOM      6  N   UNL     1      13.873  11.508  19.022  0.00  0.00    -0.309 N 
ATOM     16  C   UNL     1      15.016  11.852  19.740  0.00  0.00    +0.244 C 
ATOM     31  H   UNL     1      13.004  11.304  19.506  0.00  0.00    +0.149 HD
BRANCH  16  18
ATOM     18  C   UNL     1      14.861  11.954  21.214  0.00  0.00    +0.037 A 
ATOM     20  C   UNL     1      14.590  13.188  21.804  0.00  0.00    +0.013 A 
ATOM     21  C   UNL     1      14.987  10.815  22.008  0.00  0.00    +0.013 A 
ATOM     24  C   UNL     1      14.445  13.284  23.188  0.00  0.00    +0.001 A 
ATOM     25  C   UNL     1      14.842  10.909  23.392  0.00  0.00    +0.001 A 
ATOM     26  C   UNL     1      14.571  12.144  23.982  0.00  0.00    +0.000 A 
ENDBRANCH  16  18
ENDBRANCH  14   6
ENDBRANCH  12  14
TORSDOF 9
ENDMDL
MODEL 6
REMARK VINA RESULT:      -6.7      2.409      6.271
REMARK  Name = 40778244
REMARK  9 active torsions:
REMARK  status: ('A' for Active; 'I' for Inactive)
REMARK    1  A    between atoms: O_2  and  C_9
REMARK    2  A    between atoms: O_3  and  C_10
REMARK    3  A    between atoms: N_6  and  C_14
REMARK    4  A    between atoms: N_7  and  C_17
REMARK    5  A    between atoms: C_11  and  C_13
REMARK    6  A    between atoms: C_12  and  C_14
REMARK    7  A    between atoms: C_13  and  C_15
REMARK    8  A    between atoms: C_16  and  C_18
REMARK    9  A    between atoms: C_17  and  C_19
REMARK                            x       y       z     vdW  Elec       q    Type
REMARK                         _______ _______ _______ _____ _____    ______ ____
ROOT
ATOM      1  O   UNL     1      13.609   9.144  17.996  0.00  0.00    -0.366 OA
ATOM      9  C   UNL     1      11.727   9.135  16.575  0.00  0.00    +0.175 C 
ATOM     10  C   UNL     1      12.935   9.517  15.745  0.00  0.00    +0.176 C 
ATOM     11  C   UNL     1      12.377   8.438  17.758  0.00  0.00    +0.158 C 
ATOM     12  C   UNL     1      13.944   9.911  16.818  0.00  0.00    +0.167 C 
ENDROOT
BRANCH   9   2
ATOM      2  O   UNL     1      10.824   8.291  15.894  0.00  0.00    -0.387 OA
ATOM     29  H   UNL     1      10.520   8.768  15.103  0.00  0.00    +0.210 HD
ENDBRANCH   9   2
BRANCH  10   3
ATOM      3  O   UNL     1      13.444   8.375  15.056  0.00  0.00    -0.387 OA
ATOM     30  H   UNL     1      14.409   8.476  14.999  0.00  0.00    +0.210 HD
ENDBRANCH  10   3
BRANCH  11  13
ATOM     13  C   UNL     1      11.524   8.459  19.015  0.00  0.00    +0.130 C 
BRANCH  13  15
ATOM      4  O   UNL     1      12.145   9.005  21.287  0.00  0.00    -0.276 OA
ATOM      7  N   UNL     1      13.345   7.375  20.145  0.00  0.00    -0.311 N 
ATOM     15  C   UNL     1      12.350   8.332  20.281  0.00  0.00    +0.216 C 
ATOM     32  H   UNL     1      13.418   6.867  19.268  0.00  0.00    +0.149 HD
BRANCH   7  17
ATOM     17  C   UNL     1      14.277   7.052  21.200  0.00  0.00    +0.141 C 
BRANCH  17  19
ATOM      8  N   UNL     1      17.992   6.353  21.062  0.00  0.00    -0.263 NA
ATOM     19  C   UNL     1      15.630   6.685  20.662  0.00  0.00    -0.012 A 
ATOM     22  C   UNL     1      15.803   6.351  19.323  0.00  0.00    +0.008 A 
ATOM     23  C   UNL     1      16.747   6.672  21.482  0.00  0.00    +0.115 A 
ATOM     27  C   UNL     1      17.068   6.018  18.853  0.00  0.00    +0.020 A 
ATOM     28  C   UNL     1      18.120   6.033  19.755  0.00  0.00    +0.111 A 
ENDBRANCH  17  19
ENDBRANCH   7  17
ENDBRANCH  13  15
ENDBRANCH  11  13
BRANCH  12  14
ATOM     14  C   UNL     1      13.876  11.387  17.187  0.00  0.00    +0.138 C 
BRANCH  14   6
ATOM      5  O   UNL     1      15.165  12.490  19.503  0.00  0.00    -0.270 OA
ATOM      6  N   UNL     1      13.295  11.569  18.484  0.00  0.00    -0.309 N 
ATOM     16  C   UNL     1      13.997  12.116  19.556  0.00  0.00    +0.244 C 
ATOM     31  H   UNL     1      12.349  11.227  18.610  0.00  0.00    +0.149 HD
BRANCH  16  18
ATOM     18  C   UNL     1      13.261  12.213  20.843  0.00  0.00    +0.037 A 
ATOM     20  C   UNL     1      13.927  11.991  22.048  0.00  0.00    +0.013 A 
ATOM     21  C   UNL     1      11.903  12.529  20.845  0.00  0.00    +0.013 A 
ATOM     24  C   UNL     1      13.235  12.082  23.256  0.00  0.00    +0.001 A 
ATOM     25  C   UNL     1      11.210  12.621  22.053  0.00  0.00    +0.001 A 
ATOM     26  C   UNL     1      11.877  12.398  23.258  0.00  0.00    +0.000 A 
ENDBRANCH  16  18
ENDBRANCH  14   6
ENDBRANCH  12  14
TORSDOF 9
ENDMDL
MODEL 7
REMARK VINA RESULT:      -6.6     26.381     29.267
REMARK  Name = 40778244
REMARK  9 active torsions:
REMARK  status: ('A' for Active; 'I' for Inactive)
REMARK    1  A    between atoms: O_2  and  C_9
REMARK    2  A    between atoms: O_3  and  C_10
REMARK    3  A    between atoms: N_6  and  C_14
REMARK    4  A    between atoms: N_7  and  C_17
REMARK    5  A    between atoms: C_11  and  C_13
REMARK    6  A    between atoms: C_12  and  C_14
REMARK    7  A    between atoms: C_13  and  C_15
REMARK    8  A    between atoms: C_16  and  C_18
REMARK    9  A    between atoms: C_17  and  C_19
REMARK                            x       y       z     vdW  Elec       q    Type
REMARK                         _______ _______ _______ _____ _____    ______ ____
ROOT
ATOM      1  O   UNL     1      -5.488 -11.008  16.462  0.00  0.00    -0.366 OA
ATOM      9  C   UNL     1      -4.409 -11.593  18.475  0.00  0.00    +0.175 C 
ATOM     10  C   UNL     1      -5.863 -12.002  18.591  0.00  0.00    +0.176 C 
ATOM     11  C   UNL     1      -4.236 -11.504  16.969  0.00  0.00    +0.158 C 
ATOM     12  C   UNL     1      -6.509 -11.196  17.469  0.00  0.00    +0.167 C 
ENDROOT
BRANCH   9   2
ATOM      2  O   UNL     1      -3.519 -12.520  19.058  0.00  0.00    -0.387 OA
ATOM     29  H   UNL     1      -2.663 -12.074  19.168  0.00  0.00    +0.210 HD
ENDBRANCH   9   2
BRANCH  10   3
ATOM      3  O   UNL     1      -6.014 -13.387  18.285  0.00  0.00    -0.387 OA
ATOM     30  H   UNL     1      -6.253 -13.843  19.110  0.00  0.00    +0.210 HD
ENDBRANCH  10   3
BRANCH  11  13
ATOM     13  C   UNL     1      -3.110 -10.578  16.544  0.00  0.00    +0.130 C 
BRANCH  13  15
ATOM      4  O   UNL     1      -1.322 -11.467  15.181  0.00  0.00    -0.276 OA
ATOM      7  N   UNL     1      -3.307 -10.818  14.163  0.00  0.00    -0.311 N 
ATOM     15  C   UNL     1      -2.459 -11.010  15.243  0.00  0.00    +0.216 C 
ATOM     32  H   UNL     1      -4.236 -10.441  14.332  0.00  0.00    +0.149 HD
BRANCH   7  17
ATOM     17  C   UNL     1      -2.939 -11.144  12.804  0.00  0.00    +0.141 C 
BRANCH  17  19
ATOM      8  N   UNL     1      -5.556  -8.951  11.175  0.00  0.00    -0.263 NA
ATOM     19  C   UNL     1      -3.611 -10.242  11.809  0.00  0.00    -0.012 A 
ATOM     22  C   UNL     1      -2.969  -9.864  10.635  0.00  0.00    +0.008 A 
ATOM     23  C   UNL     1      -4.893  -9.764  12.029  0.00  0.00    +0.115 A 
ATOM     27  C   UNL     1      -3.618  -9.030   9.731  0.00  0.00    +0.020 A 
ATOM     28  C   UNL     1      -4.899  -8.605  10.046  0.00  0.00    +0.111 A 
ENDBRANCH  17  19
ENDBRANCH   7  17
ENDBRANCH  13  15
ENDBRANCH  11  13
BRANCH  12  14
ATOM     14  C   UNL     1      -6.980  -9.820  17.918  0.00  0.00    +0.138 C 
BRANCH  14   6
ATOM      5  O   UNL     1      -9.418  -9.486  16.438  0.00  0.00    -0.270 OA
ATOM      6  N   UNL     1      -8.313  -9.875  18.441  0.00  0.00    -0.309 N 
ATOM     16  C   UNL     1      -9.444  -9.701  17.647  0.00  0.00    +0.244 C 
ATOM     31  H   UNL     1      -8.403  -9.993  19.444  0.00  0.00    +0.149 HD
BRANCH  16  18
ATOM     18  C   UNL     1     -10.753  -9.759  18.346  0.00  0.00    +0.037 A 
ATOM     20  C   UNL     1     -10.808 -10.074  19.703  0.00  0.00    +0.013 A 
ATOM     21  C   UNL     1     -11.929  -9.499  17.643  0.00  0.00    +0.013 A 
ATOM     24  C   UNL     1     -12.038 -10.129  20.359  0.00  0.00    +0.001 A 
ATOM     25  C   UNL     1     -13.160  -9.553  18.298  0.00  0.00    +0.001 A 
ATOM     26  C   UNL     1     -13.214  -9.868  19.656  0.00  0.00    +0.000 A 
ENDBRANCH  16  18
ENDBRANCH  14   6
ENDBRANCH  12  14
TORSDOF 9
ENDMDL
MODEL 8
REMARK VINA RESULT:      -6.5     31.115     32.448
REMARK  Name = 40778244
REMARK  9 active torsions:
REMARK  status: ('A' for Active; 'I' for Inactive)
REMARK    1  A    between atoms: O_2  and  C_9
REMARK    2  A    between atoms: O_3  and  C_10
REMARK    3  A    between atoms: N_6  and  C_14
REMARK    4  A    between atoms: N_7  and  C_17
REMARK    5  A    between atoms: C_11  and  C_13
REMARK    6  A    between atoms: C_12  and  C_14
REMARK    7  A    between atoms: C_13  and  C_15
REMARK    8  A    between atoms: C_16  and  C_18
REMARK    9  A    between atoms: C_17  and  C_19
REMARK                            x       y       z     vdW  Elec       q    Type
REMARK                         _______ _______ _______ _____ _____    ______ ____
ROOT
ATOM      1  O   UNL     1     -15.273   3.660  31.309  0.00  0.00    -0.366 OA
ATOM      9  C   UNL     1     -14.668   2.517  33.281  0.00  0.00    +0.175 C 
ATOM     10  C   UNL     1     -15.341   3.814  33.682  0.00  0.00    +0.176 C 
ATOM     11  C   UNL     1     -15.179   2.335  31.862  0.00  0.00    +0.158 C 
ATOM     12  C   UNL     1     -15.270   4.620  32.390  0.00  0.00    +0.167 C 
ENDROOT
BRANCH   9   2
ATOM      2  O   UNL     1     -15.010   1.429  34.111  0.00  0.00    -0.387 OA
ATOM     29  H   UNL     1     -15.867   1.633  34.522  0.00  0.00    +0.210 HD
ENDBRANCH   9   2
BRANCH  10   3
ATOM      3  O   UNL     1     -16.716   3.584  33.987  0.00  0.00    -0.387 OA
ATOM     30  H   UNL     1     -16.830   3.729  34.941  0.00  0.00    +0.210 HD
ENDBRANCH  10   3
BRANCH  11  13
ATOM     13  C   UNL     1     -14.266   1.483  30.997  0.00  0.00    +0.130 C 
BRANCH  13  15
ATOM      4  O   UNL     1     -14.726  -0.402  29.553  0.00  0.00    -0.276 OA
ATOM      7  N   UNL     1     -16.064   1.491  29.405  0.00  0.00    -0.311 N 
ATOM     15  C   UNL     1     -15.022   0.733  29.916  0.00  0.00    +0.216 C 
ATOM     32  H   UNL     1     -16.227   2.419  29.787  0.00  0.00    +0.149 HD
BRANCH   7  17
ATOM     17  C   UNL     1     -16.946   1.019  28.361  0.00  0.00    +0.141 C 
BRANCH  17  19
ATOM      8  N   UNL     1     -16.608   1.565  24.634  0.00  0.00    -0.263 NA
ATOM     19  C   UNL     1     -16.674   1.695  27.048  0.00  0.00    -0.012 A 
ATOM     22  C   UNL     1     -16.250   3.018  26.996  0.00  0.00    +0.008 A 
ATOM     23  C   UNL     1     -16.835   1.018  25.850  0.00  0.00    +0.115 A 
ATOM     27  C   UNL     1     -16.004   3.615  25.765  0.00  0.00    +0.020 A 
ATOM     28  C   UNL     1     -16.197   2.853  24.624  0.00  0.00    +0.111 A 
ENDBRANCH  17  19
ENDBRANCH   7  17
ENDBRANCH  13  15
ENDBRANCH  11  13
BRANCH  12  14
ATOM     14  C   UNL     1     -13.999   5.450  32.274  0.00  0.00    +0.138 C 
BRANCH  14   6
ATOM      5  O   UNL     1     -12.646   7.982  32.323  0.00  0.00    -0.270 OA
ATOM      6  N   UNL     1     -13.840   6.314  33.406  0.00  0.00    -0.309 N 
ATOM     16  C   UNL     1     -13.166   7.530  33.339  0.00  0.00    +0.244 C 
ATOM     31  H   UNL     1     -14.198   5.972  34.292  0.00  0.00    +0.149 HD
BRANCH  16  18
ATOM     18  C   UNL     1     -13.064   8.296  34.608  0.00  0.00    +0.037 A 
ATOM     20  C   UNL     1     -12.557   7.685  35.755  0.00  0.00    +0.013 A 
ATOM     21  C   UNL     1     -13.474   9.628  34.652  0.00  0.00    +0.013 A 
ATOM     24  C   UNL     1     -12.463   8.405  36.946  0.00  0.00    +0.001 A 
ATOM     25  C   UNL     1     -13.380  10.349  35.843  0.00  0.00    +0.001 A 
ATOM     26  C   UNL     1     -12.873   9.737  36.990  0.00  0.00    +0.000 A 
ENDBRANCH  16  18
ENDBRANCH  14   6
ENDBRANCH  12  14
TORSDOF 9
ENDMDL
MODEL 9
REMARK VINA RESULT:      -6.4     25.962     29.055
REMARK  Name = 40778244
REMARK  9 active torsions:
REMARK  status: ('A' for Active; 'I' for Inactive)
REMARK    1  A    between atoms: O_2  and  C_9
REMARK    2  A    between atoms: O_3  and  C_10
REMARK    3  A    between atoms: N_6  and  C_14
REMARK    4  A    between atoms: N_7  and  C_17
REMARK    5  A    between atoms: C_11  and  C_13
REMARK    6  A    between atoms: C_12  and  C_14
REMARK    7  A    between atoms: C_13  and  C_15
REMARK    8  A    between atoms: C_16  and  C_18
REMARK    9  A    between atoms: C_17  and  C_19
REMARK                            x       y       z     vdW  Elec       q    Type
REMARK                         _______ _______ _______ _____ _____    ______ ____
ROOT
ATOM      1  O   UNL     1      -5.403 -10.186  15.501  0.00  0.00    -0.366 OA
ATOM      9  C   UNL     1      -5.113 -11.928  17.064  0.00  0.00    +0.175 C 
ATOM     10  C   UNL     1      -6.578 -11.886  16.680  0.00  0.00    +0.176 C 
ATOM     11  C   UNL     1      -4.470 -11.210  15.891  0.00  0.00    +0.158 C 
ATOM     12  C   UNL     1      -6.701 -10.502  16.053  0.00  0.00    +0.167 C 
ENDROOT
BRANCH   9   2
ATOM      2  O   UNL     1      -4.614 -13.238  17.223  0.00  0.00    -0.387 OA
ATOM     29  H   UNL     1      -4.271 -13.312  18.129  0.00  0.00    +0.210 HD
ENDBRANCH   9   2
BRANCH  10   3
ATOM      3  O   UNL     1      -6.853 -12.856  15.670  0.00  0.00    -0.387 OA
ATOM     30  H   UNL     1      -6.666 -13.731  16.049  0.00  0.00    +0.210 HD
ENDBRANCH  10   3
BRANCH  11  13
ATOM     13  C   UNL     1      -3.131 -10.579  16.231  0.00  0.00    +0.130 C 
BRANCH  13  15
ATOM      4  O   UNL     1      -1.001 -11.265  15.314  0.00  0.00    -0.276 OA
ATOM      7  N   UNL     1      -2.574 -10.286  13.913  0.00  0.00    -0.311 N 
ATOM     15  C   UNL     1      -2.104 -10.761  15.128  0.00  0.00    +0.216 C 
ATOM     32  H   UNL     1      -3.512  -9.896  13.870  0.00  0.00    +0.149 HD
BRANCH   7  17
ATOM     17  C   UNL     1      -1.799 -10.334  12.694  0.00  0.00    +0.141 C 
BRANCH  17  19
ATOM      8  N   UNL     1      -3.998 -11.908  10.050  0.00  0.00    -0.263 NA
ATOM     19  C   UNL     1      -2.670 -10.480  11.480  0.00  0.00    -0.012 A 
ATOM     22  C   UNL     1      -2.960  -9.388  10.670  0.00  0.00    +0.008 A 
ATOM     23  C   UNL     1      -3.208 -11.708  11.129  0.00  0.00    +0.115 A 
ATOM     27  C   UNL     1      -3.768  -9.554   9.550  0.00  0.00    +0.020 A 
ATOM     28  C   UNL     1      -4.257 -10.824   9.287  0.00  0.00    +0.111 A 
ENDBRANCH  17  19
ENDBRANCH   7  17
ENDBRANCH  13  15
ENDBRANCH  11  13
BRANCH  12  14
ATOM     14  C   UNL     1      -7.055  -9.419  17.063  0.00  0.00    +0.138 C 
BRANCH  14   6
ATOM      5  O   UNL     1      -9.697  -9.651  18.164  0.00  0.00    -0.270 OA
ATOM      6  N   UNL     1      -8.220  -8.691  16.654  0.00  0.00    -0.309 N 
ATOM     16  C   UNL     1      -9.468  -8.868  17.247  0.00  0.00    +0.244 C 
ATOM     31  H   UNL     1      -8.111  -8.067  15.862  0.00  0.00    +0.149 HD
BRANCH  16  18
ATOM     18  C   UNL     1     -10.581  -8.056  16.690  0.00  0.00    +0.037 A 
ATOM     20  C   UNL     1     -10.317  -6.823  16.094  0.00  0.00    +0.013 A 
ATOM     21  C   UNL     1     -11.891  -8.528  16.764  0.00  0.00    +0.013 A 
ATOM     24  C   UNL     1     -11.362  -6.062  15.572  0.00  0.00    +0.001 A 
ATOM     25  C   UNL     1     -12.937  -7.767  16.241  0.00  0.00    +0.001 A 
ATOM     26  C   UNL     1     -12.673  -6.534  15.645  0.00  0.00    +0.000 A 
ENDBRANCH  16  18
ENDBRANCH  14   6
ENDBRANCH  12  14
TORSDOF 9
ENDMDL
MODEL 10
REMARK VINA RESULT:      -6.3      2.593      6.872
REMARK  Name = 40778244
REMARK  9 active torsions:
REMARK  status: ('A' for Active; 'I' for Inactive)
REMARK    1  A    between atoms: O_2  and  C_9
REMARK    2  A    between atoms: O_3  and  C_10
REMARK    3  A    between atoms: N_6  and  C_14
REMARK    4  A    between atoms: N_7  and  C_17
REMARK    5  A    between atoms: C_11  and  C_13
REMARK    6  A    between atoms: C_12  and  C_14
REMARK    7  A    between atoms: C_13  and  C_15
REMARK    8  A    between atoms: C_16  and  C_18
REMARK    9  A    between atoms: C_17  and  C_19
REMARK                            x       y       z     vdW  Elec       q    Type
REMARK                         _______ _______ _______ _____ _____    ______ ____
ROOT
ATOM      1  O   UNL     1      13.627   7.220  18.529  0.00  0.00    -0.366 OA
ATOM      9  C   UNL     1      11.714   8.524  18.978  0.00  0.00    +0.175 C 
ATOM     10  C   UNL     1      11.927   8.510  17.477  0.00  0.00    +0.176 C 
ATOM     11  C   UNL     1      12.489   7.289  19.406  0.00  0.00    +0.158 C 
ATOM     12  C   UNL     1      13.374   8.043  17.367  0.00  0.00    +0.167 C 
ENDROOT
BRANCH   9   2
ATOM      2  O   UNL     1      10.355   8.453  19.350  0.00  0.00    -0.387 OA
ATOM     29  H   UNL     1      10.050   7.548  19.169  0.00  0.00    +0.210 HD
ENDBRANCH   9   2
BRANCH  10   3
ATOM      3  O   UNL     1      11.095   7.524  16.868  0.00  0.00    -0.387 OA
ATOM     30  H   UNL     1      10.749   6.958  17.577  0.00  0.00    +0.210 HD
ENDBRANCH  10   3
BRANCH  11  13
ATOM     13  C   UNL     1      12.958   7.343  20.850  0.00  0.00    +0.130 C 
BRANCH  13  15
ATOM      4  O   UNL     1      13.960   9.536  21.035  0.00  0.00    -0.276 OA
ATOM      7  N   UNL     1      15.305   7.654  21.255  0.00  0.00    -0.311 N 
ATOM     15  C   UNL     1      14.104   8.317  21.053  0.00  0.00    +0.216 C 
ATOM     32  H   UNL     1      15.308   6.638  21.261  0.00  0.00    +0.149 HD
BRANCH   7  17
ATOM     17  C   UNL     1      16.558   8.341  21.473  0.00  0.00    +0.141 C 
BRANCH  17  19
ATOM      8  N   UNL     1      18.679   5.644  19.881  0.00  0.00    -0.263 NA
ATOM     19  C   UNL     1      17.739   7.467  21.163  0.00  0.00    -0.012 A 
ATOM     22  C   UNL     1      18.949   7.634  21.826  0.00  0.00    +0.008 A 
ATOM     23  C   UNL     1      17.656   6.466  20.208  0.00  0.00    +0.115 A 
ATOM     27  C   UNL     1      20.024   6.808  21.519  0.00  0.00    +0.020 A 
ATOM     28  C   UNL     1      19.839   5.837  20.547  0.00  0.00    +0.111 A 
ENDBRANCH  17  19
ENDBRANCH   7  17
ENDBRANCH  13  15
ENDBRANCH  11  13
BRANCH  12  14
ATOM     14  C   UNL     1      14.374   9.191  17.383  0.00  0.00    +0.138 C 
BRANCH  14   6
ATOM      5  O   UNL     1      14.128  11.987  16.776  0.00  0.00    -0.270 OA
ATOM      6  N   UNL     1      14.484   9.799  16.090  0.00  0.00    -0.309 N 
ATOM     16  C   UNL     1      14.350  11.171  15.886  0.00  0.00    +0.244 C 
ATOM     31  H   UNL     1      14.610   9.173  15.302  0.00  0.00    +0.149 HD
BRANCH  16  18
ATOM     18  C   UNL     1      14.463  11.641  14.482  0.00  0.00    +0.037 A 
ATOM     20  C   UNL     1      13.387  12.285  13.871  0.00  0.00    +0.013 A 
ATOM     21  C   UNL     1      15.647  11.440  13.774  0.00  0.00    +0.013 A 
ATOM     24  C   UNL     1      13.494  12.726  12.552  0.00  0.00    +0.001 A 
ATOM     25  C   UNL     1      15.755  11.881  12.454  0.00  0.00    +0.001 A 
ATOM     26  C   UNL     1      14.678  12.524  11.844  0.00  0.00    +0.000 A 
ENDBRANCH  16  18
ENDBRANCH  14   6
ENDBRANCH  12  14
TORSDOF 9
ENDMDL
