MODEL 1
REMARK VINA RESULT:      -7.1      0.000      0.000
REMARK  Name = 11883369
REMARK  10 active torsions:
REMARK  status: ('A' for Active; 'I' for Inactive)
REMARK    1  A    between atoms: O_6  and  C_16
REMARK    2  A    between atoms: O_6  and  C_20
REMARK    3  A    between atoms: O_9  and  C_31
REMARK    4  A    between atoms: O_9  and  C_34
REMARK    5  A    between atoms: O_10  and  C_32
REMARK    6  A    between atoms: O_10  and  C_35
REMARK    7  A    between atoms: N_11  and  C_15
REMARK    8  A    between atoms: N_12  and  C_24
REMARK    9  A    between atoms: C_19  and  C_21
REMARK   10  A    between atoms: C_27  and  C_30
REMARK                            x       y       z     vdW  Elec       q    Type
REMARK                         _______ _______ _______ _____ _____    ______ ____
ROOT
ATOM      4  O   UNL     1     -17.411   5.016  25.000  0.00  0.00    -0.368 OA
ATOM      5  O   UNL     1     -16.250   2.829  23.191  0.00  0.00    -0.368 OA
ATOM     13  C   UNL     1     -15.931   3.220  24.543  0.00  0.00    +0.173 C 
ATOM     14  C   UNL     1     -16.059   4.729  24.604  0.00  0.00    +0.192 C 
ATOM     15  C   UNL     1     -16.998   2.727  25.492  0.00  0.00    +0.130 C 
ATOM     16  C   UNL     1     -15.795   5.137  23.175  0.00  0.00    +0.235 C 
ATOM     17  C   UNL     1     -18.073   3.791  25.349  0.00  0.00    +0.185 C 
ATOM     18  C   UNL     1     -16.436   4.010  22.398  0.00  0.00    +0.207 C 
ENDROOT
BRANCH  15  11
ATOM      7  O   UNL     1     -17.151   0.471  27.262  0.00  0.00    -0.270 OA
ATOM     11  N   UNL     1     -16.503   2.660  26.845  0.00  0.00    -0.304 N 
ATOM     19  C   UNL     1     -16.624   1.519  27.627  0.00  0.00    +0.244 C 
ATOM     36  H   UNL     1     -16.153   3.520  27.252  0.00  0.00    +0.149 HD
BRANCH  19  21
ATOM     21  C   UNL     1     -16.087   1.619  29.010  0.00  0.00    +0.037 A 
ATOM     22  C   UNL     1     -15.972   2.866  29.624  0.00  0.00    +0.013 A 
ATOM     23  C   UNL     1     -15.698   0.466  29.692  0.00  0.00    +0.013 A 
ATOM     25  C   UNL     1     -15.467   2.960  30.920  0.00  0.00    +0.013 A 
ATOM     26  C   UNL     1     -15.193   0.560  30.989  0.00  0.00    +0.013 A 
ATOM     27  C   UNL     1     -15.077   1.807  31.603  0.00  0.00    +0.055 A 
BRANCH  27  30
ATOM      1  F   UNL     1     -13.220   2.256  33.042  0.00  0.00    -0.166 F 
ATOM      2  F   UNL     1     -14.628   0.744  33.698  0.00  0.00    -0.166 F 
ATOM      3  F   UNL     1     -15.194   2.843  33.740  0.00  0.00    -0.166 F 
ATOM     30  C   UNL     1     -14.540   1.908  32.990  0.00  0.00    +0.417 C 
ENDBRANCH  27  30
ENDBRANCH  19  21
ENDBRANCH  15  11
BRANCH  16   6
ATOM      6  O   UNL     1     -16.344   6.392  22.838  0.00  0.00    -0.442 OA
BRANCH   6  20
ATOM      8  O   UNL     1     -16.358   7.412  20.791  0.00  0.00    -0.226 OA
ATOM     12  N   UNL     1     -14.414   7.290  22.090  0.00  0.00    -0.251 N 
ATOM     20  C   UNL     1     -15.748   7.074  21.798  0.00  0.00    +0.405 C 
ATOM     37  H   UNL     1     -14.087   6.932  22.983  0.00  0.00    +0.158 HD
BRANCH  12  24
ATOM     24  C   UNL     1     -13.445   7.949  21.300  0.00  0.00    +0.043 A 
ATOM     28  C   UNL     1     -13.168   9.298  21.517  0.00  0.00    +0.069 A 
ATOM     29  C   UNL     1     -12.766   7.249  20.302  0.00  0.00    +0.069 A 
ATOM     31  C   UNL     1     -11.810   7.899  19.522  0.00  0.00    +0.125 A 
ATOM     32  C   UNL     1     -12.212   9.949  20.736  0.00  0.00    +0.125 A 
ATOM     33  C   UNL     1     -11.533   9.249  19.738  0.00  0.00    +0.091 A 
BRANCH  31   9
ATOM      9  O   UNL     1     -11.149   7.217  18.547  0.00  0.00    -0.495 OA
ATOM     34  C   UNL     1     -10.691   7.969  17.424  0.00  0.00    +0.277 C 
ENDBRANCH  31   9
BRANCH  32  10
ATOM     10  O   UNL     1     -11.943  11.266  20.947  0.00  0.00    -0.495 OA
ATOM     35  C   UNL     1     -12.828  12.212  20.348  0.00  0.00    +0.277 C 
ENDBRANCH  32  10
ENDBRANCH  12  24
ENDBRANCH   6  20
ENDBRANCH  16   6
TORSDOF 8
ENDMDL
MODEL 2
REMARK VINA RESULT:      -7.1      5.243     11.231
REMARK  Name = 11883369
REMARK  10 active torsions:
REMARK  status: ('A' for Active; 'I' for Inactive)
REMARK    1  A    between atoms: O_6  and  C_16
REMARK    2  A    between atoms: O_6  and  C_20
REMARK    3  A    between atoms: O_9  and  C_31
REMARK    4  A    between atoms: O_9  and  C_34
REMARK    5  A    between atoms: O_10  and  C_32
REMARK    6  A    between atoms: O_10  and  C_35
REMARK    7  A    between atoms: N_11  and  C_15
REMARK    8  A    between atoms: N_12  and  C_24
REMARK    9  A    between atoms: C_19  and  C_21
REMARK   10  A    between atoms: C_27  and  C_30
REMARK                            x       y       z     vdW  Elec       q    Type
REMARK                         _______ _______ _______ _____ _____    ______ ____
ROOT
ATOM      4  O   UNL     1     -15.874   3.792  23.047  0.00  0.00    -0.368 OA
ATOM      5  O   UNL     1     -17.850   5.794  24.270  0.00  0.00    -0.368 OA
ATOM     13  C   UNL     1     -16.513   5.964  23.755  0.00  0.00    +0.173 C 
ATOM     14  C   UNL     1     -15.735   4.720  24.136  0.00  0.00    +0.192 C 
ATOM     15  C   UNL     1     -16.529   5.932  22.245  0.00  0.00    +0.130 C 
ATOM     16  C   UNL     1     -16.462   4.246  25.372  0.00  0.00    +0.235 C 
ATOM     17  C   UNL     1     -16.541   4.441  21.954  0.00  0.00    +0.185 C 
ATOM     18  C   UNL     1     -17.898   4.589  25.048  0.00  0.00    +0.207 C 
ENDROOT
BRANCH  15  11
ATOM      7  O   UNL     1     -16.129   6.732  19.516  0.00  0.00    -0.270 OA
ATOM     11  N   UNL     1     -15.354   6.565  21.696  0.00  0.00    -0.304 N 
ATOM     19  C   UNL     1     -15.253   6.916  20.356  0.00  0.00    +0.244 C 
ATOM     36  H   UNL     1     -14.549   6.651  22.306  0.00  0.00    +0.149 HD
BRANCH  19  21
ATOM     21  C   UNL     1     -13.967   7.536  19.942  0.00  0.00    +0.037 A 
ATOM     22  C   UNL     1     -13.934   8.408  18.854  0.00  0.00    +0.013 A 
ATOM     23  C   UNL     1     -12.795   7.247  20.641  0.00  0.00    +0.013 A 
ATOM     25  C   UNL     1     -12.727   8.989  18.464  0.00  0.00    +0.013 A 
ATOM     26  C   UNL     1     -11.589   7.828  20.251  0.00  0.00    +0.013 A 
ATOM     27  C   UNL     1     -11.555   8.699  19.162  0.00  0.00    +0.055 A 
BRANCH  27  30
ATOM      1  F   UNL     1      -9.279   9.218  19.685  0.00  0.00    -0.166 F 
ATOM      2  F   UNL     1     -10.364  10.659  18.481  0.00  0.00    -0.166 F 
ATOM      3  F   UNL     1      -9.753   8.761  17.613  0.00  0.00    -0.166 F 
ATOM     30  C   UNL     1     -10.266   9.323  18.747  0.00  0.00    +0.417 C 
ENDBRANCH  27  30
ENDBRANCH  19  21
ENDBRANCH  15  11
BRANCH  16   6
ATOM      6  O   UNL     1     -16.291   2.871  25.632  0.00  0.00    -0.442 OA
BRANCH   6  20
ATOM      8  O   UNL     1     -17.124   1.539  27.293  0.00  0.00    -0.226 OA
ATOM     12  N   UNL     1     -15.602   3.258  27.745  0.00  0.00    -0.251 N 
ATOM     20  C   UNL     1     -16.404   2.467  26.946  0.00  0.00    +0.405 C 
ATOM     37  H   UNL     1     -15.073   3.985  27.270  0.00  0.00    +0.158 HD
BRANCH  12  24
ATOM     24  C   UNL     1     -15.422   3.184  29.145  0.00  0.00    +0.043 A 
ATOM     28  C   UNL     1     -15.524   4.335  29.924  0.00  0.00    +0.069 A 
ATOM     29  C   UNL     1     -15.143   1.957  29.748  0.00  0.00    +0.069 A 
ATOM     31  C   UNL     1     -14.965   1.883  31.129  0.00  0.00    +0.125 A 
ATOM     32  C   UNL     1     -15.346   4.262  31.305  0.00  0.00    +0.125 A 
ATOM     33  C   UNL     1     -15.066   3.036  31.908  0.00  0.00    +0.091 A 
BRANCH  31   9
ATOM      9  O   UNL     1     -14.690   0.687  31.717  0.00  0.00    -0.495 OA
ATOM     34  C   UNL     1     -15.159  -0.486  31.053  0.00  0.00    +0.277 C 
ENDBRANCH  31   9
BRANCH  32  10
ATOM     10  O   UNL     1     -15.444   5.387  32.065  0.00  0.00    -0.495 OA
ATOM     35  C   UNL     1     -14.251   5.847  32.699  0.00  0.00    +0.277 C 
ENDBRANCH  32  10
ENDBRANCH  12  24
ENDBRANCH   6  20
ENDBRANCH  16   6
TORSDOF 8
ENDMDL
MODEL 3
REMARK VINA RESULT:      -7.1      0.453      2.232
REMARK  Name = 11883369
REMARK  10 active torsions:
REMARK  status: ('A' for Active; 'I' for Inactive)
REMARK    1  A    between atoms: O_6  and  C_16
REMARK    2  A    between atoms: O_6  and  C_20
REMARK    3  A    between atoms: O_9  and  C_31
REMARK    4  A    between atoms: O_9  and  C_34
REMARK    5  A    between atoms: O_10  and  C_32
REMARK    6  A    between atoms: O_10  and  C_35
REMARK    7  A    between atoms: N_11  and  C_15
REMARK    8  A    between atoms: N_12  and  C_24
REMARK    9  A    between atoms: C_19  and  C_21
REMARK   10  A    between atoms: C_27  and  C_30
REMARK                            x       y       z     vdW  Elec       q    Type
REMARK                         _______ _______ _______ _____ _____    ______ ____
ROOT
ATOM      4  O   UNL     1     -17.661   4.663  25.084  0.00  0.00    -0.368 OA
ATOM      5  O   UNL     1     -16.432   2.515  23.272  0.00  0.00    -0.368 OA
ATOM     13  C   UNL     1     -16.085   2.958  24.601  0.00  0.00    +0.173 C 
ATOM     14  C   UNL     1     -16.311   4.456  24.637  0.00  0.00    +0.192 C 
ATOM     15  C   UNL     1     -17.077   2.418  25.604  0.00  0.00    +0.130 C 
ATOM     16  C   UNL     1     -16.134   4.848  23.189  0.00  0.00    +0.235 C 
ATOM     17  C   UNL     1     -18.225   3.405  25.486  0.00  0.00    +0.185 C 
ATOM     18  C   UNL     1     -16.729   3.663  22.464  0.00  0.00    +0.207 C 
ENDROOT
BRANCH  15  11
ATOM      7  O   UNL     1     -17.547   0.460  27.651  0.00  0.00    -0.270 OA
ATOM     11  N   UNL     1     -16.523   2.414  26.937  0.00  0.00    -0.304 N 
ATOM     19  C   UNL     1     -16.810   1.420  27.861  0.00  0.00    +0.244 C 
ATOM     36  H   UNL     1     -15.991   3.231  27.218  0.00  0.00    +0.149 HD
BRANCH  19  21
ATOM     21  C   UNL     1     -16.181   1.574  29.199  0.00  0.00    +0.037 A 
ATOM     22  C   UNL     1     -15.481   0.509  29.766  0.00  0.00    +0.013 A 
ATOM     23  C   UNL     1     -16.291   2.782  29.887  0.00  0.00    +0.013 A 
ATOM     25  C   UNL     1     -14.892   0.653  31.022  0.00  0.00    +0.013 A 
ATOM     26  C   UNL     1     -15.702   2.926  31.143  0.00  0.00    +0.013 A 
ATOM     27  C   UNL     1     -15.002   1.861  31.711  0.00  0.00    +0.055 A 
BRANCH  27  30
ATOM      1  F   UNL     1     -14.584   0.953  33.884  0.00  0.00    -0.166 F 
ATOM      2  F   UNL     1     -14.814   3.105  33.745  0.00  0.00    -0.166 F 
ATOM      3  F   UNL     1     -13.013   2.156  32.980  0.00  0.00    -0.166 F 
ATOM     30  C   UNL     1     -14.369   2.015  33.052  0.00  0.00    +0.417 C 
ENDBRANCH  27  30
ENDBRANCH  19  21
ENDBRANCH  15  11
BRANCH  16   6
ATOM      6  O   UNL     1     -16.778   6.056  22.851  0.00  0.00    -0.442 OA
BRANCH   6  20
ATOM      8  O   UNL     1     -16.699   7.557  21.128  0.00  0.00    -0.226 OA
ATOM     12  N   UNL     1     -14.758   6.836  22.220  0.00  0.00    -0.251 N 
ATOM     20  C   UNL     1     -16.117   6.891  21.975  0.00  0.00    +0.405 C 
ATOM     37  H   UNL     1     -14.462   6.220  22.972  0.00  0.00    +0.158 HD
BRANCH  12  24
ATOM     24  C   UNL     1     -13.725   7.533  21.555  0.00  0.00    +0.043 A 
ATOM     28  C   UNL     1     -12.975   6.895  20.568  0.00  0.00    +0.069 A 
ATOM     29  C   UNL     1     -13.453   8.862  21.886  0.00  0.00    +0.069 A 
ATOM     31  C   UNL     1     -12.433   9.549  21.229  0.00  0.00    +0.125 A 
ATOM     32  C   UNL     1     -11.954   7.582  19.911  0.00  0.00    +0.125 A 
ATOM     33  C   UNL     1     -11.683   8.910  20.243  0.00  0.00    +0.091 A 
BRANCH  31   9
ATOM      9  O   UNL     1     -12.167  10.844  21.554  0.00  0.00    -0.495 OA
ATOM     34  C   UNL     1     -12.784  11.854  20.756  0.00  0.00    +0.277 C 
ENDBRANCH  31   9
BRANCH  32  10
ATOM     10  O   UNL     1     -11.221   6.958  18.949  0.00  0.00    -0.495 OA
ATOM     35  C   UNL     1     -10.831   7.739  17.821  0.00  0.00    +0.277 C 
ENDBRANCH  32  10
ENDBRANCH  12  24
ENDBRANCH   6  20
ENDBRANCH  16   6
TORSDOF 8
ENDMDL
MODEL 4
REMARK VINA RESULT:      -7.0     19.758     21.752
REMARK  Name = 11883369
REMARK  10 active torsions:
REMARK  status: ('A' for Active; 'I' for Inactive)
REMARK    1  A    between atoms: O_6  and  C_16
REMARK    2  A    between atoms: O_6  and  C_20
REMARK    3  A    between atoms: O_9  and  C_31
REMARK    4  A    between atoms: O_9  and  C_34
REMARK    5  A    between atoms: O_10  and  C_32
REMARK    6  A    between atoms: O_10  and  C_35
REMARK    7  A    between atoms: N_11  and  C_15
REMARK    8  A    between atoms: N_12  and  C_24
REMARK    9  A    between atoms: C_19  and  C_21
REMARK   10  A    between atoms: C_27  and  C_30
REMARK                            x       y       z     vdW  Elec       q    Type
REMARK                         _______ _______ _______ _____ _____    ______ ____
ROOT
ATOM      4  O   UNL     1      -3.814 -12.143  14.307  0.00  0.00    -0.368 OA
ATOM      5  O   UNL     1      -1.926 -10.923  16.394  0.00  0.00    -0.368 OA
ATOM     13  C   UNL     1      -3.300 -10.632  16.061  0.00  0.00    +0.173 C 
ATOM     14  C   UNL     1      -3.428 -10.781  14.558  0.00  0.00    +0.192 C 
ATOM     15  C   UNL     1      -4.206 -11.708  16.611  0.00  0.00    +0.130 C 
ATOM     16  C   UNL     1      -2.024 -10.499  14.081  0.00  0.00    +0.235 C 
ATOM     17  C   UNL     1      -4.094 -12.795  15.555  0.00  0.00    +0.185 C 
ATOM     18  C   UNL     1      -1.185 -11.112  15.179  0.00  0.00    +0.207 C 
ENDROOT
BRANCH  15  11
ATOM      7  O   UNL     1      -5.403 -10.526  18.938  0.00  0.00    -0.270 OA
ATOM     11  N   UNL     1      -5.564 -11.235  16.735  0.00  0.00    -0.304 N 
ATOM     19  C   UNL     1      -6.054 -10.676  17.907  0.00  0.00    +0.244 C 
ATOM     36  H   UNL     1      -6.191 -11.423  15.960  0.00  0.00    +0.149 HD
BRANCH  19  21
ATOM     21  C   UNL     1      -7.481 -10.261  17.882  0.00  0.00    +0.037 A 
ATOM     22  C   UNL     1      -8.420 -10.953  18.648  0.00  0.00    +0.013 A 
ATOM     23  C   UNL     1      -7.881  -9.182  17.095  0.00  0.00    +0.013 A 
ATOM     25  C   UNL     1      -9.759 -10.565  18.624  0.00  0.00    +0.013 A 
ATOM     26  C   UNL     1      -9.220  -8.794  17.071  0.00  0.00    +0.013 A 
ATOM     27  C   UNL     1     -10.160  -9.486  17.836  0.00  0.00    +0.055 A 
BRANCH  27  30
ATOM      1  F   UNL     1     -11.780  -7.774  17.427  0.00  0.00    -0.166 F 
ATOM      2  F   UNL     1     -12.212  -9.173  19.026  0.00  0.00    -0.166 F 
ATOM      3  F   UNL     1     -12.342  -9.821  16.954  0.00  0.00    -0.166 F 
ATOM     30  C   UNL     1     -11.592  -9.070  17.813  0.00  0.00    +0.417 C 
ENDBRANCH  27  30
ENDBRANCH  19  21
ENDBRANCH  15  11
BRANCH  16   6
ATOM      6  O   UNL     1      -1.736 -11.059  12.819  0.00  0.00    -0.442 OA
BRANCH   6  20
ATOM      8  O   UNL     1      -1.546  -9.417  11.238  0.00  0.00    -0.226 OA
ATOM     12  N   UNL     1      -3.368 -10.887  11.271  0.00  0.00    -0.251 N 
ATOM     20  C   UNL     1      -2.170 -10.358  11.713  0.00  0.00    +0.405 C 
ATOM     37  H   UNL     1      -3.733 -11.674  11.800  0.00  0.00    +0.158 HD
BRANCH  12  24
ATOM     24  C   UNL     1      -4.151 -10.469  10.172  0.00  0.00    +0.043 A 
ATOM     28  C   UNL     1      -4.104 -11.177   8.972  0.00  0.00    +0.069 A 
ATOM     29  C   UNL     1      -4.973  -9.346  10.287  0.00  0.00    +0.069 A 
ATOM     31  C   UNL     1      -5.745  -8.934   9.202  0.00  0.00    +0.125 A 
ATOM     32  C   UNL     1      -4.876 -10.764   7.886  0.00  0.00    +0.125 A 
ATOM     33  C   UNL     1      -5.697  -9.641   8.001  0.00  0.00    +0.091 A 
BRANCH  31   9
ATOM      9  O   UNL     1      -6.545  -7.838   9.313  0.00  0.00    -0.495 OA
ATOM     34  C   UNL     1      -7.952  -8.047   9.208  0.00  0.00    +0.277 C 
ENDBRANCH  31   9
BRANCH  32  10
ATOM     10  O   UNL     1      -4.828 -11.454   6.714  0.00  0.00    -0.495 OA
ATOM     35  C   UNL     1      -4.079 -12.669   6.706  0.00  0.00    +0.277 C 
ENDBRANCH  32  10
ENDBRANCH  12  24
ENDBRANCH   6  20
ENDBRANCH  16   6
TORSDOF 8
ENDMDL
MODEL 5
REMARK VINA RESULT:      -7.0     28.776     32.732
REMARK  Name = 11883369
REMARK  10 active torsions:
REMARK  status: ('A' for Active; 'I' for Inactive)
REMARK    1  A    between atoms: O_6  and  C_16
REMARK    2  A    between atoms: O_6  and  C_20
REMARK    3  A    between atoms: O_9  and  C_31
REMARK    4  A    between atoms: O_9  and  C_34
REMARK    5  A    between atoms: O_10  and  C_32
REMARK    6  A    between atoms: O_10  and  C_35
REMARK    7  A    between atoms: N_11  and  C_15
REMARK    8  A    between atoms: N_12  and  C_24
REMARK    9  A    between atoms: C_19  and  C_21
REMARK   10  A    between atoms: C_27  and  C_30
REMARK                            x       y       z     vdW  Elec       q    Type
REMARK                         _______ _______ _______ _____ _____    ______ ____
ROOT
ATOM      4  O   UNL     1      15.948   9.157  19.853  0.00  0.00    -0.368 OA
ATOM      5  O   UNL     1      14.549   6.470  20.333  0.00  0.00    -0.368 OA
ATOM     13  C   UNL     1      14.457   7.733  21.025  0.00  0.00    +0.173 C 
ATOM     14  C   UNL     1      15.848   8.334  21.027  0.00  0.00    +0.192 C 
ATOM     15  C   UNL     1      13.641   8.712  20.213  0.00  0.00    +0.130 C 
ATOM     16  C   UNL     1      16.731   7.113  20.933  0.00  0.00    +0.235 C 
ATOM     17  C   UNL     1      14.662   9.237  19.219  0.00  0.00    +0.185 C 
ATOM     18  C   UNL     1      15.927   6.207  20.030  0.00  0.00    +0.207 C 
ENDROOT
BRANCH  15  11
ATOM      7  O   UNL     1      10.900   9.108  20.973  0.00  0.00    -0.270 OA
ATOM     11  N   UNL     1      13.122   9.773  21.042  0.00  0.00    -0.304 N 
ATOM     19  C   UNL     1      11.774   9.882  21.356  0.00  0.00    +0.244 C 
ATOM     36  H   UNL     1      13.767  10.510  21.306  0.00  0.00    +0.149 HD
BRANCH  19  21
ATOM     21  C   UNL     1      11.395  11.047  22.199  0.00  0.00    +0.037 A 
ATOM     22  C   UNL     1      11.340  12.323  21.638  0.00  0.00    +0.013 A 
ATOM     23  C   UNL     1      11.095  10.863  23.548  0.00  0.00    +0.013 A 
ATOM     25  C   UNL     1      10.986  13.416  22.429  0.00  0.00    +0.013 A 
ATOM     26  C   UNL     1      10.740  11.956  24.338  0.00  0.00    +0.013 A 
ATOM     27  C   UNL     1      10.686  13.233  23.779  0.00  0.00    +0.055 A 
BRANCH  27  30
ATOM      1  F   UNL     1       9.186  15.051  24.186  0.00  0.00    -0.166 F 
ATOM      2  F   UNL     1      11.271  15.365  24.693  0.00  0.00    -0.166 F 
ATOM      3  F   UNL     1      10.043  14.052  25.916  0.00  0.00    -0.166 F 
ATOM     30  C   UNL     1      10.305  14.402  24.623  0.00  0.00    +0.417 C 
ENDBRANCH  27  30
ENDBRANCH  19  21
ENDBRANCH  15  11
BRANCH  16   6
ATOM      6  O   UNL     1      18.012   7.385  20.408  0.00  0.00    -0.442 OA
BRANCH   6  20
ATOM      8  O   UNL     1      19.134   6.860  22.330  0.00  0.00    -0.226 OA
ATOM     12  N   UNL     1      20.055   6.447  20.218  0.00  0.00    -0.251 N 
ATOM     20  C   UNL     1      19.091   6.885  21.106  0.00  0.00    +0.405 C 
ATOM     37  H   UNL     1      19.836   6.552  19.231  0.00  0.00    +0.158 HD
BRANCH  12  24
ATOM     24  C   UNL     1      21.310   5.868  20.511  0.00  0.00    +0.043 A 
ATOM     28  C   UNL     1      21.409   4.498  20.747  0.00  0.00    +0.069 A 
ATOM     29  C   UNL     1      22.452   6.669  20.565  0.00  0.00    +0.069 A 
ATOM     31  C   UNL     1      23.691   6.098  20.854  0.00  0.00    +0.125 A 
ATOM     32  C   UNL     1      22.648   3.926  21.037  0.00  0.00    +0.125 A 
ATOM     33  C   UNL     1      23.789   4.727  21.091  0.00  0.00    +0.091 A 
BRANCH  31   9
ATOM      9  O   UNL     1      24.804   6.880  20.909  0.00  0.00    -0.495 OA
ATOM     34  C   UNL     1      25.931   6.357  21.610  0.00  0.00    +0.277 C 
ENDBRANCH  31   9
BRANCH  32  10
ATOM     10  O   UNL     1      22.744   2.589  21.269  0.00  0.00    -0.495 OA
ATOM     35  C   UNL     1      23.971   1.954  20.909  0.00  0.00    +0.277 C 
ENDBRANCH  32  10
ENDBRANCH  12  24
ENDBRANCH   6  20
ENDBRANCH  16   6
TORSDOF 8
ENDMDL
MODEL 6
REMARK VINA RESULT:      -6.9     17.121     18.759
REMARK  Name = 11883369
REMARK  10 active torsions:
REMARK  status: ('A' for Active; 'I' for Inactive)
REMARK    1  A    between atoms: O_6  and  C_16
REMARK    2  A    between atoms: O_6  and  C_20
REMARK    3  A    between atoms: O_9  and  C_31
REMARK    4  A    between atoms: O_9  and  C_34
REMARK    5  A    between atoms: O_10  and  C_32
REMARK    6  A    between atoms: O_10  and  C_35
REMARK    7  A    between atoms: N_11  and  C_15
REMARK    8  A    between atoms: N_12  and  C_24
REMARK    9  A    between atoms: C_19  and  C_21
REMARK   10  A    between atoms: C_27  and  C_30
REMARK                            x       y       z     vdW  Elec       q    Type
REMARK                         _______ _______ _______ _____ _____    ______ ____
ROOT
ATOM      4  O   UNL     1      -9.964  -7.401  16.264  0.00  0.00    -0.368 OA
ATOM      5  O   UNL     1     -11.638  -9.937  16.680  0.00  0.00    -0.368 OA
ATOM     13  C   UNL     1     -10.355  -9.731  16.052  0.00  0.00    +0.173 C 
ATOM     14  C   UNL     1     -10.427  -8.397  15.336  0.00  0.00    +0.192 C 
ATOM     15  C   UNL     1      -9.290  -9.521  17.102  0.00  0.00    +0.130 C 
ATOM     16  C   UNL     1     -11.904  -8.257  15.055  0.00  0.00    +0.235 C 
ATOM     17  C   UNL     1      -9.455  -8.049  17.439  0.00  0.00    +0.185 C 
ATOM     18  C   UNL     1     -12.524  -8.879  16.285  0.00  0.00    +0.207 C 
ENDROOT
BRANCH  15  11
ATOM      7  O   UNL     1      -6.976 -10.323  18.601  0.00  0.00    -0.270 OA
ATOM     11  N   UNL     1      -7.975  -9.795  16.576  0.00  0.00    -0.304 N 
ATOM     19  C   UNL     1      -6.913 -10.179  17.383  0.00  0.00    +0.244 C 
ATOM     36  H   UNL     1      -7.820  -9.594  15.594  0.00  0.00    +0.149 HD
BRANCH  19  21
ATOM     21  C   UNL     1      -5.616 -10.399  16.691  0.00  0.00    +0.037 A 
ATOM     22  C   UNL     1      -4.470 -10.680  17.434  0.00  0.00    +0.013 A 
ATOM     23  C   UNL     1      -5.546 -10.324  15.300  0.00  0.00    +0.013 A 
ATOM     25  C   UNL     1      -3.253 -10.886  16.785  0.00  0.00    +0.013 A 
ATOM     26  C   UNL     1      -4.329 -10.529  14.651  0.00  0.00    +0.013 A 
ATOM     27  C   UNL     1      -3.182 -10.810  15.394  0.00  0.00    +0.055 A 
BRANCH  27  30
ATOM      1  F   UNL     1      -1.494  -9.985  13.913  0.00  0.00    -0.166 F 
ATOM      2  F   UNL     1      -1.879 -12.119  13.873  0.00  0.00    -0.166 F 
ATOM      3  F   UNL     1      -0.849 -11.235  15.572  0.00  0.00    -0.166 F 
ATOM     30  C   UNL     1      -1.880 -11.032  14.700  0.00  0.00    +0.417 C 
ENDBRANCH  27  30
ENDBRANCH  19  21
ENDBRANCH  15  11
BRANCH  16   6
ATOM      6  O   UNL     1     -12.317  -6.921  14.871  0.00  0.00    -0.442 OA
BRANCH   6  20
ATOM      8  O   UNL     1     -13.480  -7.430  12.969  0.00  0.00    -0.226 OA
ATOM     12  N   UNL     1     -12.678  -5.269  13.377  0.00  0.00    -0.251 N 
ATOM     20  C   UNL     1     -12.888  -6.606  13.655  0.00  0.00    +0.405 C 
ATOM     37  H   UNL     1     -12.159  -4.742  14.075  0.00  0.00    +0.158 HD
BRANCH  12  24
ATOM     24  C   UNL     1     -13.095  -4.540  12.241  0.00  0.00    +0.043 A 
ATOM     28  C   UNL     1     -14.390  -4.029  12.176  0.00  0.00    +0.069 A 
ATOM     29  C   UNL     1     -12.209  -4.331  11.182  0.00  0.00    +0.069 A 
ATOM     31  C   UNL     1     -12.621  -3.612  10.061  0.00  0.00    +0.125 A 
ATOM     32  C   UNL     1     -14.803  -3.310  11.054  0.00  0.00    +0.125 A 
ATOM     33  C   UNL     1     -13.918  -3.102   9.996  0.00  0.00    +0.091 A 
BRANCH  31   9
ATOM      9  O   UNL     1     -11.758  -3.410   9.028  0.00  0.00    -0.495 OA
ATOM     34  C   UNL     1     -10.618  -4.266   8.957  0.00  0.00    +0.277 C 
ENDBRANCH  31   9
BRANCH  32  10
ATOM     10  O   UNL     1     -16.068  -2.814  10.990  0.00  0.00    -0.495 OA
ATOM     35  C   UNL     1     -16.252  -1.599  10.265  0.00  0.00    +0.277 C 
ENDBRANCH  32  10
ENDBRANCH  12  24
ENDBRANCH   6  20
ENDBRANCH  16   6
TORSDOF 8
ENDMDL
MODEL 7
REMARK VINA RESULT:      -6.9     28.613     32.528
REMARK  Name = 11883369
REMARK  10 active torsions:
REMARK  status: ('A' for Active; 'I' for Inactive)
REMARK    1  A    between atoms: O_6  and  C_16
REMARK    2  A    between atoms: O_6  and  C_20
REMARK    3  A    between atoms: O_9  and  C_31
REMARK    4  A    between atoms: O_9  and  C_34
REMARK    5  A    between atoms: O_10  and  C_32
REMARK    6  A    between atoms: O_10  and  C_35
REMARK    7  A    between atoms: N_11  and  C_15
REMARK    8  A    between atoms: N_12  and  C_24
REMARK    9  A    between atoms: C_19  and  C_21
REMARK   10  A    between atoms: C_27  and  C_30
REMARK                            x       y       z     vdW  Elec       q    Type
REMARK                         _______ _______ _______ _____ _____    ______ ____
ROOT
ATOM      4  O   UNL     1      15.721   9.129  19.683  0.00  0.00    -0.368 OA
ATOM      5  O   UNL     1      14.419   6.467  20.471  0.00  0.00    -0.368 OA
ATOM     13  C   UNL     1      14.312   7.789  21.040  0.00  0.00    +0.173 C 
ATOM     14  C   UNL     1      15.684   8.424  20.935  0.00  0.00    +0.192 C 
ATOM     15  C   UNL     1      13.441   8.661  20.167  0.00  0.00    +0.130 C 
ATOM     16  C   UNL     1      16.599   7.223  20.928  0.00  0.00    +0.235 C 
ATOM     17  C   UNL     1      14.413   9.113  19.091  0.00  0.00    +0.185 C 
ATOM     18  C   UNL     1      15.793   6.212  20.147  0.00  0.00    +0.207 C 
ENDROOT
BRANCH  15  11
ATOM      7  O   UNL     1      11.118   8.670  21.856  0.00  0.00    -0.270 OA
ATOM     11  N   UNL     1      12.918   9.784  20.906  0.00  0.00    -0.304 N 
ATOM     19  C   UNL     1      11.782   9.691  21.700  0.00  0.00    +0.244 C 
ATOM     36  H   UNL     1      13.351  10.687  20.743  0.00  0.00    +0.149 HD
BRANCH  19  21
ATOM     21  C   UNL     1      11.357  10.945  22.376  0.00  0.00    +0.037 A 
ATOM     22  C   UNL     1      11.302  12.139  21.657  0.00  0.00    +0.013 A 
ATOM     23  C   UNL     1      11.012  10.927  23.727  0.00  0.00    +0.013 A 
ATOM     25  C   UNL     1      10.904  13.316  22.291  0.00  0.00    +0.013 A 
ATOM     26  C   UNL     1      10.614  12.103  24.361  0.00  0.00    +0.013 A 
ATOM     27  C   UNL     1      10.560  13.298  23.643  0.00  0.00    +0.055 A 
BRANCH  27  30
ATOM      1  F   UNL     1      11.031  15.577  24.196  0.00  0.00    -0.166 F 
ATOM      2  F   UNL     1       9.937  14.415  25.665  0.00  0.00    -0.166 F 
ATOM      3  F   UNL     1       8.955  15.043  23.828  0.00  0.00    -0.166 F 
ATOM     30  C   UNL     1      10.132  14.556  24.320  0.00  0.00    +0.417 C 
ENDBRANCH  27  30
ENDBRANCH  19  21
ENDBRANCH  15  11
BRANCH  16   6
ATOM      6  O   UNL     1      17.853   7.476  20.334  0.00  0.00    -0.442 OA
BRANCH   6  20
ATOM      8  O   UNL     1      19.124   7.358  22.232  0.00  0.00    -0.226 OA
ATOM     12  N   UNL     1      19.827   6.389  20.220  0.00  0.00    -0.251 N 
ATOM     20  C   UNL     1      18.970   7.090  21.047  0.00  0.00    +0.405 C 
ATOM     37  H   UNL     1      19.523   6.268  19.258  0.00  0.00    +0.158 HD
BRANCH  12  24
ATOM     24  C   UNL     1      21.078   5.818  20.546  0.00  0.00    +0.043 A 
ATOM     28  C   UNL     1      22.189   6.637  20.741  0.00  0.00    +0.069 A 
ATOM     29  C   UNL     1      21.201   4.434  20.672  0.00  0.00    +0.069 A 
ATOM     31  C   UNL     1      22.435   3.870  20.993  0.00  0.00    +0.125 A 
ATOM     32  C   UNL     1      23.424   6.073  21.061  0.00  0.00    +0.125 A 
ATOM     33  C   UNL     1      23.547   4.689  21.187  0.00  0.00    +0.091 A 
BRANCH  31   9
ATOM      9  O   UNL     1      22.556   2.520  21.114  0.00  0.00    -0.495 OA
ATOM     34  C   UNL     1      23.852   1.962  20.904  0.00  0.00    +0.277 C 
ENDBRANCH  31   9
BRANCH  32  10
ATOM     10  O   UNL     1      24.510   6.872  21.249  0.00  0.00    -0.495 OA
ATOM     35  C   UNL     1      25.149   7.384  20.081  0.00  0.00    +0.277 C 
ENDBRANCH  32  10
ENDBRANCH  12  24
ENDBRANCH   6  20
ENDBRANCH  16   6
TORSDOF 8
ENDMDL
MODEL 8
REMARK VINA RESULT:      -6.8     24.420     29.258
REMARK  Name = 11883369
REMARK  10 active torsions:
REMARK  status: ('A' for Active; 'I' for Inactive)
REMARK    1  A    between atoms: O_6  and  C_16
REMARK    2  A    between atoms: O_6  and  C_20
REMARK    3  A    between atoms: O_9  and  C_31
REMARK    4  A    between atoms: O_9  and  C_34
REMARK    5  A    between atoms: O_10  and  C_32
REMARK    6  A    between atoms: O_10  and  C_35
REMARK    7  A    between atoms: N_11  and  C_15
REMARK    8  A    between atoms: N_12  and  C_24
REMARK    9  A    between atoms: C_19  and  C_21
REMARK   10  A    between atoms: C_27  and  C_30
REMARK                            x       y       z     vdW  Elec       q    Type
REMARK                         _______ _______ _______ _____ _____    ______ ____
ROOT
ATOM      4  O   UNL     1       5.280   9.750   2.859  0.00  0.00    -0.368 OA
ATOM      5  O   UNL     1       6.368  12.554   3.462  0.00  0.00    -0.368 OA
ATOM     13  C   UNL     1       6.297  11.361   4.272  0.00  0.00    +0.173 C 
ATOM     14  C   UNL     1       4.993  10.672   3.924  0.00  0.00    +0.192 C 
ATOM     15  C   UNL     1       7.355  10.374   3.837  0.00  0.00    +0.130 C 
ATOM     16  C   UNL     1       4.132  11.820   3.454  0.00  0.00    +0.235 C 
ATOM     17  C   UNL     1       6.699   9.703   2.644  0.00  0.00    +0.185 C 
ATOM     18  C   UNL     1       5.134  12.700   2.743  0.00  0.00    +0.207 C 
ENDROOT
BRANCH  15  11
ATOM      7  O   UNL     1       9.806   8.925   4.208  0.00  0.00    -0.270 OA
ATOM     11  N   UNL     1       7.643   9.422   4.883  0.00  0.00    -0.304 N 
ATOM     19  C   UNL     1       8.863   8.768   4.980  0.00  0.00    +0.244 C 
ATOM     36  H   UNL     1       6.876   9.162   5.494  0.00  0.00    +0.149 HD
BRANCH  19  21
ATOM     21  C   UNL     1       8.993   7.798   6.099  0.00  0.00    +0.037 A 
ATOM     22  C   UNL     1       9.246   6.453   5.828  0.00  0.00    +0.013 A 
ATOM     23  C   UNL     1       8.863   8.231   7.418  0.00  0.00    +0.013 A 
ATOM     25  C   UNL     1       9.367   5.542   6.876  0.00  0.00    +0.013 A 
ATOM     26  C   UNL     1       8.984   7.320   8.466  0.00  0.00    +0.013 A 
ATOM     27  C   UNL     1       9.236   5.975   8.196  0.00  0.00    +0.055 A 
BRANCH  27  30
ATOM      1  F   UNL     1      10.481   5.196  10.084  0.00  0.00    -0.166 F 
ATOM      2  F   UNL     1       9.442   3.700   8.907  0.00  0.00    -0.166 F 
ATOM      3  F   UNL     1       8.313   5.051  10.183  0.00  0.00    -0.166 F 
ATOM     30  C   UNL     1       9.368   5.001   9.317  0.00  0.00    +0.417 C 
ENDBRANCH  27  30
ENDBRANCH  19  21
ENDBRANCH  15  11
BRANCH  16   6
ATOM      6  O   UNL     1       3.079  11.422   2.605  0.00  0.00    -0.442 OA
BRANCH   6  20
ATOM      8  O   UNL     1       1.468  12.256   3.997  0.00  0.00    -0.226 OA
ATOM     12  N   UNL     1       1.031  10.478   2.538  0.00  0.00    -0.251 N 
ATOM     20  C   UNL     1       1.805  11.456   3.133  0.00  0.00    +0.405 C 
ATOM     37  H   UNL     1       1.493   9.908   1.835  0.00  0.00    +0.158 HD
BRANCH  12  24
ATOM     24  C   UNL     1      -0.326  10.172   2.785  0.00  0.00    +0.043 A 
ATOM     28  C   UNL     1      -1.291  10.450   1.819  0.00  0.00    +0.069 A 
ATOM     29  C   UNL     1      -0.700   9.590   3.997  0.00  0.00    +0.069 A 
ATOM     31  C   UNL     1      -2.039   9.287   4.241  0.00  0.00    +0.125 A 
ATOM     32  C   UNL     1      -2.632  10.149   2.064  0.00  0.00    +0.125 A 
ATOM     33  C   UNL     1      -3.005   9.568   3.276  0.00  0.00    +0.091 A 
BRANCH  31   9
ATOM      9  O   UNL     1      -2.404   8.722   5.425  0.00  0.00    -0.495 OA
ATOM     34  C   UNL     1      -3.340   7.646   5.369  0.00  0.00    +0.277 C 
ENDBRANCH  31   9
BRANCH  32  10
ATOM     10  O   UNL     1      -3.574  10.423   1.121  0.00  0.00    -0.495 OA
ATOM     35  C   UNL     1      -3.165  11.210   0.003  0.00  0.00    +0.277 C 
ENDBRANCH  32  10
ENDBRANCH  12  24
ENDBRANCH   6  20
ENDBRANCH  16   6
TORSDOF 8
ENDMDL
MODEL 9
REMARK VINA RESULT:      -6.7     18.348     21.249
REMARK  Name = 11883369
REMARK  10 active torsions:
REMARK  status: ('A' for Active; 'I' for Inactive)
REMARK    1  A    between atoms: O_6  and  C_16
REMARK    2  A    between atoms: O_6  and  C_20
REMARK    3  A    between atoms: O_9  and  C_31
REMARK    4  A    between atoms: O_9  and  C_34
REMARK    5  A    between atoms: O_10  and  C_32
REMARK    6  A    between atoms: O_10  and  C_35
REMARK    7  A    between atoms: N_11  and  C_15
REMARK    8  A    between atoms: N_12  and  C_24
REMARK    9  A    between atoms: C_19  and  C_21
REMARK   10  A    between atoms: C_27  and  C_30
REMARK                            x       y       z     vdW  Elec       q    Type
REMARK                         _______ _______ _______ _____ _____    ______ ____
ROOT
ATOM      4  O   UNL     1      -9.520  -8.599   9.006  0.00  0.00    -0.368 OA
ATOM      5  O   UNL     1      -7.918  -7.575   6.600  0.00  0.00    -0.368 OA
ATOM     13  C   UNL     1      -7.537  -7.809   7.972  0.00  0.00    +0.173 C 
ATOM     14  C   UNL     1      -8.724  -7.416   8.830  0.00  0.00    +0.192 C 
ATOM     15  C   UNL     1      -7.384  -9.291   8.223  0.00  0.00    +0.130 C 
ATOM     16  C   UNL     1      -9.424  -6.393   7.968  0.00  0.00    +0.235 C 
ATOM     17  C   UNL     1      -8.819  -9.728   8.460  0.00  0.00    +0.185 C 
ATOM     18  C   UNL     1      -9.207  -6.945   6.578  0.00  0.00    +0.207 C 
ENDROOT
BRANCH  15  11
ATOM      7  O   UNL     1      -4.516  -9.419   8.292  0.00  0.00    -0.270 OA
ATOM     11  N   UNL     1      -6.561  -9.542   9.381  0.00  0.00    -0.304 N 
ATOM     19  C   UNL     1      -5.175  -9.586   9.316  0.00  0.00    +0.244 C 
ATOM     36  H   UNL     1      -7.037  -9.796  10.240  0.00  0.00    +0.149 HD
BRANCH  19  21
ATOM     21  C   UNL     1      -4.473  -9.883  10.592  0.00  0.00    +0.037 A 
ATOM     22  C   UNL     1      -3.081  -9.971  10.616  0.00  0.00    +0.013 A 
ATOM     23  C   UNL     1      -5.204 -10.072  11.764  0.00  0.00    +0.013 A 
ATOM     25  C   UNL     1      -2.421 -10.250  11.812  0.00  0.00    +0.013 A 
ATOM     26  C   UNL     1      -4.545 -10.351  12.960  0.00  0.00    +0.013 A 
ATOM     27  C   UNL     1      -3.153 -10.441  12.985  0.00  0.00    +0.055 A 
BRANCH  27  30
ATOM      1  F   UNL     1      -3.207 -10.503  15.375  0.00  0.00    -0.166 F 
ATOM      2  F   UNL     1      -1.313  -9.998  14.448  0.00  0.00    -0.166 F 
ATOM      3  F   UNL     1      -2.054 -12.041  14.357  0.00  0.00    -0.166 F 
ATOM     30  C   UNL     1      -2.447 -10.737  14.265  0.00  0.00    +0.417 C 
ENDBRANCH  27  30
ENDBRANCH  19  21
ENDBRANCH  15  11
BRANCH  16   6
ATOM      6  O   UNL     1     -10.793  -6.245   8.272  0.00  0.00    -0.442 OA
BRANCH   6  20
ATOM      8  O   UNL     1     -10.542  -4.279   9.413  0.00  0.00    -0.226 OA
ATOM     12  N   UNL     1     -12.148  -5.864  10.035  0.00  0.00    -0.251 N 
ATOM     20  C   UNL     1     -11.117  -5.351   9.272  0.00  0.00    +0.405 C 
ATOM     37  H   UNL     1     -12.498  -6.778   9.760  0.00  0.00    +0.158 HD
BRANCH  12  24
ATOM     24  C   UNL     1     -12.780  -5.275  11.153  0.00  0.00    +0.043 A 
ATOM     28  C   UNL     1     -13.679  -4.225  10.974  0.00  0.00    +0.069 A 
ATOM     29  C   UNL     1     -12.504  -5.744  12.438  0.00  0.00    +0.069 A 
ATOM     31  C   UNL     1     -13.127  -5.162  13.542  0.00  0.00    +0.125 A 
ATOM     32  C   UNL     1     -14.303  -3.642  12.077  0.00  0.00    +0.125 A 
ATOM     33  C   UNL     1     -14.026  -4.111  13.362  0.00  0.00    +0.091 A 
BRANCH  31   9
ATOM      9  O   UNL     1     -12.856  -5.618  14.795  0.00  0.00    -0.495 OA
ATOM     34  C   UNL     1     -11.483  -5.808  15.135  0.00  0.00    +0.277 C 
ENDBRANCH  31   9
BRANCH  32  10
ATOM     10  O   UNL     1     -15.178  -2.615  11.902  0.00  0.00    -0.495 OA
ATOM     35  C   UNL     1     -15.759  -2.471  10.606  0.00  0.00    +0.277 C 
ENDBRANCH  32  10
ENDBRANCH  12  24
ENDBRANCH   6  20
ENDBRANCH  16   6
TORSDOF 8
ENDMDL
MODEL 10
REMARK VINA RESULT:      -6.7     33.838     37.667
REMARK  Name = 11883369
REMARK  10 active torsions:
REMARK  status: ('A' for Active; 'I' for Inactive)
REMARK    1  A    between atoms: O_6  and  C_16
REMARK    2  A    between atoms: O_6  and  C_20
REMARK    3  A    between atoms: O_9  and  C_31
REMARK    4  A    between atoms: O_9  and  C_34
REMARK    5  A    between atoms: O_10  and  C_32
REMARK    6  A    between atoms: O_10  and  C_35
REMARK    7  A    between atoms: N_11  and  C_15
REMARK    8  A    between atoms: N_12  and  C_24
REMARK    9  A    between atoms: C_19  and  C_21
REMARK   10  A    between atoms: C_27  and  C_30
REMARK                            x       y       z     vdW  Elec       q    Type
REMARK                         _______ _______ _______ _____ _____    ______ ____
ROOT
ATOM      4  O   UNL     1      12.962   8.143   4.332  0.00  0.00    -0.368 OA
ATOM      5  O   UNL     1      12.457   8.350   7.350  0.00  0.00    -0.368 OA
ATOM     13  C   UNL     1      13.582   7.843   6.602  0.00  0.00    +0.173 C 
ATOM     14  C   UNL     1      13.017   7.155   5.375  0.00  0.00    +0.192 C 
ATOM     15  C   UNL     1      14.388   8.988   6.036  0.00  0.00    +0.130 C 
ATOM     16  C   UNL     1      11.638   6.748   5.835  0.00  0.00    +0.235 C 
ATOM     17  C   UNL     1      13.608   9.343   4.782  0.00  0.00    +0.185 C 
ATOM     18  C   UNL     1      11.245   7.903   6.726  0.00  0.00    +0.207 C 
ENDROOT
BRANCH  15  11
ATOM      7  O   UNL     1      16.801  10.463   6.535  0.00  0.00    -0.270 OA
ATOM     11  N   UNL     1      15.733   8.573   5.718  0.00  0.00    -0.304 N 
ATOM     19  C   UNL     1      16.842   9.359   5.998  0.00  0.00    +0.244 C 
ATOM     36  H   UNL     1      15.838   7.721   5.177  0.00  0.00    +0.149 HD
BRANCH  19  21
ATOM     21  C   UNL     1      18.156   8.801   5.584  0.00  0.00    +0.037 A 
ATOM     22  C   UNL     1      18.339   8.345   4.279  0.00  0.00    +0.013 A 
ATOM     23  C   UNL     1      19.206   8.733   6.500  0.00  0.00    +0.013 A 
ATOM     25  C   UNL     1      19.571   7.820   3.890  0.00  0.00    +0.013 A 
ATOM     26  C   UNL     1      20.438   8.208   6.111  0.00  0.00    +0.013 A 
ATOM     27  C   UNL     1      20.621   7.752   4.806  0.00  0.00    +0.055 A 
BRANCH  27  30
ATOM      1  F   UNL     1      22.976   7.582   5.188  0.00  0.00    -0.166 F 
ATOM      2  F   UNL     1      22.310   7.550   3.124  0.00  0.00    -0.166 F 
ATOM      3  F   UNL     1      21.958   5.827   4.403  0.00  0.00    -0.166 F 
ATOM     30  C   UNL     1      21.939   7.192   4.389  0.00  0.00    +0.417 C 
ENDBRANCH  27  30
ENDBRANCH  19  21
ENDBRANCH  15  11
BRANCH  16   6
ATOM      6  O   UNL     1      10.725   6.559   4.776  0.00  0.00    -0.442 OA
BRANCH   6  20
ATOM      8  O   UNL     1      10.565   4.340   4.248  0.00  0.00    -0.226 OA
ATOM     12  N   UNL     1      11.606   5.872   2.816  0.00  0.00    -0.251 N 
ATOM     20  C   UNL     1      10.937   5.470   3.957  0.00  0.00    +0.405 C 
ATOM     37  H   UNL     1      11.832   6.861   2.754  0.00  0.00    +0.158 HD
BRANCH  12  24
ATOM     24  C   UNL     1      12.017   5.078   1.723  0.00  0.00    +0.043 A 
ATOM     28  C   UNL     1      11.092   4.690   0.755  0.00  0.00    +0.069 A 
ATOM     29  C   UNL     1      13.351   4.680   1.611  0.00  0.00    +0.069 A 
ATOM     31  C   UNL     1      13.756   3.896   0.532  0.00  0.00    +0.125 A 
ATOM     32  C   UNL     1      11.497   3.905  -0.325  0.00  0.00    +0.125 A 
ATOM     33  C   UNL     1      12.830   3.507  -0.436  0.00  0.00    +0.091 A 
BRANCH  31   9
ATOM      9  O   UNL     1      15.056   3.507   0.424  0.00  0.00    -0.495 OA
ATOM     34  C   UNL     1      15.991   4.483  -0.033  0.00  0.00    +0.277 C 
ENDBRANCH  31   9
BRANCH  32  10
ATOM     10  O   UNL     1      10.593   3.524  -1.268  0.00  0.00    -0.495 OA
ATOM     35  C   UNL     1      11.111   2.988  -2.484  0.00  0.00    +0.277 C 
ENDBRANCH  32  10
ENDBRANCH  12  24
ENDBRANCH   6  20
ENDBRANCH  16   6
TORSDOF 8
ENDMDL
