MODEL 1
REMARK VINA RESULT:      -7.3      0.000      0.000
REMARK  Name = 40474972
REMARK  8 active torsions:
REMARK  status: ('A' for Active; 'I' for Inactive)
REMARK    1  A    between atoms: S_1  and  N_7
REMARK    2  A    between atoms: S_1  and  C_21
REMARK    3  A    between atoms: O_6  and  C_20
REMARK    4  A    between atoms: O_6  and  C_25
REMARK    5  A    between atoms: N_7  and  C_16
REMARK    6  A    between atoms: N_8  and  C_17
REMARK    7  A    between atoms: N_12  and  C_33
REMARK    8  A    between atoms: C_21  and  C_22
REMARK                            x       y       z     vdW  Elec       q    Type
REMARK                         _______ _______ _______ _____ _____    ______ ____
ROOT
ATOM      2  O   UNL     1      -4.970 -14.644  16.613  0.00  0.00    -0.370 OA
ATOM      3  O   UNL     1      -6.509 -12.199  15.418  0.00  0.00    -0.370 OA
ATOM     14  C   UNL     1      -5.160 -12.391  15.877  0.00  0.00    +0.170 C 
ATOM     15  C   UNL     1      -5.217 -13.307  17.083  0.00  0.00    +0.175 C 
ATOM     16  C   UNL     1      -4.368 -13.169  14.856  0.00  0.00    +0.133 C 
ATOM     17  C   UNL     1      -6.645 -13.190  17.587  0.00  0.00    +0.171 C 
ATOM     18  C   UNL     1      -4.694 -14.608  15.205  0.00  0.00    +0.183 C 
ATOM     19  C   UNL     1      -7.410 -12.881  16.304  0.00  0.00    +0.190 C 
ENDROOT
BRANCH  17   8
ATOM      8  N   UNL     1      -6.759 -12.146  18.684  0.00  0.00    -0.187 N 
ATOM      9  N   UNL     1      -5.685 -11.753  19.382  0.00  0.00    -0.041 NA
ATOM     10  N   UNL     1      -7.500 -10.670  20.089  0.00  0.00    -0.071 NA
ATOM     11  N   UNL     1      -6.144 -10.850  20.239  0.00  0.00    -0.020 NA
ATOM     20  C   UNL     1      -7.861 -11.482  19.122  0.00  0.00    +0.342 A 
BRANCH  20   6
ATOM      6  O   UNL     1      -9.079 -11.643  18.640  0.00  0.00    -0.423 OA
BRANCH   6  25
ATOM     25  C   UNL     1      -9.704 -10.569  17.986  0.00  0.00    +0.132 A 
ATOM     28  C   UNL     1     -11.073 -10.357  18.147  0.00  0.00    +0.048 A 
ATOM     29  C   UNL     1      -8.956  -9.715  17.175  0.00  0.00    +0.048 A 
ATOM     31  C   UNL     1     -11.694  -9.290  17.498  0.00  0.00    +0.030 A 
ATOM     32  C   UNL     1      -9.578  -8.649  16.526  0.00  0.00    +0.030 A 
ATOM     33  C   UNL     1     -10.947  -8.436  16.687  0.00  0.00    +0.048 A 
BRANCH  33  12
ATOM     12  N   UNL     1     -11.563  -7.377  16.045  0.00  0.00    -0.306 N 
ATOM     13  N   UNL     1     -11.805  -5.422  15.019  0.00  0.00    -0.244 NA
ATOM     34  C   UNL     1     -12.893  -7.270  15.752  0.00  0.00    +0.112 A 
ATOM     35  C   UNL     1     -10.949  -6.244  15.587  0.00  0.00    +0.204 A 
ATOM     36  C   UNL     1     -13.018  -6.056  15.119  0.00  0.00    +0.130 A 
ENDBRANCH  33  12
ENDBRANCH   6  25
ENDBRANCH  20   6
ENDBRANCH  17   8
BRANCH  16   7
ATOM      7  N   UNL     1      -2.919 -12.925  15.056  0.00  0.00    -0.186 NA
ATOM     37  H   UNL     1      -2.501 -13.361  15.888  0.00  0.00    +0.148 HD
BRANCH   7   1
ATOM      1  S   UNL     1      -2.238 -11.477  14.471  0.00  0.00    +0.034 S 
ATOM      4  O   UNL     1      -1.083 -11.116  15.267  0.00  0.00    -0.158 OA
ATOM      5  O   UNL     1      -3.313 -10.528  14.248  0.00  0.00    -0.158 OA
BRANCH   1  21
ATOM     21  C   UNL     1      -1.659 -12.007  12.875  0.00  0.00    +0.220 C 
BRANCH  21  22
ATOM     22  C   UNL     1      -2.375 -11.199  11.839  0.00  0.00    -0.025 A 
ATOM     23  C   UNL     1      -3.506 -11.717  11.208  0.00  0.00    +0.005 A 
ATOM     24  C   UNL     1      -1.912  -9.926  11.504  0.00  0.00    +0.005 A 
ATOM     26  C   UNL     1      -4.172 -10.963  10.241  0.00  0.00    +0.000 A 
ATOM     27  C   UNL     1      -2.578  -9.173  10.539  0.00  0.00    +0.000 A 
ATOM     30  C   UNL     1      -3.709  -9.691   9.907  0.00  0.00    +0.000 A 
ENDBRANCH  21  22
ENDBRANCH   1  21
ENDBRANCH   7   1
ENDBRANCH  16   7
TORSDOF 8
ENDMDL
MODEL 2
REMARK VINA RESULT:      -7.3      1.878      2.491
REMARK  Name = 40474972
REMARK  8 active torsions:
REMARK  status: ('A' for Active; 'I' for Inactive)
REMARK    1  A    between atoms: S_1  and  N_7
REMARK    2  A    between atoms: S_1  and  C_21
REMARK    3  A    between atoms: O_6  and  C_20
REMARK    4  A    between atoms: O_6  and  C_25
REMARK    5  A    between atoms: N_7  and  C_16
REMARK    6  A    between atoms: N_8  and  C_17
REMARK    7  A    between atoms: N_12  and  C_33
REMARK    8  A    between atoms: C_21  and  C_22
REMARK                            x       y       z     vdW  Elec       q    Type
REMARK                         _______ _______ _______ _____ _____    ______ ____
ROOT
ATOM      2  O   UNL     1      -3.964  -9.914  16.908  0.00  0.00    -0.370 OA
ATOM      3  O   UNL     1      -4.489 -12.792  18.009  0.00  0.00    -0.370 OA
ATOM     14  C   UNL     1      -4.859 -12.115  16.797  0.00  0.00    +0.170 C 
ATOM     15  C   UNL     1      -5.161 -10.673  17.157  0.00  0.00    +0.175 C 
ATOM     16  C   UNL     1      -3.674 -12.025  15.867  0.00  0.00    +0.133 C 
ATOM     17  C   UNL     1      -5.456 -10.704  18.646  0.00  0.00    +0.171 C 
ATOM     18  C   UNL     1      -2.963 -10.777  16.351  0.00  0.00    +0.183 C 
ATOM     19  C   UNL     1      -4.609 -11.883  19.114  0.00  0.00    +0.190 C 
ENDROOT
BRANCH  17   8
ATOM      8  N   UNL     1      -6.946 -10.823  18.912  0.00  0.00    -0.187 N 
ATOM      9  N   UNL     1      -7.421 -11.678  19.829  0.00  0.00    -0.041 NA
ATOM     10  N   UNL     1      -9.099 -10.573  18.864  0.00  0.00    -0.071 NA
ATOM     11  N   UNL     1      -8.738 -11.520  19.796  0.00  0.00    -0.020 NA
ATOM     20  C   UNL     1      -7.975 -10.155  18.328  0.00  0.00    +0.342 A 
BRANCH  20   6
ATOM      6  O   UNL     1      -7.843  -9.243  17.384  0.00  0.00    -0.423 OA
BRANCH   6  25
ATOM     25  C   UNL     1      -8.989  -8.761  16.732  0.00  0.00    +0.132 A 
ATOM     28  C   UNL     1      -9.757  -7.757  17.323  0.00  0.00    +0.048 A 
ATOM     29  C   UNL     1      -9.361  -9.286  15.495  0.00  0.00    +0.048 A 
ATOM     31  C   UNL     1     -10.895  -7.278  16.676  0.00  0.00    +0.030 A 
ATOM     32  C   UNL     1     -10.500  -8.807  14.848  0.00  0.00    +0.030 A 
ATOM     33  C   UNL     1     -11.268  -7.803  15.439  0.00  0.00    +0.048 A 
BRANCH  33  12
ATOM     12  N   UNL     1     -12.396  -7.326  14.797  0.00  0.00    -0.306 N 
ATOM     13  N   UNL     1     -13.774  -6.777  13.143  0.00  0.00    -0.244 NA
ATOM     34  C   UNL     1     -13.512  -6.811  15.394  0.00  0.00    +0.112 A 
ATOM     35  C   UNL     1     -12.599  -7.285  13.445  0.00  0.00    +0.204 A 
ATOM     36  C   UNL     1     -14.348  -6.479  14.354  0.00  0.00    +0.130 A 
ENDBRANCH  33  12
ENDBRANCH   6  25
ENDBRANCH  20   6
ENDBRANCH  17   8
BRANCH  16   7
ATOM      7  N   UNL     1      -4.145 -11.821  14.476  0.00  0.00    -0.186 NA
ATOM     37  H   UNL     1      -5.094 -12.159  14.269  0.00  0.00    +0.148 HD
BRANCH   7   1
ATOM      1  S   UNL     1      -3.002 -11.792  13.214  0.00  0.00    +0.034 S 
ATOM      4  O   UNL     1      -2.111 -12.929  13.326  0.00  0.00    -0.158 OA
ATOM      5  O   UNL     1      -2.476 -10.444  13.109  0.00  0.00    -0.158 OA
BRANCH   1  21
ATOM     21  C   UNL     1      -4.057 -12.059  11.808  0.00  0.00    +0.220 C 
BRANCH  21  22
ATOM     22  C   UNL     1      -4.359 -10.723  11.204  0.00  0.00    -0.025 A 
ATOM     23  C   UNL     1      -5.350  -9.914  11.759  0.00  0.00    +0.005 A 
ATOM     24  C   UNL     1      -3.648 -10.286  10.086  0.00  0.00    +0.005 A 
ATOM     26  C   UNL     1      -5.632  -8.669  11.196  0.00  0.00    +0.000 A 
ATOM     27  C   UNL     1      -3.930  -9.042   9.522  0.00  0.00    +0.000 A 
ATOM     30  C   UNL     1      -4.922  -8.233  10.078  0.00  0.00    +0.000 A 
ENDBRANCH  21  22
ENDBRANCH   1  21
ENDBRANCH   7   1
ENDBRANCH  16   7
TORSDOF 8
ENDMDL
MODEL 3
REMARK VINA RESULT:      -7.0      3.022      8.427
REMARK  Name = 40474972
REMARK  8 active torsions:
REMARK  status: ('A' for Active; 'I' for Inactive)
REMARK    1  A    between atoms: S_1  and  N_7
REMARK    2  A    between atoms: S_1  and  C_21
REMARK    3  A    between atoms: O_6  and  C_20
REMARK    4  A    between atoms: O_6  and  C_25
REMARK    5  A    between atoms: N_7  and  C_16
REMARK    6  A    between atoms: N_8  and  C_17
REMARK    7  A    between atoms: N_12  and  C_33
REMARK    8  A    between atoms: C_21  and  C_22
REMARK                            x       y       z     vdW  Elec       q    Type
REMARK                         _______ _______ _______ _____ _____    ______ ____
ROOT
ATOM      2  O   UNL     1      -9.006 -10.881  15.508  0.00  0.00    -0.370 OA
ATOM      3  O   UNL     1     -10.399 -11.221  18.285  0.00  0.00    -0.370 OA
ATOM     14  C   UNL     1      -9.855 -10.091  17.584  0.00  0.00    +0.170 C 
ATOM     15  C   UNL     1      -8.612 -10.565  16.855  0.00  0.00    +0.175 C 
ATOM     16  C   UNL     1     -10.791  -9.661  16.482  0.00  0.00    +0.133 C 
ATOM     17  C   UNL     1      -8.199 -11.830  17.586  0.00  0.00    +0.171 C 
ATOM     18  C   UNL     1     -10.395 -10.567  15.333  0.00  0.00    +0.183 C 
ATOM     19  C   UNL     1      -9.537 -12.353  18.098  0.00  0.00    +0.190 C 
ENDROOT
BRANCH  17   8
ATOM      8  N   UNL     1      -7.160 -11.537  18.653  0.00  0.00    -0.187 N 
ATOM      9  N   UNL     1      -7.438 -10.734  19.690  0.00  0.00    -0.041 NA
ATOM     10  N   UNL     1      -5.343 -11.481  19.835  0.00  0.00    -0.071 NA
ATOM     11  N   UNL     1      -6.324 -10.704  20.409  0.00  0.00    -0.020 NA
ATOM     20  C   UNL     1      -5.881 -11.987  18.750  0.00  0.00    +0.342 A 
BRANCH  20   6
ATOM      6  O   UNL     1      -5.300 -12.797  17.884  0.00  0.00    -0.423 OA
BRANCH   6  25
ATOM     25  C   UNL     1      -4.782 -12.267  16.692  0.00  0.00    +0.132 A 
ATOM     28  C   UNL     1      -3.773 -11.305  16.738  0.00  0.00    +0.048 A 
ATOM     29  C   UNL     1      -5.276 -12.702  15.462  0.00  0.00    +0.048 A 
ATOM     31  C   UNL     1      -3.258 -10.778  15.554  0.00  0.00    +0.030 A 
ATOM     32  C   UNL     1      -4.760 -12.174  14.279  0.00  0.00    +0.030 A 
ATOM     33  C   UNL     1      -3.751 -11.212  14.325  0.00  0.00    +0.048 A 
BRANCH  33  12
ATOM     12  N   UNL     1      -3.239 -10.691  13.150  0.00  0.00    -0.306 N 
ATOM     13  N   UNL     1      -3.184  -9.862  11.090  0.00  0.00    -0.244 NA
ATOM     34  C   UNL     1      -1.922 -10.448  12.879  0.00  0.00    +0.112 A 
ATOM     35  C   UNL     1      -3.959 -10.324  12.047  0.00  0.00    +0.204 A 
ATOM     36  C   UNL     1      -1.913  -9.937  11.602  0.00  0.00    +0.130 A 
ENDBRANCH  33  12
ENDBRANCH   6  25
ENDBRANCH  20   6
ENDBRANCH  17   8
BRANCH  16   7
ATOM      7  N   UNL     1     -10.517  -8.249  16.118  0.00  0.00    -0.186 NA
ATOM     37  H   UNL     1      -9.629  -7.861  16.461  0.00  0.00    +0.148 HD
BRANCH   7   1
ATOM      1  S   UNL     1     -11.830  -7.189  15.885  0.00  0.00    +0.034 S 
ATOM      4  O   UNL     1     -11.445  -5.838  16.241  0.00  0.00    -0.158 OA
ATOM      5  O   UNL     1     -13.014  -7.799  16.459  0.00  0.00    -0.158 OA
BRANCH   1  21
ATOM     21  C   UNL     1     -12.001  -7.260  14.117  0.00  0.00    +0.220 C 
BRANCH  21  22
ATOM     22  C   UNL     1     -12.783  -6.058  13.685  0.00  0.00    -0.025 A 
ATOM     23  C   UNL     1     -14.167  -6.030  13.848  0.00  0.00    +0.005 A 
ATOM     24  C   UNL     1     -12.125  -4.964  13.122  0.00  0.00    +0.005 A 
ATOM     26  C   UNL     1     -14.895  -4.910  13.445  0.00  0.00    +0.000 A 
ATOM     27  C   UNL     1     -12.852  -3.845  12.719  0.00  0.00    +0.000 A 
ATOM     30  C   UNL     1     -14.237  -3.817  12.881  0.00  0.00    +0.000 A 
ENDBRANCH  21  22
ENDBRANCH   1  21
ENDBRANCH   7   1
ENDBRANCH  16   7
TORSDOF 8
ENDMDL
MODEL 4
REMARK VINA RESULT:      -6.9     26.160     29.601
REMARK  Name = 40474972
REMARK  8 active torsions:
REMARK  status: ('A' for Active; 'I' for Inactive)
REMARK    1  A    between atoms: S_1  and  N_7
REMARK    2  A    between atoms: S_1  and  C_21
REMARK    3  A    between atoms: O_6  and  C_20
REMARK    4  A    between atoms: O_6  and  C_25
REMARK    5  A    between atoms: N_7  and  C_16
REMARK    6  A    between atoms: N_8  and  C_17
REMARK    7  A    between atoms: N_12  and  C_33
REMARK    8  A    between atoms: C_21  and  C_22
REMARK                            x       y       z     vdW  Elec       q    Type
REMARK                         _______ _______ _______ _____ _____    ______ ____
ROOT
ATOM      2  O   UNL     1      11.597  10.329   4.085  0.00  0.00    -0.370 OA
ATOM      3  O   UNL     1      12.271  10.342   7.138  0.00  0.00    -0.370 OA
ATOM     14  C   UNL     1      12.514   9.405   6.076  0.00  0.00    +0.170 C 
ATOM     15  C   UNL     1      11.301   9.426   5.166  0.00  0.00    +0.175 C 
ATOM     16  C   UNL     1      13.643   9.891   5.201  0.00  0.00    +0.133 C 
ATOM     17  C   UNL     1      10.186   9.993   6.027  0.00  0.00    +0.171 C 
ATOM     18  C   UNL     1      12.939  10.815   4.227  0.00  0.00    +0.183 C 
ATOM     19  C   UNL     1      10.954  10.895   6.988  0.00  0.00    +0.190 C 
ENDROOT
BRANCH  17   8
ATOM      8  N   UNL     1       9.372   8.888   6.675  0.00  0.00    -0.187 N 
ATOM      9  N   UNL     1       9.425   8.672   7.998  0.00  0.00    -0.041 NA
ATOM     10  N   UNL     1       8.035   7.220   7.036  0.00  0.00    -0.071 NA
ATOM     11  N   UNL     1       8.605   7.652   8.212  0.00  0.00    -0.020 NA
ATOM     20  C   UNL     1       8.524   7.998   6.098  0.00  0.00    +0.342 A 
BRANCH  20   6
ATOM      6  O   UNL     1       8.252   7.944   4.807  0.00  0.00    -0.423 OA
BRANCH   6  25
ATOM     25  C   UNL     1       9.032   7.123   3.977  0.00  0.00    +0.132 A 
ATOM     28  C   UNL     1       9.608   5.961   4.490  0.00  0.00    +0.048 A 
ATOM     29  C   UNL     1       9.231   7.469   2.641  0.00  0.00    +0.048 A 
ATOM     31  C   UNL     1      10.383   5.145   3.666  0.00  0.00    +0.030 A 
ATOM     32  C   UNL     1      10.005   6.652   1.817  0.00  0.00    +0.030 A 
ATOM     33  C   UNL     1      10.582   5.490   2.330  0.00  0.00    +0.048 A 
BRANCH  33  12
ATOM     12  N   UNL     1      11.348   4.680   1.512  0.00  0.00    -0.306 N 
ATOM     13  N   UNL     1      12.907   3.221   0.898  0.00  0.00    -0.244 NA
ATOM     34  C   UNL     1      11.221   4.542   0.158  0.00  0.00    +0.112 A 
ATOM     35  C   UNL     1      12.374   3.868   1.912  0.00  0.00    +0.204 A 
ATOM     36  C   UNL     1      12.193   3.637  -0.197  0.00  0.00    +0.130 A 
ENDBRANCH  33  12
ENDBRANCH   6  25
ENDBRANCH  20   6
ENDBRANCH  17   8
BRANCH  16   7
ATOM      7  N   UNL     1      14.230   8.746   4.463  0.00  0.00    -0.186 NA
ATOM     37  H   UNL     1      13.569   8.175   3.920  0.00  0.00    +0.148 HD
BRANCH   7   1
ATOM      1  S   UNL     1      15.630   7.997   5.080  0.00  0.00    +0.034 S 
ATOM      4  O   UNL     1      15.937   6.809   4.310  0.00  0.00    -0.158 OA
ATOM      5  O   UNL     1      15.512   7.936   6.525  0.00  0.00    -0.158 OA
BRANCH   1  21
ATOM     21  C   UNL     1      16.856   9.228   4.700  0.00  0.00    +0.220 C 
BRANCH  21  22
ATOM     22  C   UNL     1      18.193   8.672   5.082  0.00  0.00    -0.025 A 
ATOM     23  C   UNL     1      18.691   8.873   6.369  0.00  0.00    +0.005 A 
ATOM     24  C   UNL     1      18.941   7.951   4.150  0.00  0.00    +0.005 A 
ATOM     26  C   UNL     1      19.937   8.356   6.723  0.00  0.00    +0.000 A 
ATOM     27  C   UNL     1      20.186   7.434   4.504  0.00  0.00    +0.000 A 
ATOM     30  C   UNL     1      20.684   7.636   5.792  0.00  0.00    +0.000 A 
ENDBRANCH  21  22
ENDBRANCH   1  21
ENDBRANCH   7   1
ENDBRANCH  16   7
TORSDOF 8
ENDMDL
MODEL 5
REMARK VINA RESULT:      -6.9      2.860      8.453
REMARK  Name = 40474972
REMARK  8 active torsions:
REMARK  status: ('A' for Active; 'I' for Inactive)
REMARK    1  A    between atoms: S_1  and  N_7
REMARK    2  A    between atoms: S_1  and  C_21
REMARK    3  A    between atoms: O_6  and  C_20
REMARK    4  A    between atoms: O_6  and  C_25
REMARK    5  A    between atoms: N_7  and  C_16
REMARK    6  A    between atoms: N_8  and  C_17
REMARK    7  A    between atoms: N_12  and  C_33
REMARK    8  A    between atoms: C_21  and  C_22
REMARK                            x       y       z     vdW  Elec       q    Type
REMARK                         _______ _______ _______ _____ _____    ______ ____
ROOT
ATOM      2  O   UNL     1      -6.468 -11.892  14.245  0.00  0.00    -0.370 OA
ATOM      3  O   UNL     1      -5.503 -12.742  17.094  0.00  0.00    -0.370 OA
ATOM     14  C   UNL     1      -5.938 -11.494  16.529  0.00  0.00    +0.170 C 
ATOM     15  C   UNL     1      -5.412 -11.433  15.108  0.00  0.00    +0.175 C 
ATOM     16  C   UNL     1      -7.438 -11.487  16.371  0.00  0.00    +0.133 C 
ATOM     17  C   UNL     1      -4.256 -12.417  15.083  0.00  0.00    +0.171 C 
ATOM     18  C   UNL     1      -7.637 -12.167  15.030  0.00  0.00    +0.183 C 
ATOM     19  C   UNL     1      -4.681 -13.431  16.141  0.00  0.00    +0.190 C 
ENDROOT
BRANCH  17   8
ATOM      8  N   UNL     1      -2.932 -11.720  15.340  0.00  0.00    -0.187 N 
ATOM      9  N   UNL     1      -2.747 -10.961  16.429  0.00  0.00    -0.041 NA
ATOM     10  N   UNL     1      -0.896 -10.992  15.189  0.00  0.00    -0.071 NA
ATOM     11  N   UNL     1      -1.500 -10.519  16.332  0.00  0.00    -0.020 NA
ATOM     20  C   UNL     1      -1.799 -11.732  14.590  0.00  0.00    +0.342 A 
BRANCH  20   6
ATOM      6  O   UNL     1      -1.655 -12.387  13.453  0.00  0.00    -0.423 OA
BRANCH   6  25
ATOM     25  C   UNL     1      -2.381 -11.969  12.325  0.00  0.00    +0.132 A 
ATOM     28  C   UNL     1      -3.201 -12.873  11.650  0.00  0.00    +0.048 A 
ATOM     29  C   UNL     1      -2.281 -10.651  11.881  0.00  0.00    +0.048 A 
ATOM     31  C   UNL     1      -3.922 -12.459  10.531  0.00  0.00    +0.030 A 
ATOM     32  C   UNL     1      -3.003 -10.238  10.761  0.00  0.00    +0.030 A 
ATOM     33  C   UNL     1      -3.823 -11.142  10.086  0.00  0.00    +0.048 A 
BRANCH  33  12
ATOM     12  N   UNL     1      -4.540 -10.730   8.977  0.00  0.00    -0.306 N 
ATOM     13  N   UNL     1      -5.930  -9.535   7.723  0.00  0.00    -0.244 NA
ATOM     34  C   UNL     1      -4.516 -11.306   7.738  0.00  0.00    +0.112 A 
ATOM     35  C   UNL     1      -5.403  -9.671   8.920  0.00  0.00    +0.204 A 
ATOM     36  C   UNL     1      -5.381 -10.551   6.982  0.00  0.00    +0.130 A 
ENDBRANCH  33  12
ENDBRANCH   6  25
ENDBRANCH  20   6
ENDBRANCH  17   8
BRANCH  16   7
ATOM      7  N   UNL     1      -7.926 -10.089  16.296  0.00  0.00    -0.186 NA
ATOM     37  H   UNL     1      -7.373  -9.393  16.813  0.00  0.00    +0.148 HD
BRANCH   7   1
ATOM      1  S   UNL     1      -9.592  -9.807  16.085  0.00  0.00    +0.034 S 
ATOM      4  O   UNL     1     -10.359 -10.833  16.763  0.00  0.00    -0.158 OA
ATOM      5  O   UNL     1      -9.828  -9.508  14.685  0.00  0.00    -0.158 OA
BRANCH   1  21
ATOM     21  C   UNL     1      -9.787  -8.290  16.991  0.00  0.00    +0.220 C 
BRANCH  21  22
ATOM     22  C   UNL     1     -10.951  -7.554  16.403  0.00  0.00    -0.025 A 
ATOM     23  C   UNL     1     -12.247  -8.038  16.586  0.00  0.00    +0.005 A 
ATOM     24  C   UNL     1     -10.741  -6.383  15.674  0.00  0.00    +0.005 A 
ATOM     26  C   UNL     1     -13.331  -7.352  16.037  0.00  0.00    +0.000 A 
ATOM     27  C   UNL     1     -11.824  -5.698  15.126  0.00  0.00    +0.000 A 
ATOM     30  C   UNL     1     -13.120  -6.182  15.308  0.00  0.00    +0.000 A 
ENDBRANCH  21  22
ENDBRANCH   1  21
ENDBRANCH   7   1
ENDBRANCH  16   7
TORSDOF 8
ENDMDL
MODEL 6
REMARK VINA RESULT:      -6.9     24.547     28.933
REMARK  Name = 40474972
REMARK  8 active torsions:
REMARK  status: ('A' for Active; 'I' for Inactive)
REMARK    1  A    between atoms: S_1  and  N_7
REMARK    2  A    between atoms: S_1  and  C_21
REMARK    3  A    between atoms: O_6  and  C_20
REMARK    4  A    between atoms: O_6  and  C_25
REMARK    5  A    between atoms: N_7  and  C_16
REMARK    6  A    between atoms: N_8  and  C_17
REMARK    7  A    between atoms: N_12  and  C_33
REMARK    8  A    between atoms: C_21  and  C_22
REMARK                            x       y       z     vdW  Elec       q    Type
REMARK                         _______ _______ _______ _____ _____    ______ ____
ROOT
ATOM      2  O   UNL     1      13.479   8.372   1.596  0.00  0.00    -0.370 OA
ATOM      3  O   UNL     1      16.346   7.853   2.730  0.00  0.00    -0.370 OA
ATOM     14  C   UNL     1      15.061   7.261   2.982  0.00  0.00    +0.170 C 
ATOM     15  C   UNL     1      14.031   8.372   2.925  0.00  0.00    +0.175 C 
ATOM     16  C   UNL     1      14.679   6.342   1.848  0.00  0.00    +0.133 C 
ATOM     17  C   UNL     1      14.826   9.644   3.158  0.00  0.00    +0.171 C 
ATOM     18  C   UNL     1      14.049   7.289   0.847  0.00  0.00    +0.183 C 
ATOM     19  C   UNL     1      16.192   9.273   2.590  0.00  0.00    +0.190 C 
ENDROOT
BRANCH  17   8
ATOM      8  N   UNL     1      14.813  10.043   4.623  0.00  0.00    -0.187 N 
ATOM      9  N   UNL     1      15.926  10.477   5.233  0.00  0.00    -0.041 NA
ATOM     10  N   UNL     1      14.218  10.461   6.665  0.00  0.00    -0.071 NA
ATOM     11  N   UNL     1      15.555  10.731   6.481  0.00  0.00    -0.020 NA
ATOM     20  C   UNL     1      13.779  10.036   5.503  0.00  0.00    +0.342 A 
BRANCH  20   6
ATOM      6  O   UNL     1      12.546   9.660   5.215  0.00  0.00    -0.423 OA
BRANCH   6  25
ATOM     25  C   UNL     1      11.943   8.647   5.978  0.00  0.00    +0.132 A 
ATOM     28  C   UNL     1      10.652   8.825   6.475  0.00  0.00    +0.048 A 
ATOM     29  C   UNL     1      12.635   7.465   6.239  0.00  0.00    +0.048 A 
ATOM     31  C   UNL     1      10.053   7.820   7.232  0.00  0.00    +0.030 A 
ATOM     32  C   UNL     1      12.034   6.460   6.997  0.00  0.00    +0.030 A 
ATOM     33  C   UNL     1      10.743   6.637   7.494  0.00  0.00    +0.048 A 
BRANCH  33  12
ATOM     12  N   UNL     1      10.148   5.639   8.244  0.00  0.00    -0.306 N 
ATOM     13  N   UNL     1       9.338   3.641   8.781  0.00  0.00    -0.244 NA
ATOM     34  C   UNL     1       9.678   5.756   9.522  0.00  0.00    +0.112 A 
ATOM     35  C   UNL     1       9.922   4.352   7.841  0.00  0.00    +0.204 A 
ATOM     36  C   UNL     1       9.184   4.511   9.832  0.00  0.00    +0.130 A 
ENDBRANCH  33  12
ENDBRANCH   6  25
ENDBRANCH  20   6
ENDBRANCH  17   8
BRANCH  16   7
ATOM      7  N   UNL     1      13.665   5.366   2.316  0.00  0.00    -0.186 NA
ATOM     37  H   UNL     1      13.463   5.378   3.324  0.00  0.00    +0.148 HD
BRANCH   7   1
ATOM      1  S   UNL     1      13.476   3.901   1.468  0.00  0.00    +0.034 S 
ATOM      4  O   UNL     1      14.513   2.966   1.857  0.00  0.00    -0.158 OA
ATOM      5  O   UNL     1      13.245   4.212   0.070  0.00  0.00    -0.158 OA
BRANCH   1  21
ATOM     21  C   UNL     1      11.937   3.324   2.145  0.00  0.00    +0.220 C 
BRANCH  21  22
ATOM     22  C   UNL     1      11.103   4.525   2.471  0.00  0.00    -0.025 A 
ATOM     23  C   UNL     1      10.713   5.399   1.457  0.00  0.00    +0.005 A 
ATOM     24  C   UNL     1      10.716   4.769   3.789  0.00  0.00    +0.005 A 
ATOM     26  C   UNL     1       9.937   6.518   1.761  0.00  0.00    +0.000 A 
ATOM     27  C   UNL     1       9.941   5.887   4.093  0.00  0.00    +0.000 A 
ATOM     30  C   UNL     1       9.551   6.762   3.078  0.00  0.00    +0.000 A 
ENDBRANCH  21  22
ENDBRANCH   1  21
ENDBRANCH   7   1
ENDBRANCH  16   7
TORSDOF 8
ENDMDL
MODEL 7
REMARK VINA RESULT:      -6.9     25.981     30.129
REMARK  Name = 40474972
REMARK  8 active torsions:
REMARK  status: ('A' for Active; 'I' for Inactive)
REMARK    1  A    between atoms: S_1  and  N_7
REMARK    2  A    between atoms: S_1  and  C_21
REMARK    3  A    between atoms: O_6  and  C_20
REMARK    4  A    between atoms: O_6  and  C_25
REMARK    5  A    between atoms: N_7  and  C_16
REMARK    6  A    between atoms: N_8  and  C_17
REMARK    7  A    between atoms: N_12  and  C_33
REMARK    8  A    between atoms: C_21  and  C_22
REMARK                            x       y       z     vdW  Elec       q    Type
REMARK                         _______ _______ _______ _____ _____    ______ ____
ROOT
ATOM      2  O   UNL     1      13.658   8.430   4.248  0.00  0.00    -0.370 OA
ATOM      3  O   UNL     1      13.101   9.481   7.139  0.00  0.00    -0.370 OA
ATOM     14  C   UNL     1      14.014   8.512   6.598  0.00  0.00    +0.170 C 
ATOM     15  C   UNL     1      13.294   7.784   5.481  0.00  0.00    +0.175 C 
ATOM     16  C   UNL     1      15.162   9.208   5.908  0.00  0.00    +0.133 C 
ATOM     17  C   UNL     1      11.819   8.005   5.768  0.00  0.00    +0.171 C 
ATOM     18  C   UNL     1      14.611   9.467   4.520  0.00  0.00    +0.183 C 
ATOM     19  C   UNL     1      11.833   9.354   6.478  0.00  0.00    +0.190 C 
ENDROOT
BRANCH  17   8
ATOM      8  N   UNL     1      11.232   6.853   6.563  0.00  0.00    -0.187 N 
ATOM      9  N   UNL     1      11.744   6.498   7.751  0.00  0.00    -0.041 NA
ATOM     10  N   UNL     1      10.023   5.181   7.230  0.00  0.00    -0.071 NA
ATOM     11  N   UNL     1      11.000   5.476   8.154  0.00  0.00    -0.020 NA
ATOM     20  C   UNL     1      10.185   6.044   6.254  0.00  0.00    +0.342 A 
BRANCH  20   6
ATOM      6  O   UNL     1       9.465   6.132   5.151  0.00  0.00    -0.423 OA
BRANCH   6  25
ATOM     25  C   UNL     1       9.997   5.643   3.946  0.00  0.00    +0.132 A 
ATOM     28  C   UNL     1      10.647   4.409   3.922  0.00  0.00    +0.048 A 
ATOM     29  C   UNL     1       9.875   6.391   2.775  0.00  0.00    +0.048 A 
ATOM     31  C   UNL     1      11.174   3.924   2.726  0.00  0.00    +0.030 A 
ATOM     32  C   UNL     1      10.403   5.904   1.580  0.00  0.00    +0.030 A 
ATOM     33  C   UNL     1      11.053   4.670   1.555  0.00  0.00    +0.048 A 
BRANCH  33  12
ATOM     12  N   UNL     1      11.575   4.187   0.369  0.00  0.00    -0.306 N 
ATOM     13  N   UNL     1      12.967   3.170  -1.031  0.00  0.00    -0.244 NA
ATOM     34  C   UNL     1      11.018   4.315  -0.873  0.00  0.00    +0.112 A 
ATOM     35  C   UNL     1      12.744   3.493   0.224  0.00  0.00    +0.204 A 
ATOM     36  C   UNL     1      11.894   3.679  -1.720  0.00  0.00    +0.130 A 
ENDBRANCH  33  12
ENDBRANCH   6  25
ENDBRANCH  20   6
ENDBRANCH  17   8
BRANCH  16   7
ATOM      7  N   UNL     1      16.322   8.287   5.819  0.00  0.00    -0.186 NA
ATOM     37  H   UNL     1      16.180   7.347   6.210  0.00  0.00    +0.148 HD
BRANCH   7   1
ATOM      1  S   UNL     1      17.895   8.939   5.827  0.00  0.00    +0.034 S 
ATOM      4  O   UNL     1      18.685   8.315   6.870  0.00  0.00    -0.158 OA
ATOM      5  O   UNL     1      17.788  10.383   5.740  0.00  0.00    -0.158 OA
BRANCH   1  21
ATOM     21  C   UNL     1      18.501   8.357   4.260  0.00  0.00    +0.220 C 
BRANCH  21  22
ATOM     22  C   UNL     1      19.981   8.170   4.384  0.00  0.00    -0.025 A 
ATOM     23  C   UNL     1      20.823   9.280   4.438  0.00  0.00    +0.005 A 
ATOM     24  C   UNL     1      20.519   6.884   4.448  0.00  0.00    +0.005 A 
ATOM     26  C   UNL     1      22.202   9.105   4.554  0.00  0.00    +0.000 A 
ATOM     27  C   UNL     1      21.897   6.709   4.563  0.00  0.00    +0.000 A 
ATOM     30  C   UNL     1      22.739   7.820   4.616  0.00  0.00    +0.000 A 
ENDBRANCH  21  22
ENDBRANCH   1  21
ENDBRANCH   7   1
ENDBRANCH  16   7
TORSDOF 8
ENDMDL
MODEL 8
REMARK VINA RESULT:      -6.8     25.745     29.384
REMARK  Name = 40474972
REMARK  8 active torsions:
REMARK  status: ('A' for Active; 'I' for Inactive)
REMARK    1  A    between atoms: S_1  and  N_7
REMARK    2  A    between atoms: S_1  and  C_21
REMARK    3  A    between atoms: O_6  and  C_20
REMARK    4  A    between atoms: O_6  and  C_25
REMARK    5  A    between atoms: N_7  and  C_16
REMARK    6  A    between atoms: N_8  and  C_17
REMARK    7  A    between atoms: N_12  and  C_33
REMARK    8  A    between atoms: C_21  and  C_22
REMARK                            x       y       z     vdW  Elec       q    Type
REMARK                         _______ _______ _______ _____ _____    ______ ____
ROOT
ATOM      2  O   UNL     1      13.090   6.608   6.130  0.00  0.00    -0.370 OA
ATOM      3  O   UNL     1      14.440   9.405   5.771  0.00  0.00    -0.370 OA
ATOM     14  C   UNL     1      13.202   8.838   5.311  0.00  0.00    +0.170 C 
ATOM     15  C   UNL     1      13.466   7.382   4.978  0.00  0.00    +0.175 C 
ATOM     16  C   UNL     1      12.201   8.785   6.439  0.00  0.00    +0.133 C 
ATOM     17  C   UNL     1      14.967   7.304   4.766  0.00  0.00    +0.171 C 
ATOM     18  C   UNL     1      12.544   7.481   7.130  0.00  0.00    +0.183 C 
ATOM     19  C   UNL     1      15.475   8.415   5.680  0.00  0.00    +0.190 C 
ENDROOT
BRANCH  17   8
ATOM      8  N   UNL     1      15.327   7.448   3.298  0.00  0.00    -0.187 N 
ATOM      9  N   UNL     1      15.961   8.539   2.844  0.00  0.00    -0.041 NA
ATOM     10  N   UNL     1      15.578   7.117   1.170  0.00  0.00    -0.071 NA
ATOM     11  N   UNL     1      16.112   8.330   1.542  0.00  0.00    -0.020 NA
ATOM     20  C   UNL     1      15.097   6.588   2.272  0.00  0.00    +0.342 A 
BRANCH  20   6
ATOM      6  O   UNL     1      14.490   5.422   2.388  0.00  0.00    -0.423 OA
BRANCH   6  25
ATOM     25  C   UNL     1      13.658   4.977   1.347  0.00  0.00    +0.132 A 
ATOM     28  C   UNL     1      14.050   3.897   0.556  0.00  0.00    +0.048 A 
ATOM     29  C   UNL     1      12.442   5.615   1.105  0.00  0.00    +0.048 A 
ATOM     31  C   UNL     1      13.224   3.454  -0.476  0.00  0.00    +0.030 A 
ATOM     32  C   UNL     1      11.617   5.172   0.071  0.00  0.00    +0.030 A 
ATOM     33  C   UNL     1      12.009   4.092  -0.720  0.00  0.00    +0.048 A 
BRANCH  33  12
ATOM     12  N   UNL     1      11.189   3.652  -1.743  0.00  0.00    -0.306 N 
ATOM     13  N   UNL     1       9.544   3.646  -3.236  0.00  0.00    -0.244 NA
ATOM     34  C   UNL     1      11.293   2.464  -2.411  0.00  0.00    +0.112 A 
ATOM     35  C   UNL     1      10.124   4.327  -2.273  0.00  0.00    +0.204 A 
ATOM     36  C   UNL     1      10.268   2.483  -3.327  0.00  0.00    +0.130 A 
ENDBRANCH  33  12
ENDBRANCH   6  25
ENDBRANCH  20   6
ENDBRANCH  17   8
BRANCH  16   7
ATOM      7  N   UNL     1      10.828   8.707   5.884  0.00  0.00    -0.186 NA
ATOM     37  H   UNL     1      10.760   8.655   4.859  0.00  0.00    +0.148 HD
BRANCH   7   1
ATOM      1  S   UNL     1       9.548   9.430   6.745  0.00  0.00    +0.034 S 
ATOM      4  O   UNL     1       9.092  10.618   6.052  0.00  0.00    -0.158 OA
ATOM      5  O   UNL     1       9.919   9.485   8.147  0.00  0.00    -0.158 OA
BRANCH   1  21
ATOM     21  C   UNL     1       8.293   8.182   6.577  0.00  0.00    +0.220 C 
BRANCH  21  22
ATOM     22  C   UNL     1       8.875   6.883   7.043  0.00  0.00    -0.025 A 
ATOM     23  C   UNL     1       9.043   6.642   8.406  0.00  0.00    +0.005 A 
ATOM     24  C   UNL     1       9.249   5.913   6.112  0.00  0.00    +0.005 A 
ATOM     26  C   UNL     1       9.586   5.433   8.839  0.00  0.00    +0.000 A 
ATOM     27  C   UNL     1       9.792   4.704   6.545  0.00  0.00    +0.000 A 
ATOM     30  C   UNL     1       9.961   4.464   7.909  0.00  0.00    +0.000 A 
ENDBRANCH  21  22
ENDBRANCH   1  21
ENDBRANCH   7   1
ENDBRANCH  16   7
TORSDOF 8
ENDMDL
MODEL 9
REMARK VINA RESULT:      -6.8     29.348     32.186
REMARK  Name = 40474972
REMARK  8 active torsions:
REMARK  status: ('A' for Active; 'I' for Inactive)
REMARK    1  A    between atoms: S_1  and  N_7
REMARK    2  A    between atoms: S_1  and  C_21
REMARK    3  A    between atoms: O_6  and  C_20
REMARK    4  A    between atoms: O_6  and  C_25
REMARK    5  A    between atoms: N_7  and  C_16
REMARK    6  A    between atoms: N_8  and  C_17
REMARK    7  A    between atoms: N_12  and  C_33
REMARK    8  A    between atoms: C_21  and  C_22
REMARK                            x       y       z     vdW  Elec       q    Type
REMARK                         _______ _______ _______ _____ _____    ______ ____
ROOT
ATOM      2  O   UNL     1      21.075   4.524  21.122  0.00  0.00    -0.370 OA
ATOM      3  O   UNL     1      23.244   6.728  21.586  0.00  0.00    -0.370 OA
ATOM     14  C   UNL     1      22.362   6.008  22.464  0.00  0.00    +0.170 C 
ATOM     15  C   UNL     1      21.045   5.826  21.733  0.00  0.00    +0.175 C 
ATOM     16  C   UNL     1      22.868   4.602  22.673  0.00  0.00    +0.133 C 
ATOM     17  C   UNL     1      21.048   6.903  20.663  0.00  0.00    +0.171 C 
ATOM     18  C   UNL     1      22.294   3.859  21.483  0.00  0.00    +0.183 C 
ATOM     19  C   UNL     1      22.538   7.068  20.383  0.00  0.00    +0.190 C 
ENDROOT
BRANCH  17   8
ATOM      8  N   UNL     1      20.329   8.154  21.136  0.00  0.00    -0.187 N 
ATOM      9  N   UNL     1      20.960   9.335  21.198  0.00  0.00    -0.041 NA
ATOM     10  N   UNL     1      18.845   9.556  21.866  0.00  0.00    -0.071 NA
ATOM     11  N   UNL     1      20.048  10.188  21.644  0.00  0.00    -0.020 NA
ATOM     20  C   UNL     1      19.042   8.298  21.546  0.00  0.00    +0.342 A 
BRANCH  20   6
ATOM      6  O   UNL     1      18.156   7.321  21.604  0.00  0.00    -0.423 OA
BRANCH   6  25
ATOM     25  C   UNL     1      16.916   7.483  20.964  0.00  0.00    +0.132 A 
ATOM     28  C   UNL     1      16.644   6.786  19.787  0.00  0.00    +0.048 A 
ATOM     29  C   UNL     1      15.959   8.340  21.505  0.00  0.00    +0.048 A 
ATOM     31  C   UNL     1      15.414   6.946  19.151  0.00  0.00    +0.030 A 
ATOM     32  C   UNL     1      14.728   8.500  20.868  0.00  0.00    +0.030 A 
ATOM     33  C   UNL     1      14.456   7.803  19.690  0.00  0.00    +0.048 A 
BRANCH  33  12
ATOM     12  N   UNL     1      13.234   7.961  19.061  0.00  0.00    -0.306 N 
ATOM     13  N   UNL     1      11.642   7.756  17.525  0.00  0.00    -0.244 NA
ATOM     34  C   UNL     1      12.169   8.678  19.527  0.00  0.00    +0.112 A 
ATOM     35  C   UNL     1      12.872   7.425  17.856  0.00  0.00    +0.204 A 
ATOM     36  C   UNL     1      11.199   8.537  18.563  0.00  0.00    +0.130 A 
ENDBRANCH  33  12
ENDBRANCH   6  25
ENDBRANCH  20   6
ENDBRANCH  17   8
BRANCH  16   7
ATOM      7  N   UNL     1      22.299   4.048  23.926  0.00  0.00    -0.186 NA
ATOM     37  H   UNL     1      21.525   4.582  24.342  0.00  0.00    +0.148 HD
BRANCH   7   1
ATOM      1  S   UNL     1      23.305   3.142  24.959  0.00  0.00    +0.034 S 
ATOM      4  O   UNL     1      22.914   3.348  26.339  0.00  0.00    -0.158 OA
ATOM      5  O   UNL     1      24.680   3.339  24.540  0.00  0.00    -0.158 OA
BRANCH   1  21
ATOM     21  C   UNL     1      22.843   1.488  24.500  0.00  0.00    +0.220 C 
BRANCH  21  22
ATOM     22  C   UNL     1      24.029   0.847  23.848  0.00  0.00    -0.025 A 
ATOM     23  C   UNL     1      24.254   1.024  22.482  0.00  0.00    +0.005 A 
ATOM     24  C   UNL     1      24.911   0.076  24.605  0.00  0.00    +0.005 A 
ATOM     26  C   UNL     1      25.358   0.426  21.875  0.00  0.00    +0.000 A 
ATOM     27  C   UNL     1      26.014  -0.521  23.998  0.00  0.00    +0.000 A 
ATOM     30  C   UNL     1      26.239  -0.346  22.632  0.00  0.00    +0.000 A 
ENDBRANCH  21  22
ENDBRANCH   1  21
ENDBRANCH   7   1
ENDBRANCH  16   7
TORSDOF 8
ENDMDL
MODEL 10
REMARK VINA RESULT:      -6.7     25.547     29.763
REMARK  Name = 40474972
REMARK  8 active torsions:
REMARK  status: ('A' for Active; 'I' for Inactive)
REMARK    1  A    between atoms: S_1  and  N_7
REMARK    2  A    between atoms: S_1  and  C_21
REMARK    3  A    between atoms: O_6  and  C_20
REMARK    4  A    between atoms: O_6  and  C_25
REMARK    5  A    between atoms: N_7  and  C_16
REMARK    6  A    between atoms: N_8  and  C_17
REMARK    7  A    between atoms: N_12  and  C_33
REMARK    8  A    between atoms: C_21  and  C_22
REMARK                            x       y       z     vdW  Elec       q    Type
REMARK                         _______ _______ _______ _____ _____    ______ ____
ROOT
ATOM      2  O   UNL     1      13.626   8.410   2.395  0.00  0.00    -0.370 OA
ATOM      3  O   UNL     1      16.290   7.281   1.210  0.00  0.00    -0.370 OA
ATOM     14  C   UNL     1      15.299   6.745   2.104  0.00  0.00    +0.170 C 
ATOM     15  C   UNL     1      14.826   7.881   2.989  0.00  0.00    +0.175 C 
ATOM     16  C   UNL     1      14.068   6.336   1.333  0.00  0.00    +0.133 C 
ATOM     17  C   UNL     1      15.939   8.912   2.919  0.00  0.00    +0.171 C 
ATOM     18  C   UNL     1      13.287   7.632   1.239  0.00  0.00    +0.183 C 
ATOM     19  C   UNL     1      16.515   8.662   1.528  0.00  0.00    +0.190 C 
ENDROOT
BRANCH  17   8
ATOM      8  N   UNL     1      16.915   8.751   4.070  0.00  0.00    -0.187 N 
ATOM      9  N   UNL     1      18.071   8.090   3.912  0.00  0.00    -0.041 NA
ATOM     10  N   UNL     1      17.888   8.832   6.006  0.00  0.00    -0.071 NA
ATOM     11  N   UNL     1      18.662   8.144   5.098  0.00  0.00    -0.020 NA
ATOM     20  C   UNL     1      16.812   9.198   5.348  0.00  0.00    +0.342 A 
BRANCH  20   6
ATOM      6  O   UNL     1      15.791   9.884   5.827  0.00  0.00    -0.423 OA
BRANCH   6  25
ATOM     25  C   UNL     1      14.625   9.201   6.209  0.00  0.00    +0.132 A 
ATOM     28  C   UNL     1      13.397   9.862   6.209  0.00  0.00    +0.048 A 
ATOM     29  C   UNL     1      14.696   7.861   6.590  0.00  0.00    +0.048 A 
ATOM     31  C   UNL     1      12.240   9.184   6.588  0.00  0.00    +0.030 A 
ATOM     32  C   UNL     1      13.537   7.183   6.969  0.00  0.00    +0.030 A 
ATOM     33  C   UNL     1      12.309   7.845   6.969  0.00  0.00    +0.048 A 
BRANCH  33  12
ATOM     12  N   UNL     1      11.161   7.171   7.343  0.00  0.00    -0.306 N 
ATOM     13  N   UNL     1       9.049   6.831   7.945  0.00  0.00    -0.244 NA
ATOM     34  C   UNL     1      11.031   5.821   7.508  0.00  0.00    +0.112 A 
ATOM     35  C   UNL     1       9.946   7.736   7.617  0.00  0.00    +0.204 A 
ATOM     36  C   UNL     1       9.720   5.635   7.878  0.00  0.00    +0.130 A 
ENDBRANCH  33  12
ENDBRANCH   6  25
ENDBRANCH  20   6
ENDBRANCH  17   8
BRANCH  16   7
ATOM      7  N   UNL     1      13.295   5.345   2.118  0.00  0.00    -0.186 NA
ATOM     37  H   UNL     1      13.472   5.337   3.131  0.00  0.00    +0.148 HD
BRANCH   7   1
ATOM      1  S   UNL     1      12.814   3.893   1.368  0.00  0.00    +0.034 S 
ATOM      4  O   UNL     1      13.734   2.828   1.714  0.00  0.00    -0.158 OA
ATOM      5  O   UNL     1      12.499   4.181  -0.018  0.00  0.00    -0.158 OA
BRANCH   1  21
ATOM     21  C   UNL     1      11.277   3.582   2.208  0.00  0.00    +0.220 C 
BRANCH  21  22
ATOM     22  C   UNL     1      10.625   4.904   2.470  0.00  0.00    -0.025 A 
ATOM     23  C   UNL     1      10.171   5.682   1.405  0.00  0.00    +0.005 A 
ATOM     24  C   UNL     1      10.470   5.358   3.780  0.00  0.00    +0.005 A 
ATOM     26  C   UNL     1       9.564   6.914   1.649  0.00  0.00    +0.000 A 
ATOM     27  C   UNL     1       9.864   6.590   4.024  0.00  0.00    +0.000 A 
ATOM     30  C   UNL     1       9.411   7.368   2.959  0.00  0.00    +0.000 A 
ENDBRANCH  21  22
ENDBRANCH   1  21
ENDBRANCH   7   1
ENDBRANCH  16   7
TORSDOF 8
ENDMDL
