REMARK  Name = 71693181
REMARK  13 active torsions:
REMARK  status: ('A' for Active; 'I' for Inactive)
REMARK    1  A    between atoms: O_1  and  C_32
REMARK    2  A    between atoms: O_1  and  C_33
REMARK    3  A    between atoms: N_3  and  C_11
REMARK    4  A    between atoms: N_3  and  C_16
REMARK    5  A    between atoms: C_6  and  C_10
REMARK    6  A    between atoms: C_7  and  C_11
REMARK    7  A    between atoms: C_9  and  C_15
REMARK    8  A    between atoms: C_10  and  C_19
REMARK    9  A    between atoms: C_10  and  C_20
REMARK   10  A    between atoms: C_12  and  C_23
REMARK   11  A    between atoms: C_14  and  C_16
REMARK   12  A    between atoms: C_15  and  C_25
REMARK   13  A    between atoms: C_30  and  C_32
REMARK                            x       y       z     vdW  Elec       q    Type
REMARK                         _______ _______ _______ _____ _____    ______ ____
ROOT
ATOM      6  C   UNL     1      -1.602   1.155   1.011  0.00  0.00    +0.000 C 
ATOM      7  C   UNL     1      -2.687   2.100   0.442  0.00  0.00    +0.029 C 
ATOM      8  C   UNL     1      -0.416   1.053   0.042  0.00  0.00    +0.012 C 
ATOM      9  C   UNL     1       0.219   2.420  -0.294  0.00  0.00    +0.022 C 
ATOM     12  C   UNL     1      -0.810   3.526  -0.472  0.00  0.00    -0.073 C 
ATOM     13  C   UNL     1      -2.105   3.360  -0.148  0.00  0.00    -0.023 C 
ATOM     23  C   UNL     1      -0.319   4.857  -0.974  0.00  0.00    +0.039 C 
ENDROOT
BRANCH   6  10
ATOM     10  C   UNL     1      -1.143   1.605   2.405  0.00  0.00    -0.013 C 
ATOM     19  C   UNL     1      -0.117   0.628   2.968  0.00  0.00    +0.007 C 
ATOM     20  C   UNL     1      -2.339   1.735   3.342  0.00  0.00    +0.007 C 
ENDBRANCH   6  10
BRANCH   7  11
ATOM     11  C   UNL     1      -3.549   1.401  -0.613  0.00  0.00    +0.088 C 
BRANCH  11   3
ATOM      3  N   UNL     1      -4.497   0.497   0.015  0.00  0.00    -0.315 NA
ATOM     34  H   UNL     1      -5.096   1.010   0.661  0.00  0.00    +0.122 HD
BRANCH   3  16
ATOM     16  C   UNL     1      -5.315  -0.182  -0.982  0.00  0.00    +0.084 C 
BRANCH  16  14
ATOM     14  C   UNL     1      -6.301  -1.146  -0.324  0.00  0.00    +0.003 C 
ATOM     17  C   UNL     1      -5.562  -2.150   0.571  0.00  0.00    +0.005 C 
ATOM     18  C   UNL     1      -7.139  -1.873  -1.385  0.00  0.00    +0.005 C 
ATOM     21  C   UNL     1      -6.521  -3.159   1.198  0.00  0.00    +0.000 C 
ATOM     22  C   UNL     1      -8.096  -2.881  -0.753  0.00  0.00    +0.000 C 
ATOM     24  C   UNL     1      -7.358  -3.873   0.142  0.00  0.00    +0.000 C 
ENDBRANCH  16  14
ENDBRANCH   3  16
ENDBRANCH  11   3
ENDBRANCH   7  11
BRANCH   9  15
ATOM     15  C   UNL     1       1.129   2.250  -1.517  0.00  0.00    +0.082 C 
BRANCH  15  25
ATOM      4  N   UNL     1       3.233   1.340  -0.515  0.00  0.00    -0.342 N 
ATOM      5  N   UNL     1       2.094  -0.057  -1.816  0.00  0.00    -0.232 NA
ATOM     25  C   UNL     1       2.133   1.153  -1.305  0.00  0.00    +0.109 A 
ATOM     26  C   UNL     1       3.953   0.172  -0.517  0.00  0.00    +0.067 A 
ATOM     27  C   UNL     1       3.221  -0.684  -1.336  0.00  0.00    +0.089 A 
ATOM     28  C   UNL     1       5.144  -0.197   0.108  0.00  0.00    +0.042 A 
ATOM     29  C   UNL     1       3.691  -1.990  -1.555  0.00  0.00    +0.030 A 
ATOM     30  C   UNL     1       5.597  -1.501  -0.121  0.00  0.00    +0.061 A 
ATOM     31  C   UNL     1       4.885  -2.382  -0.937  0.00  0.00    +0.017 A 
ATOM     35  H   UNL     1       3.475   2.186  -0.017  0.00  0.00    +0.167 HD
BRANCH  30  32
ATOM      2  O   UNL     1       7.073  -3.113   0.832  0.00  0.00    -0.245 OA
ATOM     32  C   UNL     1       6.834  -1.944   0.504  0.00  0.00    +0.339 C 
BRANCH  32   1
ATOM      1  O   UNL     1       7.705  -0.905   0.687  0.00  0.00    -0.464 OA
ATOM     33  C   UNL     1       8.963  -1.215   1.295  0.00  0.00    +0.280 C 
ENDBRANCH  32   1
ENDBRANCH  30  32
ENDBRANCH  15  25
ENDBRANCH   9  15
TORSDOF 9
