MODEL 1
REMARK VINA RESULT:      -7.9      0.000      0.000
REMARK  Name = 26743430
REMARK  10 active torsions:
REMARK  status: ('A' for Active; 'I' for Inactive)
REMARK    1  A    between atoms: N_2  and  C_15
REMARK    2  A    between atoms: N_3  and  C_8
REMARK    3  A    between atoms: N_5  and  C_27
REMARK    4  A    between atoms: C_6  and  C_9
REMARK    5  A    between atoms: C_12  and  C_16
REMARK    6  A    between atoms: C_13  and  C_18
REMARK    7  A    between atoms: C_14  and  C_17
REMARK    8  A    between atoms: C_14  and  C_24
REMARK    9  A    between atoms: C_14  and  C_25
REMARK   10  A    between atoms: C_14  and  C_26
REMARK                            x       y       z     vdW  Elec       q    Type
REMARK                         _______ _______ _______ _____ _____    ______ ____
ROOT
ATOM      6  C   UNL     1     -15.632   3.957  23.893  0.00  0.00    +0.047 C 
ATOM      7  C   UNL     1     -16.173   4.514  25.227  0.00  0.00    +0.039 C 
ATOM      8  C   UNL     1     -17.054   3.406  25.817  0.00  0.00    +0.098 C 
ATOM     10  C   UNL     1     -16.623   2.877  23.569  0.00  0.00    -0.021 C 
ATOM     11  C   UNL     1     -17.392   2.579  24.621  0.00  0.00    -0.009 C 
ENDROOT
BRANCH   6   9
ATOM      2  N   UNL     1     -14.683   6.385  21.321  0.00  0.00    -0.236 N 
ATOM      4  N   UNL     1     -16.001   6.646  21.316  0.00  0.00    -0.171 NA
ATOM      9  C   UNL     1     -15.474   5.013  22.824  0.00  0.00    +0.003 A 
ATOM     12  C   UNL     1     -14.315   5.415  22.206  0.00  0.00    +0.046 A 
ATOM     13  C   UNL     1     -16.479   5.804  22.236  0.00  0.00    +0.064 A 
ATOM     16  C   UNL     1     -12.921   4.965  22.382  0.00  0.00    +0.066 C 
ATOM     18  C   UNL     1     -17.925   5.790  22.524  0.00  0.00    +0.068 C 
BRANCH   2  15
ATOM     15  C   UNL     1     -13.836   7.091  20.465  0.00  0.00    +0.066 A 
ATOM     17  C   UNL     1     -12.146   8.506  18.755  0.00  0.00    -0.042 A 
ATOM     19  C   UNL     1     -12.500   7.290  20.813  0.00  0.00    +0.028 A 
ATOM     20  C   UNL     1     -14.327   7.598  19.262  0.00  0.00    +0.028 A 
ATOM     22  C   UNL     1     -11.655   7.999  19.958  0.00  0.00    +0.006 A 
ATOM     23  C   UNL     1     -13.482   8.306  18.407  0.00  0.00    +0.006 A 
BRANCH  17  14
ATOM     14  C   UNL     1     -11.243   9.263  17.841  0.00  0.00    -0.013 C 
ATOM     24  C   UNL     1     -12.052  10.214  16.905  0.00  0.00    +0.015 C 
ATOM     25  C   UNL     1     -10.420   8.298  16.932  0.00  0.00    +0.015 C 
ATOM     26  C   UNL     1     -10.184  10.174  18.546  0.00  0.00    +0.015 C 
ENDBRANCH  17  14
ENDBRANCH   2  15
ENDBRANCH   6   9
BRANCH   8   3
ATOM      1  O   UNL     1     -16.272   4.162  28.469  0.00  0.00    -0.252 OA
ATOM      3  N   UNL     1     -16.353   2.591  26.773  0.00  0.00    -0.293 N 
ATOM      5  N   UNL     1     -15.335   2.029  28.759  0.00  0.00    -0.269 N 
ATOM     21  C   UNL     1     -16.005   3.035  28.058  0.00  0.00    +0.304 C 
ATOM     33  H   UNL     1     -16.052   1.661  26.495  0.00  0.00    +0.151 HD
ATOM     34  H   UNL     1     -15.194   1.149  28.271  0.00  0.00    +0.156 HD
BRANCH   5  27
ATOM     27  C   UNL     1     -14.823   2.084  30.077  0.00  0.00    +0.035 A 
ATOM     28  C   UNL     1     -15.317   1.218  31.053  0.00  0.00    +0.023 A 
ATOM     29  C   UNL     1     -13.825   3.002  30.400  0.00  0.00    +0.023 A 
ATOM     30  C   UNL     1     -14.812   1.271  32.352  0.00  0.00    +0.002 A 
ATOM     31  C   UNL     1     -13.320   3.056  31.700  0.00  0.00    +0.002 A 
ATOM     32  C   UNL     1     -13.815   2.190  32.676  0.00  0.00    +0.000 A 
ENDBRANCH   5  27
ENDBRANCH   8   3
TORSDOF 5
ENDMDL
MODEL 2
REMARK VINA RESULT:      -7.8     20.630     22.525
REMARK  Name = 26743430
REMARK  10 active torsions:
REMARK  status: ('A' for Active; 'I' for Inactive)
REMARK    1  A    between atoms: N_2  and  C_15
REMARK    2  A    between atoms: N_3  and  C_8
REMARK    3  A    between atoms: N_5  and  C_27
REMARK    4  A    between atoms: C_6  and  C_9
REMARK    5  A    between atoms: C_12  and  C_16
REMARK    6  A    between atoms: C_13  and  C_18
REMARK    7  A    between atoms: C_14  and  C_17
REMARK    8  A    between atoms: C_14  and  C_24
REMARK    9  A    between atoms: C_14  and  C_25
REMARK   10  A    between atoms: C_14  and  C_26
REMARK                            x       y       z     vdW  Elec       q    Type
REMARK                         _______ _______ _______ _____ _____    ______ ____
ROOT
ATOM      6  C   UNL     1      -4.749  -9.631  10.293  0.00  0.00    +0.047 C 
ATOM      7  C   UNL     1      -4.770 -10.908  11.159  0.00  0.00    +0.039 C 
ATOM      8  C   UNL     1      -3.452 -10.905  11.942  0.00  0.00    +0.098 C 
ATOM     10  C   UNL     1      -3.283  -9.313  10.222  0.00  0.00    -0.021 C 
ATOM     11  C   UNL     1      -2.582 -10.007  11.125  0.00  0.00    -0.009 C 
ENDROOT
BRANCH   6   9
ATOM      2  N   UNL     1      -6.672  -9.570   7.176  0.00  0.00    -0.236 N 
ATOM      4  N   UNL     1      -5.976 -10.690   6.919  0.00  0.00    -0.171 NA
ATOM      9  C   UNL     1      -5.423  -9.807   8.952  0.00  0.00    +0.003 A 
ATOM     12  C   UNL     1      -6.378  -9.001   8.381  0.00  0.00    +0.046 A 
ATOM     13  C   UNL     1      -5.214 -10.829   8.007  0.00  0.00    +0.064 A 
ATOM     16  C   UNL     1      -7.020  -7.766   8.873  0.00  0.00    +0.066 C 
ATOM     18  C   UNL     1      -4.288 -11.972   8.102  0.00  0.00    +0.068 C 
BRANCH   2  15
ATOM     15  C   UNL     1      -7.594  -9.098   6.240  0.00  0.00    +0.066 A 
ATOM     17  C   UNL     1      -9.434  -8.161   4.365  0.00  0.00    -0.042 A 
ATOM     19  C   UNL     1      -8.956  -9.343   6.417  0.00  0.00    +0.028 A 
ATOM     20  C   UNL     1      -7.152  -8.385   5.126  0.00  0.00    +0.028 A 
ATOM     22  C   UNL     1      -9.876  -8.874   5.479  0.00  0.00    +0.006 A 
ATOM     23  C   UNL     1      -8.072  -7.916   4.188  0.00  0.00    +0.006 A 
BRANCH  17  14
ATOM     14  C   UNL     1     -10.418  -7.660   3.362  0.00  0.00    -0.013 C 
ATOM     24  C   UNL     1     -11.733  -7.179   4.050  0.00  0.00    +0.015 C 
ATOM     25  C   UNL     1     -10.802  -8.776   2.341  0.00  0.00    +0.015 C 
ATOM     26  C   UNL     1      -9.936  -6.450   2.494  0.00  0.00    +0.015 C 
ENDBRANCH  17  14
ENDBRANCH   2  15
ENDBRANCH   6   9
BRANCH   8   3
ATOM      1  O   UNL     1      -4.444 -12.253  14.268  0.00  0.00    -0.252 OA
ATOM      3  N   UNL     1      -3.592 -10.352  13.263  0.00  0.00    -0.293 N 
ATOM      5  N   UNL     1      -4.110 -10.286  15.504  0.00  0.00    -0.269 N 
ATOM     21  C   UNL     1      -4.089 -11.080  14.355  0.00  0.00    +0.304 C 
ATOM     33  H   UNL     1      -3.366  -9.372  13.409  0.00  0.00    +0.151 HD
ATOM     34  H   UNL     1      -3.779  -9.330  15.405  0.00  0.00    +0.156 HD
BRANCH   5  27
ATOM     27  C   UNL     1      -4.539 -10.649  16.802  0.00  0.00    +0.035 A 
ATOM     28  C   UNL     1      -3.724 -11.443  17.610  0.00  0.00    +0.023 A 
ATOM     29  C   UNL     1      -5.777 -10.215  17.275  0.00  0.00    +0.023 A 
ATOM     30  C   UNL     1      -4.147 -11.801  18.890  0.00  0.00    +0.002 A 
ATOM     31  C   UNL     1      -6.200 -10.573  18.555  0.00  0.00    +0.002 A 
ATOM     32  C   UNL     1      -5.385 -11.368  19.362  0.00  0.00    +0.000 A 
ENDBRANCH   5  27
ENDBRANCH   8   3
TORSDOF 5
ENDMDL
MODEL 3
REMARK VINA RESULT:      -7.6     31.294     35.295
REMARK  Name = 26743430
REMARK  10 active torsions:
REMARK  status: ('A' for Active; 'I' for Inactive)
REMARK    1  A    between atoms: N_2  and  C_15
REMARK    2  A    between atoms: N_3  and  C_8
REMARK    3  A    between atoms: N_5  and  C_27
REMARK    4  A    between atoms: C_6  and  C_9
REMARK    5  A    between atoms: C_12  and  C_16
REMARK    6  A    between atoms: C_13  and  C_18
REMARK    7  A    between atoms: C_14  and  C_17
REMARK    8  A    between atoms: C_14  and  C_24
REMARK    9  A    between atoms: C_14  and  C_25
REMARK   10  A    between atoms: C_14  and  C_26
REMARK                            x       y       z     vdW  Elec       q    Type
REMARK                         _______ _______ _______ _____ _____    ______ ____
ROOT
ATOM      6  C   UNL     1      19.175   6.845  21.030  0.00  0.00    +0.047 C 
ATOM      7  C   UNL     1      17.765   6.299  21.340  0.00  0.00    +0.039 C 
ATOM      8  C   UNL     1      16.802   7.468  21.106  0.00  0.00    +0.098 C 
ATOM     10  C   UNL     1      18.987   8.327  21.184  0.00  0.00    -0.021 C 
ATOM     11  C   UNL     1      17.693   8.661  21.221  0.00  0.00    -0.009 C 
ENDROOT
BRANCH   6   9
ATOM      2  N   UNL     1      21.852   5.010  22.727  0.00  0.00    -0.236 N 
ATOM      4  N   UNL     1      21.662   5.942  23.677  0.00  0.00    -0.171 NA
ATOM      9  C   UNL     1      20.253   6.250  21.906  0.00  0.00    +0.003 A 
ATOM     12  C   UNL     1      21.033   5.150  21.646  0.00  0.00    +0.046 A 
ATOM     13  C   UNL     1      20.685   6.697  23.169  0.00  0.00    +0.064 A 
ATOM     16  C   UNL     1      21.065   4.242  20.482  0.00  0.00    +0.066 C 
ATOM     18  C   UNL     1      20.188   7.853  23.937  0.00  0.00    +0.068 C 
BRANCH   2  15
ATOM     15  C   UNL     1      22.821   4.023  22.912  0.00  0.00    +0.066 A 
ATOM     17  C   UNL     1      24.755   2.045  23.275  0.00  0.00    -0.042 A 
ATOM     19  C   UNL     1      24.132   4.245  22.492  0.00  0.00    +0.028 A 
ATOM     20  C   UNL     1      22.476   2.812  23.513  0.00  0.00    +0.028 A 
ATOM     22  C   UNL     1      25.099   3.255  22.674  0.00  0.00    +0.006 A 
ATOM     23  C   UNL     1      23.442   1.823  23.694  0.00  0.00    +0.006 A 
BRANCH  17  14
ATOM     14  C   UNL     1      25.788   0.988  23.469  0.00  0.00    -0.013 C 
ATOM     24  C   UNL     1      25.540   0.188  24.785  0.00  0.00    +0.015 C 
ATOM     25  C   UNL     1      27.219   1.605  23.556  0.00  0.00    +0.015 C 
ATOM     26  C   UNL     1      25.869  -0.089  22.336  0.00  0.00    +0.015 C 
ENDBRANCH  17  14
ENDBRANCH   2  15
ENDBRANCH   6   9
BRANCH   8   3
ATOM      1  O   UNL     1      14.292   8.620  20.340  0.00  0.00    -0.252 OA
ATOM      3  N   UNL     1      16.209   7.446  19.795  0.00  0.00    -0.293 N 
ATOM      5  N   UNL     1      14.653   7.855  18.150  0.00  0.00    -0.269 N 
ATOM     21  C   UNL     1      14.971   8.035  19.498  0.00  0.00    +0.304 C 
ATOM     33  H   UNL     1      16.683   6.939  19.053  0.00  0.00    +0.151 HD
ATOM     34  H   UNL     1      15.328   7.345  17.586  0.00  0.00    +0.156 HD
BRANCH   5  27
ATOM     27  C   UNL     1      13.498   8.298  17.464  0.00  0.00    +0.035 A 
ATOM     28  C   UNL     1      12.233   7.922  17.914  0.00  0.00    +0.023 A 
ATOM     29  C   UNL     1      13.624   9.111  16.338  0.00  0.00    +0.023 A 
ATOM     30  C   UNL     1      11.093   8.358  17.238  0.00  0.00    +0.002 A 
ATOM     31  C   UNL     1      12.485   9.547  15.661  0.00  0.00    +0.002 A 
ATOM     32  C   UNL     1      11.219   9.170  16.111  0.00  0.00    +0.000 A 
ENDBRANCH   5  27
ENDBRANCH   8   3
TORSDOF 5
ENDMDL
MODEL 4
REMARK VINA RESULT:      -7.5     22.348     25.944
REMARK  Name = 26743430
REMARK  10 active torsions:
REMARK  status: ('A' for Active; 'I' for Inactive)
REMARK    1  A    between atoms: N_2  and  C_15
REMARK    2  A    between atoms: N_3  and  C_8
REMARK    3  A    between atoms: N_5  and  C_27
REMARK    4  A    between atoms: C_6  and  C_9
REMARK    5  A    between atoms: C_12  and  C_16
REMARK    6  A    between atoms: C_13  and  C_18
REMARK    7  A    between atoms: C_14  and  C_17
REMARK    8  A    between atoms: C_14  and  C_24
REMARK    9  A    between atoms: C_14  and  C_25
REMARK   10  A    between atoms: C_14  and  C_26
REMARK                            x       y       z     vdW  Elec       q    Type
REMARK                         _______ _______ _______ _____ _____    ______ ____
ROOT
ATOM      6  C   UNL     1      -3.896 -10.134   9.860  0.00  0.00    +0.047 C 
ATOM      7  C   UNL     1      -4.339 -11.471   9.230  0.00  0.00    +0.039 C 
ATOM      8  C   UNL     1      -5.357 -11.106   8.143  0.00  0.00    +0.098 C 
ATOM     10  C   UNL     1      -5.031  -9.218   9.504  0.00  0.00    -0.021 C 
ATOM     11  C   UNL     1      -5.822  -9.751   8.566  0.00  0.00    -0.009 C 
ENDROOT
BRANCH   6   9
ATOM      2  N   UNL     1      -3.759 -10.526  13.499  0.00  0.00    -0.236 N 
ATOM      4  N   UNL     1      -2.469 -10.195  13.320  0.00  0.00    -0.171 NA
ATOM      9  C   UNL     1      -3.607 -10.237  11.340  0.00  0.00    +0.003 A 
ATOM     12  C   UNL     1      -4.484 -10.566  12.345  0.00  0.00    +0.046 A 
ATOM     13  C   UNL     1      -2.383 -10.021  11.999  0.00  0.00    +0.064 A 
ATOM     16  C   UNL     1      -5.920 -10.906  12.300  0.00  0.00    +0.066 C 
ATOM     18  C   UNL     1      -1.089  -9.641  11.401  0.00  0.00    +0.068 C 
BRANCH   2  15
ATOM     15  C   UNL     1      -4.233 -10.790  14.785  0.00  0.00    +0.066 A 
ATOM     17  C   UNL     1      -5.173 -11.316  17.359  0.00  0.00    -0.042 A 
ATOM     19  C   UNL     1      -5.106  -9.896  15.404  0.00  0.00    +0.028 A 
ATOM     20  C   UNL     1      -3.830 -11.947  15.452  0.00  0.00    +0.028 A 
ATOM     22  C   UNL     1      -5.576 -10.159  16.692  0.00  0.00    +0.006 A 
ATOM     23  C   UNL     1      -4.299 -12.210  16.739  0.00  0.00    +0.006 A 
BRANCH  17  14
ATOM     14  C   UNL     1      -5.676 -11.597  18.734  0.00  0.00    -0.013 C 
ATOM     24  C   UNL     1      -4.531 -12.116  19.659  0.00  0.00    +0.015 C 
ATOM     25  C   UNL     1      -6.795 -12.685  18.716  0.00  0.00    +0.015 C 
ATOM     26  C   UNL     1      -6.297 -10.374  19.485  0.00  0.00    +0.015 C 
ENDBRANCH  17  14
ENDBRANCH   2  15
ENDBRANCH   6   9
BRANCH   8   3
ATOM      1  O   UNL     1      -5.076 -13.229   6.239  0.00  0.00    -0.252 OA
ATOM      3  N   UNL     1      -4.765 -11.016   6.835  0.00  0.00    -0.293 N 
ATOM      5  N   UNL     1      -4.046 -11.719   4.766  0.00  0.00    -0.269 N 
ATOM     21  C   UNL     1      -4.664 -12.105   5.958  0.00  0.00    +0.304 C 
ATOM     33  H   UNL     1      -4.355 -10.132   6.544  0.00  0.00    +0.151 HD
ATOM     34  H   UNL     1      -3.764 -10.745   4.692  0.00  0.00    +0.156 HD
BRANCH   5  27
ATOM     27  C   UNL     1      -3.761 -12.522   3.636  0.00  0.00    +0.035 A 
ATOM     28  C   UNL     1      -4.771 -12.820   2.720  0.00  0.00    +0.023 A 
ATOM     29  C   UNL     1      -2.472 -13.015   3.438  0.00  0.00    +0.023 A 
ATOM     30  C   UNL     1      -4.490 -13.611   1.606  0.00  0.00    +0.002 A 
ATOM     31  C   UNL     1      -2.191 -13.806   2.324  0.00  0.00    +0.002 A 
ATOM     32  C   UNL     1      -3.201 -14.105   1.409  0.00  0.00    +0.000 A 
ENDBRANCH   5  27
ENDBRANCH   8   3
TORSDOF 5
ENDMDL
MODEL 5
REMARK VINA RESULT:      -7.3     27.718     30.163
REMARK  Name = 26743430
REMARK  10 active torsions:
REMARK  status: ('A' for Active; 'I' for Inactive)
REMARK    1  A    between atoms: N_2  and  C_15
REMARK    2  A    between atoms: N_3  and  C_8
REMARK    3  A    between atoms: N_5  and  C_27
REMARK    4  A    between atoms: C_6  and  C_9
REMARK    5  A    between atoms: C_12  and  C_16
REMARK    6  A    between atoms: C_13  and  C_18
REMARK    7  A    between atoms: C_14  and  C_17
REMARK    8  A    between atoms: C_14  and  C_24
REMARK    9  A    between atoms: C_14  and  C_25
REMARK   10  A    between atoms: C_14  and  C_26
REMARK                            x       y       z     vdW  Elec       q    Type
REMARK                         _______ _______ _______ _____ _____    ______ ____
ROOT
ATOM      6  C   UNL     1      -2.417 -14.260   5.261  0.00  0.00    +0.047 C 
ATOM      7  C   UNL     1      -2.939 -12.930   5.843  0.00  0.00    +0.039 C 
ATOM      8  C   UNL     1      -4.181 -13.291   6.667  0.00  0.00    +0.098 C 
ATOM     10  C   UNL     1      -3.634 -15.137   5.321  0.00  0.00    -0.021 C 
ATOM     11  C   UNL     1      -4.590 -14.607   6.090  0.00  0.00    -0.009 C 
ENDROOT
BRANCH   6   9
ATOM      2  N   UNL     1      -0.496 -14.202   2.143  0.00  0.00    -0.236 N 
ATOM      4  N   UNL     1      -1.562 -13.521   1.693  0.00  0.00    -0.171 NA
ATOM      9  C   UNL     1      -1.810 -14.113   3.884  0.00  0.00    +0.003 A 
ATOM     12  C   UNL     1      -0.594 -14.581   3.450  0.00  0.00    +0.046 A 
ATOM     13  C   UNL     1      -2.362 -13.470   2.761  0.00  0.00    +0.064 A 
ATOM     16  C   UNL     1       0.457 -15.340   4.155  0.00  0.00    +0.066 C 
ATOM     18  C   UNL     1      -3.664 -12.786   2.660  0.00  0.00    +0.068 C 
BRANCH   2  15
ATOM     15  C   UNL     1       0.575 -14.458   1.284  0.00  0.00    +0.066 A 
ATOM     17  C   UNL     1       2.718 -14.970  -0.427  0.00  0.00    -0.042 A 
ATOM     19  C   UNL     1       0.480 -15.474   0.333  0.00  0.00    +0.028 A 
ATOM     20  C   UNL     1       1.741 -13.698   1.379  0.00  0.00    +0.028 A 
ATOM     22  C   UNL     1       1.552 -15.730  -0.522  0.00  0.00    +0.006 A 
ATOM     23  C   UNL     1       2.812 -13.954   0.524  0.00  0.00    +0.006 A 
BRANCH  17  14
ATOM     14  C   UNL     1       3.863 -15.244  -1.341  0.00  0.00    -0.013 C 
ATOM     24  C   UNL     1       4.274 -16.749  -1.298  0.00  0.00    +0.015 C 
ATOM     25  C   UNL     1       5.117 -14.403  -0.945  0.00  0.00    +0.015 C 
ATOM     26  C   UNL     1       3.608 -14.925  -2.852  0.00  0.00    +0.015 C 
ENDBRANCH  17  14
ENDBRANCH   2  15
ENDBRANCH   6   9
BRANCH   8   3
ATOM      1  O   UNL     1      -4.342 -11.280   8.702  0.00  0.00    -0.252 OA
ATOM      3  N   UNL     1      -3.890 -13.458   8.066  0.00  0.00    -0.293 N 
ATOM      5  N   UNL     1      -3.650 -12.876  10.279  0.00  0.00    -0.269 N 
ATOM     21  C   UNL     1      -3.993 -12.420   9.004  0.00  0.00    +0.304 C 
ATOM     33  H   UNL     1      -3.547 -14.358   8.390  0.00  0.00    +0.151 HD
ATOM     34  H   UNL     1      -3.383 -13.854  10.358  0.00  0.00    +0.156 HD
BRANCH   5  27
ATOM     27  C   UNL     1      -3.626 -12.140  11.487  0.00  0.00    +0.035 A 
ATOM     28  C   UNL     1      -4.715 -12.195  12.358  0.00  0.00    +0.023 A 
ATOM     29  C   UNL     1      -2.516 -11.360  11.808  0.00  0.00    +0.023 A 
ATOM     30  C   UNL     1      -4.693 -11.469  13.549  0.00  0.00    +0.002 A 
ATOM     31  C   UNL     1      -2.493 -10.634  12.999  0.00  0.00    +0.002 A 
ATOM     32  C   UNL     1      -3.583 -10.688  13.869  0.00  0.00    +0.000 A 
ENDBRANCH   5  27
ENDBRANCH   8   3
TORSDOF 5
ENDMDL
MODEL 6
REMARK VINA RESULT:      -7.1     15.175     16.331
REMARK  Name = 26743430
REMARK  10 active torsions:
REMARK  status: ('A' for Active; 'I' for Inactive)
REMARK    1  A    between atoms: N_2  and  C_15
REMARK    2  A    between atoms: N_3  and  C_8
REMARK    3  A    between atoms: N_5  and  C_27
REMARK    4  A    between atoms: C_6  and  C_9
REMARK    5  A    between atoms: C_12  and  C_16
REMARK    6  A    between atoms: C_13  and  C_18
REMARK    7  A    between atoms: C_14  and  C_17
REMARK    8  A    between atoms: C_14  and  C_24
REMARK    9  A    between atoms: C_14  and  C_25
REMARK   10  A    between atoms: C_14  and  C_26
REMARK                            x       y       z     vdW  Elec       q    Type
REMARK                         _______ _______ _______ _____ _____    ______ ____
ROOT
ATOM      6  C   UNL     1     -11.892  -7.402  15.196  0.00  0.00    +0.047 C 
ATOM      7  C   UNL     1     -11.682  -7.133  16.700  0.00  0.00    +0.039 C 
ATOM      8  C   UNL     1     -11.147  -8.443  17.290  0.00  0.00    +0.098 C 
ATOM     10  C   UNL     1     -11.997  -8.899  15.148  0.00  0.00    -0.021 C 
ATOM     11  C   UNL     1     -11.587  -9.461  16.290  0.00  0.00    -0.009 C 
ENDROOT
BRANCH   6   9
ATOM      2  N   UNL     1     -14.391  -5.424  13.391  0.00  0.00    -0.236 N 
ATOM      4  N   UNL     1     -15.213  -5.902  14.341  0.00  0.00    -0.171 NA
ATOM      9  C   UNL     1     -13.078  -6.666  14.617  0.00  0.00    +0.003 A 
ATOM     12  C   UNL     1     -13.102  -5.852  13.511  0.00  0.00    +0.046 A 
ATOM     13  C   UNL     1     -14.405  -6.661  15.086  0.00  0.00    +0.064 A 
ATOM     16  C   UNL     1     -12.027  -5.455  12.580  0.00  0.00    +0.066 C 
ATOM     18  C   UNL     1     -14.953  -7.373  16.254  0.00  0.00    +0.068 C 
BRANCH   2  15
ATOM     15  C   UNL     1     -14.894  -4.572  12.407  0.00  0.00    +0.066 A 
ATOM     17  C   UNL     1     -15.906  -2.870  10.441  0.00  0.00    -0.042 A 
ATOM     19  C   UNL     1     -14.833  -3.189  12.583  0.00  0.00    +0.028 A 
ATOM     20  C   UNL     1     -15.461  -5.103  11.248  0.00  0.00    +0.028 A 
ATOM     22  C   UNL     1     -15.340  -2.338  11.600  0.00  0.00    +0.006 A 
ATOM     23  C   UNL     1     -15.967  -4.253  10.265  0.00  0.00    +0.006 A 
BRANCH  17  14
ATOM     14  C   UNL     1     -16.447  -1.960   9.391  0.00  0.00    -0.013 C 
ATOM     24  C   UNL     1     -17.883  -2.389   8.956  0.00  0.00    +0.015 C 
ATOM     25  C   UNL     1     -15.546  -1.970   8.116  0.00  0.00    +0.015 C 
ATOM     26  C   UNL     1     -16.568  -0.456   9.803  0.00  0.00    +0.015 C 
ENDBRANCH  17  14
ENDBRANCH   2  15
ENDBRANCH   6   9
BRANCH   8   3
ATOM      1  O   UNL     1      -9.526 -10.602  18.250  0.00  0.00    -0.252 OA
ATOM      3  N   UNL     1      -9.712  -8.465  17.386  0.00  0.00    -0.293 N 
ATOM      5  N   UNL     1      -7.617  -9.298  17.846  0.00  0.00    -0.269 N 
ATOM     21  C   UNL     1      -8.988  -9.565  17.870  0.00  0.00    +0.304 C 
ATOM     33  H   UNL     1      -9.193  -7.628  17.137  0.00  0.00    +0.151 HD
ATOM     34  H   UNL     1      -7.335  -8.385  17.498  0.00  0.00    +0.156 HD
BRANCH   5  27
ATOM     27  C   UNL     1      -6.560 -10.147  18.249  0.00  0.00    +0.035 A 
ATOM     28  C   UNL     1      -5.581 -10.527  17.330  0.00  0.00    +0.023 A 
ATOM     29  C   UNL     1      -6.496 -10.605  19.565  0.00  0.00    +0.023 A 
ATOM     30  C   UNL     1      -4.539 -11.365  17.728  0.00  0.00    +0.002 A 
ATOM     31  C   UNL     1      -5.454 -11.443  19.963  0.00  0.00    +0.002 A 
ATOM     32  C   UNL     1      -4.476 -11.823  19.043  0.00  0.00    +0.000 A 
ENDBRANCH   5  27
ENDBRANCH   8   3
TORSDOF 5
ENDMDL
MODEL 7
REMARK VINA RESULT:      -7.1     26.530     28.371
REMARK  Name = 26743430
REMARK  10 active torsions:
REMARK  status: ('A' for Active; 'I' for Inactive)
REMARK    1  A    between atoms: N_2  and  C_15
REMARK    2  A    between atoms: N_3  and  C_8
REMARK    3  A    between atoms: N_5  and  C_27
REMARK    4  A    between atoms: C_6  and  C_9
REMARK    5  A    between atoms: C_12  and  C_16
REMARK    6  A    between atoms: C_13  and  C_18
REMARK    7  A    between atoms: C_14  and  C_17
REMARK    8  A    between atoms: C_14  and  C_24
REMARK    9  A    between atoms: C_14  and  C_25
REMARK   10  A    between atoms: C_14  and  C_26
REMARK                            x       y       z     vdW  Elec       q    Type
REMARK                         _______ _______ _______ _____ _____    ______ ____
ROOT
ATOM      6  C   UNL     1       8.445  -6.296  33.974  0.00  0.00    +0.047 C 
ATOM      7  C   UNL     1       8.618  -6.372  35.506  0.00  0.00    +0.039 C 
ATOM      8  C   UNL     1       9.365  -5.094  35.907  0.00  0.00    +0.098 C 
ATOM     10  C   UNL     1       9.526  -5.333  33.575  0.00  0.00    -0.021 C 
ATOM     11  C   UNL     1      10.020  -4.679  34.631  0.00  0.00    -0.009 C 
ENDROOT
BRANCH   6   9
ATOM      2  N   UNL     1       8.042  -9.541  32.323  0.00  0.00    -0.236 N 
ATOM      4  N   UNL     1       9.385  -9.545  32.370  0.00  0.00    -0.171 NA
ATOM      9  C   UNL     1       8.519  -7.645  33.297  0.00  0.00    +0.003 A 
ATOM     12  C   UNL     1       7.474  -8.425  32.864  0.00  0.00    +0.046 A 
ATOM     13  C   UNL     1       9.670  -8.384  32.966  0.00  0.00    +0.064 A 
ATOM     16  C   UNL     1       6.016  -8.204  32.922  0.00  0.00    +0.066 C 
ATOM     18  C   UNL     1      11.079  -8.017  33.201  0.00  0.00    +0.068 C 
BRANCH   2  15
ATOM     15  C   UNL     1       7.367 -10.621  31.753  0.00  0.00    +0.066 A 
ATOM     17  C   UNL     1       6.023 -12.783  30.612  0.00  0.00    -0.042 A 
ATOM     19  C   UNL     1       6.895 -11.655  32.563  0.00  0.00    +0.028 A 
ATOM     20  C   UNL     1       7.166 -10.668  30.374  0.00  0.00    +0.028 A 
ATOM     22  C   UNL     1       6.224 -12.736  31.992  0.00  0.00    +0.006 A 
ATOM     23  C   UNL     1       6.495 -11.749  29.803  0.00  0.00    +0.006 A 
BRANCH  17  14
ATOM     14  C   UNL     1       5.306 -13.939  30.002  0.00  0.00    -0.013 C 
ATOM     24  C   UNL     1       5.017 -15.049  31.060  0.00  0.00    +0.015 C 
ATOM     25  C   UNL     1       6.147 -14.587  28.858  0.00  0.00    +0.015 C 
ATOM     26  C   UNL     1       3.919 -13.605  29.359  0.00  0.00    +0.015 C 
ENDBRANCH  17  14
ENDBRANCH   2  15
ENDBRANCH   6   9
BRANCH   8   3
ATOM      1  O   UNL     1       8.147  -4.851  38.490  0.00  0.00    -0.252 OA
ATOM      3  N   UNL     1       8.480  -4.048  36.346  0.00  0.00    -0.293 N 
ATOM      5  N   UNL     1       7.107  -2.873  37.771  0.00  0.00    -0.269 N 
ATOM     21  C   UNL     1       7.922  -3.999  37.633  0.00  0.00    +0.304 C 
ATOM     33  H   UNL     1       8.204  -3.331  35.682  0.00  0.00    +0.151 HD
ATOM     34  H   UNL     1       7.028  -2.265  36.960  0.00  0.00    +0.156 HD
BRANCH   5  27
ATOM     27  C   UNL     1       6.370  -2.470  38.909  0.00  0.00    +0.035 A 
ATOM     28  C   UNL     1       7.004  -1.773  39.939  0.00  0.00    +0.023 A 
ATOM     29  C   UNL     1       5.011  -2.768  39.002  0.00  0.00    +0.023 A 
ATOM     30  C   UNL     1       6.277  -1.375  41.061  0.00  0.00    +0.002 A 
ATOM     31  C   UNL     1       4.285  -2.370  40.125  0.00  0.00    +0.002 A 
ATOM     32  C   UNL     1       4.919  -1.674  41.155  0.00  0.00    +0.000 A 
ENDBRANCH   5  27
ENDBRANCH   8   3
TORSDOF 5
ENDMDL
MODEL 8
REMARK VINA RESULT:      -7.1     22.560     26.794
REMARK  Name = 26743430
REMARK  10 active torsions:
REMARK  status: ('A' for Active; 'I' for Inactive)
REMARK    1  A    between atoms: N_2  and  C_15
REMARK    2  A    between atoms: N_3  and  C_8
REMARK    3  A    between atoms: N_5  and  C_27
REMARK    4  A    between atoms: C_6  and  C_9
REMARK    5  A    between atoms: C_12  and  C_16
REMARK    6  A    between atoms: C_13  and  C_18
REMARK    7  A    between atoms: C_14  and  C_17
REMARK    8  A    between atoms: C_14  and  C_24
REMARK    9  A    between atoms: C_14  and  C_25
REMARK   10  A    between atoms: C_14  and  C_26
REMARK                            x       y       z     vdW  Elec       q    Type
REMARK                         _______ _______ _______ _____ _____    ______ ____
ROOT
ATOM      6  C   UNL     1      -8.617  -8.854   5.146  0.00  0.00    +0.047 C 
ATOM      7  C   UNL     1      -7.826  -8.240   3.972  0.00  0.00    +0.039 C 
ATOM      8  C   UNL     1      -8.062  -9.168   2.775  0.00  0.00    +0.098 C 
ATOM     10  C   UNL     1      -8.769 -10.285   4.718  0.00  0.00    -0.021 C 
ATOM     11  C   UNL     1      -8.470 -10.450   3.425  0.00  0.00    -0.009 C 
ENDROOT
BRANCH   6   9
ATOM      2  N   UNL     1      -6.677  -8.866   8.253  0.00  0.00    -0.236 N 
ATOM      4  N   UNL     1      -7.415  -7.777   8.523  0.00  0.00    -0.171 NA
ATOM      9  C   UNL     1      -7.944  -8.664   6.486  0.00  0.00    +0.003 A 
ATOM     12  C   UNL     1      -6.954  -9.435   7.044  0.00  0.00    +0.046 A 
ATOM     13  C   UNL     1      -8.187  -7.658   7.439  0.00  0.00    +0.064 A 
ATOM     16  C   UNL     1      -6.266 -10.639   6.538  0.00  0.00    +0.066 C 
ATOM     18  C   UNL     1      -9.157  -6.550   7.358  0.00  0.00    +0.068 C 
BRANCH   2  15
ATOM     15  C   UNL     1      -5.732  -9.309   9.180  0.00  0.00    +0.066 A 
ATOM     17  C   UNL     1      -3.845 -10.200  11.031  0.00  0.00    -0.042 A 
ATOM     19  C   UNL     1      -4.401  -8.907   9.067  0.00  0.00    +0.028 A 
ATOM     20  C   UNL     1      -6.120 -10.156  10.219  0.00  0.00    +0.028 A 
ATOM     22  C   UNL     1      -3.457  -9.354   9.993  0.00  0.00    +0.006 A 
ATOM     23  C   UNL     1      -5.177 -10.602  11.144  0.00  0.00    +0.006 A 
BRANCH  17  14
ATOM     14  C   UNL     1      -2.837 -10.677  12.020  0.00  0.00    -0.013 C 
ATOM     24  C   UNL     1      -1.461  -9.970  11.812  0.00  0.00    +0.015 C 
ATOM     25  C   UNL     1      -2.599 -12.215  11.890  0.00  0.00    +0.015 C 
ATOM     26  C   UNL     1      -3.204 -10.439  13.523  0.00  0.00    +0.015 C 
ENDBRANCH  17  14
ENDBRANCH   2  15
ENDBRANCH   6   9
BRANCH   8   3
ATOM      1  O   UNL     1      -7.937  -8.782  -0.061  0.00  0.00    -0.252 OA
ATOM      3  N   UNL     1      -9.127  -8.713   1.921  0.00  0.00    -0.293 N 
ATOM      5  N   UNL     1     -10.181  -8.096  -0.029  0.00  0.00    -0.269 N 
ATOM     21  C   UNL     1      -8.986  -8.548   0.535  0.00  0.00    +0.304 C 
ATOM     33  H   UNL     1     -10.013  -8.451   2.342  0.00  0.00    +0.151 HD
ATOM     34  H   UNL     1     -10.961  -7.953   0.608  0.00  0.00    +0.156 HD
BRANCH   5  27
ATOM     27  C   UNL     1     -10.446  -7.811  -1.389  0.00  0.00    +0.035 A 
ATOM     28  C   UNL     1      -9.825  -8.556  -2.392  0.00  0.00    +0.023 A 
ATOM     29  C   UNL     1     -11.328  -6.785  -1.728  0.00  0.00    +0.023 A 
ATOM     30  C   UNL     1     -10.086  -8.274  -3.733  0.00  0.00    +0.002 A 
ATOM     31  C   UNL     1     -11.589  -6.503  -3.069  0.00  0.00    +0.002 A 
ATOM     32  C   UNL     1     -10.967  -7.248  -4.071  0.00  0.00    +0.000 A 
ENDBRANCH   5  27
ENDBRANCH   8   3
TORSDOF 5
ENDMDL
MODEL 9
REMARK VINA RESULT:      -7.0     32.739     35.927
REMARK  Name = 26743430
REMARK  10 active torsions:
REMARK  status: ('A' for Active; 'I' for Inactive)
REMARK    1  A    between atoms: N_2  and  C_15
REMARK    2  A    between atoms: N_3  and  C_8
REMARK    3  A    between atoms: N_5  and  C_27
REMARK    4  A    between atoms: C_6  and  C_9
REMARK    5  A    between atoms: C_12  and  C_16
REMARK    6  A    between atoms: C_13  and  C_18
REMARK    7  A    between atoms: C_14  and  C_17
REMARK    8  A    between atoms: C_14  and  C_24
REMARK    9  A    between atoms: C_14  and  C_25
REMARK   10  A    between atoms: C_14  and  C_26
REMARK                            x       y       z     vdW  Elec       q    Type
REMARK                         _______ _______ _______ _____ _____    ______ ____
ROOT
ATOM      6  C   UNL     1      21.973   5.525  22.255  0.00  0.00    +0.047 C 
ATOM      7  C   UNL     1      21.799   4.046  21.852  0.00  0.00    +0.039 C 
ATOM      8  C   UNL     1      23.138   3.617  21.241  0.00  0.00    +0.098 C 
ATOM     10  C   UNL     1      23.120   5.962  21.390  0.00  0.00    -0.021 C 
ATOM     11  C   UNL     1      23.753   4.919  20.843  0.00  0.00    -0.009 C 
ENDROOT
BRANCH   6   9
ATOM      2  N   UNL     1      18.800   7.149  21.413  0.00  0.00    -0.236 N 
ATOM      4  N   UNL     1      19.115   7.934  22.457  0.00  0.00    -0.171 NA
ATOM      9  C   UNL     1      20.711   6.341  22.093  0.00  0.00    +0.003 A 
ATOM     12  C   UNL     1      19.723   6.179  21.153  0.00  0.00    +0.046 A 
ATOM     13  C   UNL     1      20.284   7.435  22.868  0.00  0.00    +0.064 A 
ATOM     16  C   UNL     1      19.585   5.202  20.055  0.00  0.00    +0.066 C 
ATOM     18  C   UNL     1      20.966   8.045  24.024  0.00  0.00    +0.068 C 
BRANCH   2  15
ATOM     15  C   UNL     1      17.615   7.375  20.712  0.00  0.00    +0.066 A 
ATOM     17  C   UNL     1      15.242   7.822  19.314  0.00  0.00    -0.042 A 
ATOM     19  C   UNL     1      16.990   8.620  20.780  0.00  0.00    +0.028 A 
ATOM     20  C   UNL     1      17.054   6.354  19.945  0.00  0.00    +0.028 A 
ATOM     22  C   UNL     1      15.803   8.844  20.081  0.00  0.00    +0.006 A 
ATOM     23  C   UNL     1      15.867   6.577  19.246  0.00  0.00    +0.006 A 
BRANCH  17  14
ATOM     14  C   UNL     1      13.973   8.061  18.567  0.00  0.00    -0.013 C 
ATOM     24  C   UNL     1      14.139   7.732  17.051  0.00  0.00    +0.015 C 
ATOM     25  C   UNL     1      13.524   9.552  18.679  0.00  0.00    +0.015 C 
ATOM     26  C   UNL     1      12.744   7.219  19.045  0.00  0.00    +0.015 C 
ENDBRANCH  17  14
ENDBRANCH   2  15
ENDBRANCH   6   9
BRANCH   8   3
ATOM      1  O   UNL     1      23.983   0.880  21.178  0.00  0.00    -0.252 OA
ATOM      3  N   UNL     1      23.997   2.960  22.190  0.00  0.00    -0.293 N 
ATOM      5  N   UNL     1      25.204   1.252  23.148  0.00  0.00    -0.269 N 
ATOM     21  C   UNL     1      24.366   1.610  22.090  0.00  0.00    +0.304 C 
ATOM     33  H   UNL     1      24.318   3.480  23.001  0.00  0.00    +0.151 HD
ATOM     34  H   UNL     1      25.426   1.980  23.822  0.00  0.00    +0.156 HD
BRANCH   5  27
ATOM     27  C   UNL     1      25.787  -0.012  23.404  0.00  0.00    +0.035 A 
ATOM     28  C   UNL     1      26.730  -0.536  22.519  0.00  0.00    +0.023 A 
ATOM     29  C   UNL     1      25.421  -0.733  24.540  0.00  0.00    +0.023 A 
ATOM     30  C   UNL     1      27.305  -1.782  22.771  0.00  0.00    +0.002 A 
ATOM     31  C   UNL     1      25.996  -1.978  24.792  0.00  0.00    +0.002 A 
ATOM     32  C   UNL     1      26.938  -2.503  23.906  0.00  0.00    +0.000 A 
ENDBRANCH   5  27
ENDBRANCH   8   3
TORSDOF 5
ENDMDL
MODEL 10
REMARK VINA RESULT:      -7.0     27.844     33.420
REMARK  Name = 26743430
REMARK  10 active torsions:
REMARK  status: ('A' for Active; 'I' for Inactive)
REMARK    1  A    between atoms: N_2  and  C_15
REMARK    2  A    between atoms: N_3  and  C_8
REMARK    3  A    between atoms: N_5  and  C_27
REMARK    4  A    between atoms: C_6  and  C_9
REMARK    5  A    between atoms: C_12  and  C_16
REMARK    6  A    between atoms: C_13  and  C_18
REMARK    7  A    between atoms: C_14  and  C_17
REMARK    8  A    between atoms: C_14  and  C_24
REMARK    9  A    between atoms: C_14  and  C_25
REMARK   10  A    between atoms: C_14  and  C_26
REMARK                            x       y       z     vdW  Elec       q    Type
REMARK                         _______ _______ _______ _____ _____    ______ ____
ROOT
ATOM      6  C   UNL     1      12.318   7.232   6.219  0.00  0.00    +0.047 C 
ATOM      7  C   UNL     1      12.901   7.964   4.992  0.00  0.00    +0.039 C 
ATOM      8  C   UNL     1      14.405   7.665   5.001  0.00  0.00    +0.098 C 
ATOM     10  C   UNL     1      13.526   7.056   7.093  0.00  0.00    -0.021 C 
ATOM     11  C   UNL     1      14.660   7.290   6.424  0.00  0.00    -0.009 C 
ENDROOT
BRANCH   6   9
ATOM      2  N   UNL     1       9.913   9.472   7.838  0.00  0.00    -0.236 N 
ATOM      4  N   UNL     1       9.091   8.418   7.700  0.00  0.00    -0.171 NA
ATOM      9  C   UNL     1      11.171   7.973   6.868  0.00  0.00    +0.003 A 
ATOM     12  C   UNL     1      11.170   9.258   7.354  0.00  0.00    +0.046 A 
ATOM     13  C   UNL     1       9.865   7.506   7.107  0.00  0.00    +0.064 A 
ATOM     16  C   UNL     1      12.240  10.275   7.398  0.00  0.00    +0.066 C 
ATOM     18  C   UNL     1       9.306   6.181   6.781  0.00  0.00    +0.068 C 
BRANCH   2  15
ATOM     15  C   UNL     1       9.442  10.643   8.433  0.00  0.00    +0.066 A 
ATOM     17  C   UNL     1       8.494  12.983   9.620  0.00  0.00    -0.042 A 
ATOM     19  C   UNL     1       9.294  10.711   9.818  0.00  0.00    +0.028 A 
ATOM     20  C   UNL     1       9.118  11.745   7.641  0.00  0.00    +0.028 A 
ATOM     22  C   UNL     1       8.819  11.882  10.411  0.00  0.00    +0.006 A 
ATOM     23  C   UNL     1       8.643  12.915   8.234  0.00  0.00    +0.006 A 
BRANCH  17  14
ATOM     14  C   UNL     1       7.987  14.234  10.254  0.00  0.00    -0.013 C 
ATOM     24  C   UNL     1       6.428  14.276  10.254  0.00  0.00    +0.015 C 
ATOM     25  C   UNL     1       8.492  15.499   9.492  0.00  0.00    +0.015 C 
ATOM     26  C   UNL     1       8.410  14.450  11.745  0.00  0.00    +0.015 C 
ENDBRANCH  17  14
ENDBRANCH   2  15
ENDBRANCH   6   9
BRANCH   8   3
ATOM      1  O   UNL     1      14.090   7.523   2.157  0.00  0.00    -0.252 OA
ATOM      3  N   UNL     1      14.757   6.559   4.151  0.00  0.00    -0.293 N 
ATOM      5  N   UNL     1      15.004   5.361   2.202  0.00  0.00    -0.269 N 
ATOM     21  C   UNL     1      14.571   6.566   2.760  0.00  0.00    +0.304 C 
ATOM     33  H   UNL     1      15.115   5.710   4.577  0.00  0.00    +0.151 HD
ATOM     34  H   UNL     1      15.379   4.669   2.845  0.00  0.00    +0.156 HD
BRANCH   5  27
ATOM     27  C   UNL     1      14.984   4.979   0.840  0.00  0.00    +0.035 A 
ATOM     28  C   UNL     1      16.088   5.239   0.027  0.00  0.00    +0.023 A 
ATOM     29  C   UNL     1      13.862   4.343   0.309  0.00  0.00    +0.023 A 
ATOM     30  C   UNL     1      16.069   4.863  -1.316  0.00  0.00    +0.002 A 
ATOM     31  C   UNL     1      13.844   3.967  -1.034  0.00  0.00    +0.002 A 
ATOM     32  C   UNL     1      14.947   4.227  -1.846  0.00  0.00    +0.000 A 
ENDBRANCH   5  27
ENDBRANCH   8   3
TORSDOF 5
ENDMDL
