REMARK  Name = 11943051
REMARK  3 active torsions:
REMARK  status: ('A' for Active; 'I' for Inactive)
REMARK    1  A    between atoms: N_4  and  C_13
REMARK    2  A    between atoms: C_7  and  C_13
REMARK    3  A    between atoms: C_8  and  C_14
REMARK                            x       y       z     vdW  Elec       q    Type
REMARK                         _______ _______ _______ _____ _____    ______ ____
ROOT
ATOM     13  C   UNL     1       0.350   0.315  -1.211  0.00  0.00    +0.124 C 
ENDROOT
BRANCH  13   4
ATOM      1  O   UNL     1      -5.697  -1.015   0.544  0.00  0.00    -0.377 OA
ATOM      2  O   UNL     1      -1.952   1.886  -0.826  0.00  0.00    -0.253 OA
ATOM      4  N   UNL     1      -0.906  -0.150  -0.667  0.00  0.00    -0.298 N 
ATOM      5  N   UNL     1      -3.148   0.097   0.040  0.00  0.00    -0.281 N 
ATOM     16  C   UNL     1      -2.000   0.693  -0.508  0.00  0.00    +0.302 C 
ATOM     17  C   UNL     1      -3.287  -1.310   0.443  0.00  0.00    +0.137 C 
ATOM     18  C   UNL     1      -4.288   0.943   0.401  0.00  0.00    +0.137 C 
ATOM     19  C   UNL     1      -4.655  -1.855   0.048  0.00  0.00    +0.179 C 
ATOM     20  C   UNL     1      -5.600   0.296  -0.015  0.00  0.00    +0.179 C 
ATOM     21  H   UNL     1      -0.925  -1.104  -0.334  0.00  0.00    +0.150 HD
ENDBRANCH  13   4
BRANCH  13   7
ATOM      3  N   UNL     1       2.521   1.429  -0.634  0.00  0.00    -0.297 NA
ATOM      6  C   UNL     1       3.088  -0.231   1.286  0.00  0.00    -0.000 C 
ATOM      7  C   UNL     1       1.272   0.823  -0.100  0.00  0.00    +0.074 C 
ATOM      8  C   UNL     1       3.915  -0.556   0.020  0.00  0.00    +0.028 C 
ATOM      9  C   UNL     1       1.589  -0.282   0.932  0.00  0.00    +0.024 C 
ATOM     10  C   UNL     1       3.420   1.219   1.685  0.00  0.00    +0.019 C 
ATOM     11  C   UNL     1       3.439   0.371  -1.124  0.00  0.00    +0.092 C 
ATOM     12  C   UNL     1       3.193   2.144   0.477  0.00  0.00    +0.085 C 
BRANCH   8  14
ATOM     14  C   UNL     1       3.843  -2.002  -0.368  0.00  0.00    -0.030 C 
ATOM     15  C   UNL     1       4.903  -2.815  -0.424  0.00  0.00    +0.004 C 
ENDBRANCH   8  14
ENDBRANCH  13   7
TORSDOF 3
