REMARK  Name = 25338997
REMARK  9 active torsions:
REMARK  status: ('A' for Active; 'I' for Inactive)
REMARK    1  A    between atoms: O_1  and  C_15
REMARK    2  A    between atoms: O_1  and  C_20
REMARK    3  A    between atoms: O_4  and  C_19
REMARK    4  A    between atoms: O_4  and  C_21
REMARK    5  A    between atoms: N_6  and  C_13
REMARK    6  A    between atoms: C_8  and  C_15
REMARK    7  A    between atoms: C_13  and  C_17
REMARK    8  A    between atoms: C_13  and  C_18
REMARK    9  A    between atoms: C_16  and  C_19
REMARK                            x       y       z     vdW  Elec       q    Type
REMARK                         _______ _______ _______ _____ _____    ______ ____
ROOT
ATOM      3  O   UNL     1       3.374   0.027  -0.924  0.00  0.00    -0.273 OA
ATOM      5  N   UNL     1       1.109  -0.043  -0.374  0.00  0.00    -0.280 N 
ATOM      6  N   UNL     1      -2.557  -0.749  -0.038  0.00  0.00    -0.330 N 
ATOM      7  N   UNL     1      -2.815   1.065  -1.315  0.00  0.00    -0.240 NA
ATOM      8  C   UNL     1       0.910   1.389  -0.725  0.00  0.00    +0.191 C 
ATOM      9  C   UNL     1      -1.305  -0.262  -0.270  0.00  0.00    +0.059 A 
ATOM     10  C   UNL     1      -0.371   1.680  -1.536  0.00  0.00    +0.091 C 
ATOM     11  C   UNL     1      -0.026  -0.801   0.226  0.00  0.00    +0.163 C 
ATOM     12  C   UNL     1      -1.492   0.851  -1.051  0.00  0.00    +0.066 A 
ATOM     14  C   UNL     1      -3.433   0.084  -0.688  0.00  0.00    +0.200 A 
ATOM     16  C   UNL     1       2.409  -0.566  -0.437  0.00  0.00    +0.242 C 
ENDROOT
BRANCH   6  13
ATOM     13  C   UNL     1      -2.912  -1.911   0.742  0.00  0.00    +0.082 C 
ATOM     17  C   UNL     1      -3.606  -2.973  -0.114  0.00  0.00    +0.030 C 
ATOM     18  C   UNL     1      -3.772  -1.536   1.950  0.00  0.00    +0.030 C 
ENDBRANCH   6  13
BRANCH   8  15
ATOM      2  O   UNL     1       1.031   1.611   1.673  0.00  0.00    -0.249 OA
ATOM     15  C   UNL     1       0.936   2.143   0.575  0.00  0.00    +0.328 C 
BRANCH  15   1
ATOM      1  O   UNL     1       0.839   3.480   0.328  0.00  0.00    -0.467 OA
ATOM     20  C   UNL     1       0.852   4.321   1.486  0.00  0.00    +0.280 C 
ENDBRANCH  15   1
ENDBRANCH   8  15
BRANCH  16  19
ATOM     19  C   UNL     1       2.603  -1.951   0.131  0.00  0.00    +0.255 C 
BRANCH  19   4
ATOM      4  O   UNL     1       3.956  -2.281  -0.069  0.00  0.00    -0.374 OA
ATOM     21  C   UNL     1       4.271  -3.580   0.430  0.00  0.00    +0.194 C 
ENDBRANCH  19   4
ENDBRANCH  16  19
TORSDOF 5
