REMARK  Name = 71693245
REMARK  6 active torsions:
REMARK  status: ('A' for Active; 'I' for Inactive)
REMARK    1  A    between atoms: S_1  and  N_8
REMARK    2  A    between atoms: S_1  and  C_20
REMARK    3  A    between atoms: O_3  and  C_12
REMARK    4  A    between atoms: N_8  and  C_17
REMARK    5  A    between atoms: CA_9  and  C_12
REMARK    6  A    between atoms: C_10  and  C_11
REMARK                            x       y       z     vdW  Elec       q    Type
REMARK                         _______ _______ _______ _____ _____    ______ ____
ROOT
ATOM     11  C   UNL     1      -0.397  -0.444  -0.282  0.00  0.00    -0.017 A 
ATOM     15  C   UNL     1       0.155  -0.876   0.924  0.00  0.00    +0.008 A 
ATOM     16  C   UNL     1       0.427  -0.216  -1.384  0.00  0.00    +0.008 A 
ATOM     17  C   UNL     1       2.355  -0.854  -0.075  0.00  0.00    +0.048 A 
ATOM     18  C   UNL     1       1.531  -1.081   1.028  0.00  0.00    +0.025 A 
ATOM     19  C   UNL     1       1.803  -0.421  -1.281  0.00  0.00    +0.025 A 
ENDROOT
BRANCH  11  10
ATOM      2  O   UNL     1      -2.533  -1.486  -0.184  0.00  0.00    -0.361 OA
ATOM      4  O   UNL     1      -5.896  -0.341   0.315  0.00  0.00    -0.273 OA
ATOM      7  N   UNL     1      -3.908   0.771   0.600  0.00  0.00    -0.306 N 
ATOM      9  CA  UNL     1      -2.449   0.764   0.641  0.00  0.00    +0.131 C 
ATOM     10  C   UNL     1      -1.890  -0.223  -0.396  0.00  0.00    +0.171 C 
ATOM     13  C   UNL     1      -3.911  -1.422  -0.488  0.00  0.00    +0.256 C 
ATOM     14  C   UNL     1      -4.671  -0.302   0.197  0.00  0.00    +0.239 C 
ATOM     21  H   UNL     1      -4.391   1.537   1.061  0.00  0.00    +0.149 HD
BRANCH   9  12
ATOM     12  C   UNL     1      -1.921   2.183   0.443  0.00  0.00    +0.181 C 
BRANCH  12   3
ATOM      3  O   UNL     1      -2.289   2.623  -0.851  0.00  0.00    -0.393 OA
ATOM     22  H   UNL     1      -1.945   3.526  -0.956  0.00  0.00    +0.209 HD
ENDBRANCH  12   3
ENDBRANCH   9  12
ENDBRANCH  11  10
BRANCH  17   8
ATOM      8  N   UNL     1       3.763  -1.064   0.032  0.00  0.00    -0.221 N 
ATOM     23  H   UNL     1       4.025  -1.800   0.701  0.00  0.00    +0.173 HD
BRANCH   8   1
ATOM      1  S   UNL     1       4.794   0.316   0.022  0.00  0.00    +0.040 S 
ATOM      5  O   UNL     1       6.165  -0.138  -0.122  0.00  0.00    -0.155 OA
ATOM      6  O   UNL     1       4.266   1.351  -0.843  0.00  0.00    -0.155 OA
ATOM     20  C   UNL     1       4.606   0.861   1.705  0.00  0.00    +0.218 C 
ENDBRANCH   8   1
ENDBRANCH  17   8
TORSDOF 5
