MODEL 1
REMARK VINA RESULT:      -6.9      0.000      0.000
REMARK  Name = 7155442
REMARK  5 active torsions:
REMARK  status: ('A' for Active; 'I' for Inactive)
REMARK    1  A    between atoms: S_1  and  N_6
REMARK    2  A    between atoms: S_1  and  C_19
REMARK    3  A    between atoms: O_5  and  C_29
REMARK    4  A    between atoms: O_5  and  C_31
REMARK    5  A    between atoms: C_15  and  C_20
REMARK                            x       y       z     vdW  Elec       q    Type
REMARK                         _______ _______ _______ _____ _____    ______ ____
ROOT
ATOM      4  O   UNL     1      16.344  12.515  17.653  0.00  0.00    -0.268 OA
ATOM      6  N   UNL     1      16.402   8.821  20.951  0.00  0.00    -0.176 NA
ATOM      7  N   UNL     1      15.920  11.719  19.815  0.00  0.00    -0.311 N 
ATOM      8  C   UNL     1      17.806  10.846  21.317  0.00  0.00    +0.025 C 
ATOM      9  C   UNL     1      15.486  10.817  22.121  0.00  0.00    +0.053 C 
ATOM     10  C   UNL     1      16.901  11.283  22.458  0.00  0.00    +0.017 C 
ATOM     11  C   UNL     1      17.791   9.317  21.162  0.00  0.00    +0.114 C 
ATOM     12  C   UNL     1      15.464   9.280  22.017  0.00  0.00    +0.119 C 
ATOM     13  C   UNL     1      17.364  11.564  20.041  0.00  0.00    +0.130 C 
ATOM     14  C   UNL     1      14.976  11.456  20.827  0.00  0.00    +0.034 A 
ATOM     15  C   UNL     1      13.666  11.753  20.622  0.00  0.00    +0.002 A 
ATOM     16  C   UNL     1      15.559  12.254  18.565  0.00  0.00    +0.252 A 
ATOM     17  C   UNL     1      13.255  12.303  19.344  0.00  0.00    +0.015 A 
ATOM     18  C   UNL     1      14.120  12.535  18.358  0.00  0.00    +0.071 A 
ENDROOT
BRANCH  15  20
ATOM     20  C   UNL     1      12.640  11.515  21.662  0.00  0.00    -0.016 A 
ATOM     23  C   UNL     1      11.927  10.320  21.669  0.00  0.00    +0.008 A 
ATOM     24  C   UNL     1      12.396  12.487  22.626  0.00  0.00    +0.008 A 
ATOM     27  C   UNL     1      10.961  10.095  22.649  0.00  0.00    +0.001 A 
ATOM     28  C   UNL     1      11.429  12.263  23.607  0.00  0.00    +0.001 A 
ATOM     30  C   UNL     1      10.713  11.066  23.618  0.00  0.00    +0.000 A 
ENDBRANCH  15  20
BRANCH   6   1
ATOM      1  S   UNL     1      16.263   7.177  20.498  0.00  0.00    +0.061 S 
ATOM      2  O   UNL     1      15.978   6.384  21.675  0.00  0.00    -0.153 OA
ATOM      3  O   UNL     1      17.361   6.836  19.618  0.00  0.00    -0.153 OA
BRANCH   1  19
ATOM     19  C   UNL     1      14.791   7.248  19.526  0.00  0.00    +0.106 A 
ATOM     21  C   UNL     1      13.585   6.868  20.092  0.00  0.00    +0.032 A 
ATOM     22  C   UNL     1      14.867   7.682  18.212  0.00  0.00    +0.032 A 
ATOM     25  C   UNL     1      12.422   6.925  19.323  0.00  0.00    +0.047 A 
ATOM     26  C   UNL     1      13.704   7.740  17.444  0.00  0.00    +0.047 A 
ATOM     29  C   UNL     1      12.482   7.360  18.000  0.00  0.00    +0.120 A 
BRANCH  29   5
ATOM      5  O   UNL     1      11.347   7.416  17.250  0.00  0.00    -0.495 OA
ATOM     31  C   UNL     1      10.981   8.688  16.720  0.00  0.00    +0.277 C 
ENDBRANCH  29   5
ENDBRANCH   1  19
ENDBRANCH   6   1
TORSDOF 4
ENDMDL
MODEL 2
REMARK VINA RESULT:      -6.6     13.556     16.069
REMARK  Name = 7155442
REMARK  5 active torsions:
REMARK  status: ('A' for Active; 'I' for Inactive)
REMARK    1  A    between atoms: S_1  and  N_6
REMARK    2  A    between atoms: S_1  and  C_19
REMARK    3  A    between atoms: O_5  and  C_29
REMARK    4  A    between atoms: O_5  and  C_31
REMARK    5  A    between atoms: C_15  and  C_20
REMARK                            x       y       z     vdW  Elec       q    Type
REMARK                         _______ _______ _______ _____ _____    ______ ____
ROOT
ATOM      4  O   UNL     1       8.848  10.037   3.113  0.00  0.00    -0.268 OA
ATOM      6  N   UNL     1      12.951   8.786   5.589  0.00  0.00    -0.176 NA
ATOM      7  N   UNL     1       9.894   9.366   5.099  0.00  0.00    -0.311 N 
ATOM      8  C   UNL     1      11.671  10.822   6.237  0.00  0.00    +0.025 C 
ATOM      9  C   UNL     1      11.064   8.650   7.205  0.00  0.00    +0.053 C 
ATOM     10  C   UNL     1      11.205  10.138   7.512  0.00  0.00    +0.017 C 
ATOM     11  C   UNL     1      13.028  10.261   5.781  0.00  0.00    +0.114 C 
ATOM     12  C   UNL     1      12.437   8.079   6.798  0.00  0.00    +0.119 C 
ATOM     13  C   UNL     1      10.587  10.660   5.171  0.00  0.00    +0.130 C 
ATOM     14  C   UNL     1      10.024   8.395   6.111  0.00  0.00    +0.034 A 
ATOM     15  C   UNL     1       9.253   7.277   6.078  0.00  0.00    +0.002 A 
ATOM     16  C   UNL     1       9.010   9.215   4.015  0.00  0.00    +0.252 A 
ATOM     17  C   UNL     1       8.332   7.084   4.973  0.00  0.00    +0.015 A 
ATOM     18  C   UNL     1       8.208   7.970   3.987  0.00  0.00    +0.071 A 
ENDROOT
BRANCH  15  20
ATOM     20  C   UNL     1       9.338   6.238   7.129  0.00  0.00    -0.016 A 
ATOM     23  C   UNL     1       9.811   4.970   6.810  0.00  0.00    +0.008 A 
ATOM     24  C   UNL     1       8.945   6.539   8.429  0.00  0.00    +0.008 A 
ATOM     27  C   UNL     1       9.892   3.991   7.801  0.00  0.00    +0.001 A 
ATOM     28  C   UNL     1       9.025   5.561   9.421  0.00  0.00    +0.001 A 
ATOM     30  C   UNL     1       9.499   4.287   9.106  0.00  0.00    +0.000 A 
ENDBRANCH  15  20
BRANCH   6   1
ATOM      1  S   UNL     1      14.304   8.066   4.829  0.00  0.00    +0.061 S 
ATOM      2  O   UNL     1      14.964   7.187   5.770  0.00  0.00    -0.153 OA
ATOM      3  O   UNL     1      15.045   9.088   4.118  0.00  0.00    -0.153 OA
BRANCH   1  19
ATOM     19  C   UNL     1      13.486   7.058   3.631  0.00  0.00    +0.106 A 
ATOM     21  C   UNL     1      14.223   6.495   2.602  0.00  0.00    +0.032 A 
ATOM     22  C   UNL     1      12.121   6.848   3.741  0.00  0.00    +0.032 A 
ATOM     25  C   UNL     1      13.576   5.699   1.657  0.00  0.00    +0.047 A 
ATOM     26  C   UNL     1      11.475   6.052   2.796  0.00  0.00    +0.047 A 
ATOM     29  C   UNL     1      12.203   5.478   1.754  0.00  0.00    +0.120 A 
BRANCH  29   5
ATOM      5  O   UNL     1      11.573   4.700   0.831  0.00  0.00    -0.495 OA
ATOM     31  C   UNL     1      10.262   4.240   1.157  0.00  0.00    +0.277 C 
ENDBRANCH  29   5
ENDBRANCH   1  19
ENDBRANCH   6   1
TORSDOF 4
ENDMDL
MODEL 3
REMARK VINA RESULT:      -6.5     14.164     16.730
REMARK  Name = 7155442
REMARK  5 active torsions:
REMARK  status: ('A' for Active; 'I' for Inactive)
REMARK    1  A    between atoms: S_1  and  N_6
REMARK    2  A    between atoms: S_1  and  C_19
REMARK    3  A    between atoms: O_5  and  C_29
REMARK    4  A    between atoms: O_5  and  C_31
REMARK    5  A    between atoms: C_15  and  C_20
REMARK                            x       y       z     vdW  Elec       q    Type
REMARK                         _______ _______ _______ _____ _____    ______ ____
ROOT
ATOM      4  O   UNL     1      21.845  -7.276  23.517  0.00  0.00    -0.268 OA
ATOM      6  N   UNL     1      19.813  -4.573  27.135  0.00  0.00    -0.176 NA
ATOM      7  N   UNL     1      20.914  -5.261  24.266  0.00  0.00    -0.311 N 
ATOM      8  C   UNL     1      21.998  -3.899  26.149  0.00  0.00    +0.025 C 
ATOM      9  C   UNL     1      19.911  -3.119  25.118  0.00  0.00    +0.053 C 
ATOM     10  C   UNL     1      21.339  -2.710  25.469  0.00  0.00    +0.017 C 
ATOM     11  C   UNL     1      21.243  -4.284  27.431  0.00  0.00    +0.114 C 
ATOM     12  C   UNL     1      19.142  -3.454  26.411  0.00  0.00    +0.119 C 
ATOM     13  C   UNL     1      22.070  -5.055  25.149  0.00  0.00    +0.130 C 
ATOM     14  C   UNL     1      19.886  -4.304  24.149  0.00  0.00    +0.034 A 
ATOM     15  C   UNL     1      18.914  -4.468  23.215  0.00  0.00    +0.002 A 
ATOM     16  C   UNL     1      20.964  -6.417  23.466  0.00  0.00    +0.252 A 
ATOM     17  C   UNL     1      18.931  -5.650  22.374  0.00  0.00    +0.015 A 
ATOM     18  C   UNL     1      19.873  -6.586  22.480  0.00  0.00    +0.071 A 
ENDROOT
BRANCH  15  20
ATOM     20  C   UNL     1      17.826  -3.480  23.040  0.00  0.00    -0.016 A 
ATOM     23  C   UNL     1      16.527  -3.809  23.415  0.00  0.00    +0.008 A 
ATOM     24  C   UNL     1      18.109  -2.228  22.503  0.00  0.00    +0.008 A 
ATOM     27  C   UNL     1      15.501  -2.878  23.251  0.00  0.00    +0.001 A 
ATOM     28  C   UNL     1      17.084  -1.296  22.339  0.00  0.00    +0.001 A 
ATOM     30  C   UNL     1      15.780  -1.622  22.714  0.00  0.00    +0.000 A 
ENDBRANCH  15  20
BRANCH   6   1
ATOM      1  S   UNL     1      18.917  -5.269  28.416  0.00  0.00    +0.061 S 
ATOM      2  O   UNL     1      18.176  -4.229  29.097  0.00  0.00    -0.153 OA
ATOM      3  O   UNL     1      19.773  -6.177  29.151  0.00  0.00    -0.153 OA
BRANCH   1  19
ATOM     19  C   UNL     1      17.764  -6.239  27.495  0.00  0.00    +0.106 A 
ATOM     21  C   UNL     1      16.439  -6.281  27.898  0.00  0.00    +0.032 A 
ATOM     22  C   UNL     1      18.203  -6.941  26.384  0.00  0.00    +0.032 A 
ATOM     25  C   UNL     1      15.529  -7.047  27.170  0.00  0.00    +0.047 A 
ATOM     26  C   UNL     1      17.293  -7.706  25.656  0.00  0.00    +0.047 A 
ATOM     29  C   UNL     1      15.955  -7.759  26.050  0.00  0.00    +0.120 A 
BRANCH  29   5
ATOM      5  O   UNL     1      15.066  -8.506  25.339  0.00  0.00    -0.495 OA
ATOM     31  C   UNL     1      15.239  -9.922  25.366  0.00  0.00    +0.277 C 
ENDBRANCH  29   5
ENDBRANCH   1  19
ENDBRANCH   6   1
TORSDOF 4
ENDMDL
MODEL 4
REMARK VINA RESULT:      -6.4     13.540     16.478
REMARK  Name = 7155442
REMARK  5 active torsions:
REMARK  status: ('A' for Active; 'I' for Inactive)
REMARK    1  A    between atoms: S_1  and  N_6
REMARK    2  A    between atoms: S_1  and  C_19
REMARK    3  A    between atoms: O_5  and  C_29
REMARK    4  A    between atoms: O_5  and  C_31
REMARK    5  A    between atoms: C_15  and  C_20
REMARK                            x       y       z     vdW  Elec       q    Type
REMARK                         _______ _______ _______ _____ _____    ______ ____
ROOT
ATOM      4  O   UNL     1      19.510  -5.039  21.251  0.00  0.00    -0.268 OA
ATOM      6  N   UNL     1      18.936  -1.983  25.105  0.00  0.00    -0.176 NA
ATOM      7  N   UNL     1      18.229  -4.264  23.052  0.00  0.00    -0.311 N 
ATOM      8  C   UNL     1      17.388  -1.844  23.158  0.00  0.00    +0.025 C 
ATOM      9  C   UNL     1      16.890  -3.396  24.994  0.00  0.00    +0.053 C 
ATOM     10  C   UNL     1      16.262  -2.427  23.996  0.00  0.00    +0.017 C 
ATOM     11  C   UNL     1      18.394  -1.090  24.043  0.00  0.00    +0.114 C 
ATOM     12  C   UNL     1      17.859  -2.627  25.914  0.00  0.00    +0.119 C 
ATOM     13  C   UNL     1      18.045  -2.977  22.368  0.00  0.00    +0.130 C 
ATOM     14  C   UNL     1      17.611  -4.546  24.286  0.00  0.00    +0.034 A 
ATOM     15  C   UNL     1      17.688  -5.797  24.811  0.00  0.00    +0.002 A 
ATOM     16  C   UNL     1      18.964  -5.228  22.337  0.00  0.00    +0.252 A 
ATOM     17  C   UNL     1      18.441  -6.816  24.104  0.00  0.00    +0.015 A 
ATOM     18  C   UNL     1      19.059  -6.573  22.950  0.00  0.00    +0.071 A 
ENDROOT
BRANCH  15  20
ATOM     20  C   UNL     1      17.039  -6.147  26.094  0.00  0.00    -0.016 A 
ATOM     23  C   UNL     1      17.735  -5.987  27.287  0.00  0.00    +0.008 A 
ATOM     24  C   UNL     1      15.735  -6.633  26.098  0.00  0.00    +0.008 A 
ATOM     27  C   UNL     1      17.123  -6.315  28.497  0.00  0.00    +0.001 A 
ATOM     28  C   UNL     1      15.121  -6.962  27.306  0.00  0.00    +0.001 A 
ATOM     30  C   UNL     1      15.816  -6.803  28.506  0.00  0.00    +0.000 A 
ENDBRANCH  15  20
BRANCH   6   1
ATOM      1  S   UNL     1      20.258  -1.359  25.994  0.00  0.00    +0.061 S 
ATOM      2  O   UNL     1      19.922  -1.353  27.401  0.00  0.00    -0.153 OA
ATOM      3  O   UNL     1      20.744  -0.162  25.339  0.00  0.00    -0.153 OA
BRANCH   1  19
ATOM     19  C   UNL     1      21.442  -2.642  25.727  0.00  0.00    +0.106 A 
ATOM     21  C   UNL     1      22.762  -2.432  26.090  0.00  0.00    +0.032 A 
ATOM     22  C   UNL     1      21.031  -3.836  25.158  0.00  0.00    +0.032 A 
ATOM     25  C   UNL     1      23.697  -3.446  25.878  0.00  0.00    +0.047 A 
ATOM     26  C   UNL     1      21.965  -4.850  24.948  0.00  0.00    +0.047 A 
ATOM     29  C   UNL     1      23.299  -4.654  25.308  0.00  0.00    +0.120 A 
BRANCH  29   5
ATOM      5  O   UNL     1      24.211  -5.643  25.103  0.00  0.00    -0.495 OA
ATOM     31  C   UNL     1      23.839  -6.695  24.215  0.00  0.00    +0.277 C 
ENDBRANCH  29   5
ENDBRANCH   1  19
ENDBRANCH   6   1
TORSDOF 4
ENDMDL
MODEL 5
REMARK VINA RESULT:      -6.4     13.732     16.164
REMARK  Name = 7155442
REMARK  5 active torsions:
REMARK  status: ('A' for Active; 'I' for Inactive)
REMARK    1  A    between atoms: S_1  and  N_6
REMARK    2  A    between atoms: S_1  and  C_19
REMARK    3  A    between atoms: O_5  and  C_29
REMARK    4  A    between atoms: O_5  and  C_31
REMARK    5  A    between atoms: C_15  and  C_20
REMARK                            x       y       z     vdW  Elec       q    Type
REMARK                         _______ _______ _______ _____ _____    ______ ____
ROOT
ATOM      4  O   UNL     1      22.698  -2.617  28.353  0.00  0.00    -0.268 OA
ATOM      6  N   UNL     1      18.956  -5.667  27.250  0.00  0.00    -0.176 NA
ATOM      7  N   UNL     1      20.464  -2.944  27.727  0.00  0.00    -0.311 N 
ATOM      8  C   UNL     1      18.814  -4.186  29.247  0.00  0.00    +0.025 C 
ATOM      9  C   UNL     1      18.074  -3.348  27.061  0.00  0.00    +0.053 C 
ATOM     10  C   UNL     1      17.763  -3.333  28.556  0.00  0.00    +0.017 C 
ATOM     11  C   UNL     1      18.773  -5.632  28.727  0.00  0.00    +0.114 C 
ATOM     12  C   UNL     1      17.982  -4.793  26.533  0.00  0.00    +0.119 C 
ATOM     13  C   UNL     1      20.182  -3.534  29.044  0.00  0.00    +0.130 C 
ATOM     14  C   UNL     1      19.452  -2.749  26.767  0.00  0.00    +0.034 A 
ATOM     15  C   UNL     1      19.728  -2.068  25.624  0.00  0.00    +0.002 A 
ATOM     16  C   UNL     1      21.781  -2.485  27.541  0.00  0.00    +0.252 A 
ATOM     17  C   UNL     1      21.076  -1.584  25.395  0.00  0.00    +0.015 A 
ATOM     18  C   UNL     1      22.060  -1.777  26.271  0.00  0.00    +0.071 A 
ENDROOT
BRANCH  15  20
ATOM     20  C   UNL     1      18.693  -1.820  24.595  0.00  0.00    -0.016 A 
ATOM     23  C   UNL     1      18.622  -2.642  23.475  0.00  0.00    +0.008 A 
ATOM     24  C   UNL     1      17.798  -0.767  24.755  0.00  0.00    +0.008 A 
ATOM     27  C   UNL     1      17.646  -2.409  22.505  0.00  0.00    +0.001 A 
ATOM     28  C   UNL     1      16.822  -0.533  23.786  0.00  0.00    +0.001 A 
ATOM     30  C   UNL     1      16.747  -1.355  22.662  0.00  0.00    +0.000 A 
ENDBRANCH  15  20
BRANCH   6   1
ATOM      1  S   UNL     1      19.199  -7.218  26.570  0.00  0.00    +0.061 S 
ATOM      2  O   UNL     1      17.955  -7.956  26.615  0.00  0.00    -0.153 OA
ATOM      3  O   UNL     1      20.420  -7.782  27.107  0.00  0.00    -0.153 OA
BRANCH   1  19
ATOM     19  C   UNL     1      19.502  -6.774  24.888  0.00  0.00    +0.106 A 
ATOM     21  C   UNL     1      20.683  -6.131  24.559  0.00  0.00    +0.032 A 
ATOM     22  C   UNL     1      18.552  -7.077  23.925  0.00  0.00    +0.032 A 
ATOM     25  C   UNL     1      20.922  -5.781  23.229  0.00  0.00    +0.047 A 
ATOM     26  C   UNL     1      18.791  -6.728  22.596  0.00  0.00    +0.047 A 
ATOM     29  C   UNL     1      19.976  -6.079  22.249  0.00  0.00    +0.120 A 
BRANCH  29   5
ATOM      5  O   UNL     1      20.210  -5.738  20.952  0.00  0.00    -0.495 OA
ATOM     31  C   UNL     1      19.571  -6.525  19.949  0.00  0.00    +0.277 C 
ENDBRANCH  29   5
ENDBRANCH   1  19
ENDBRANCH   6   1
TORSDOF 4
ENDMDL
MODEL 6
REMARK VINA RESULT:      -6.2     27.719     30.170
REMARK  Name = 7155442
REMARK  5 active torsions:
REMARK  status: ('A' for Active; 'I' for Inactive)
REMARK    1  A    between atoms: S_1  and  N_6
REMARK    2  A    between atoms: S_1  and  C_19
REMARK    3  A    between atoms: O_5  and  C_29
REMARK    4  A    between atoms: O_5  and  C_31
REMARK    5  A    between atoms: C_15  and  C_20
REMARK                            x       y       z     vdW  Elec       q    Type
REMARK                         _______ _______ _______ _____ _____    ______ ____
ROOT
ATOM      4  O   UNL     1      -1.406 -12.418  13.478  0.00  0.00    -0.268 OA
ATOM      6  N   UNL     1      -6.120 -13.878  13.893  0.00  0.00    -0.176 NA
ATOM      7  N   UNL     1      -3.208 -13.101  14.809  0.00  0.00    -0.311 N 
ATOM      8  C   UNL     1      -4.272 -15.419  14.539  0.00  0.00    +0.025 C 
ATOM      9  C   UNL     1      -5.171 -13.843  16.193  0.00  0.00    +0.053 C 
ATOM     10  C   UNL     1      -4.636 -15.261  16.006  0.00  0.00    +0.017 C 
ATOM     11  C   UNL     1      -5.505 -15.212  13.644  0.00  0.00    +0.114 C 
ATOM     12  C   UNL     1      -6.437 -13.656  15.334  0.00  0.00    +0.119 C 
ATOM     13  C   UNL     1      -3.143 -14.441  14.208  0.00  0.00    +0.130 C 
ATOM     14  C   UNL     1      -4.115 -12.791  15.841  0.00  0.00    +0.034 A 
ATOM     15  C   UNL     1      -4.041 -11.588  16.467  0.00  0.00    +0.002 A 
ATOM     16  C   UNL     1      -2.230 -12.193  14.364  0.00  0.00    +0.252 A 
ATOM     17  C   UNL     1      -3.048 -10.624  16.033  0.00  0.00    +0.015 A 
ATOM     18  C   UNL     1      -2.195 -10.876  15.041  0.00  0.00    +0.071 A 
ENDROOT
BRANCH  15  20
ATOM     20  C   UNL     1      -4.958 -11.224  17.570  0.00  0.00    -0.016 A 
ATOM     23  C   UNL     1      -4.665 -11.619  18.871  0.00  0.00    +0.008 A 
ATOM     24  C   UNL     1      -6.108 -10.489  17.299  0.00  0.00    +0.008 A 
ATOM     27  C   UNL     1      -5.528 -11.276  19.912  0.00  0.00    +0.001 A 
ATOM     28  C   UNL     1      -6.972 -10.145  18.338  0.00  0.00    +0.001 A 
ATOM     30  C   UNL     1      -6.681 -10.539  19.645  0.00  0.00    +0.000 A 
ENDBRANCH  15  20
BRANCH   6   1
ATOM      1  S   UNL     1      -7.334 -13.404  12.785  0.00  0.00    +0.061 S 
ATOM      2  O   UNL     1      -8.502 -12.968  13.520  0.00  0.00    -0.153 OA
ATOM      3  O   UNL     1      -7.440 -14.405  11.744  0.00  0.00    -0.153 OA
BRANCH   1  19
ATOM     19  C   UNL     1      -6.572 -11.973  12.085  0.00  0.00    +0.106 A 
ATOM     21  C   UNL     1      -7.056 -11.462  10.892  0.00  0.00    +0.032 A 
ATOM     22  C   UNL     1      -5.502 -11.385  12.741  0.00  0.00    +0.032 A 
ATOM     25  C   UNL     1      -6.454 -10.332  10.340  0.00  0.00    +0.047 A 
ATOM     26  C   UNL     1      -4.900 -10.255  12.189  0.00  0.00    +0.047 A 
ATOM     29  C   UNL     1      -5.376  -9.729  10.988  0.00  0.00    +0.120 A 
BRANCH  29   5
ATOM      5  O   UNL     1      -4.790  -8.625  10.449  0.00  0.00    -0.495 OA
ATOM     31  C   UNL     1      -4.054  -8.806   9.240  0.00  0.00    +0.277 C 
ENDBRANCH  29   5
ENDBRANCH   1  19
ENDBRANCH   6   1
TORSDOF 4
ENDMDL
MODEL 7
REMARK VINA RESULT:      -6.2     27.188     30.543
REMARK  Name = 7155442
REMARK  5 active torsions:
REMARK  status: ('A' for Active; 'I' for Inactive)
REMARK    1  A    between atoms: S_1  and  N_6
REMARK    2  A    between atoms: S_1  and  C_19
REMARK    3  A    between atoms: O_5  and  C_29
REMARK    4  A    between atoms: O_5  and  C_31
REMARK    5  A    between atoms: C_15  and  C_20
REMARK                            x       y       z     vdW  Elec       q    Type
REMARK                         _______ _______ _______ _____ _____    ______ ____
ROOT
ATOM      4  O   UNL     1      -4.391 -12.951  18.516  0.00  0.00    -0.268 OA
ATOM      6  N   UNL     1      -7.221 -12.778  14.456  0.00  0.00    -0.176 NA
ATOM      7  N   UNL     1      -6.499 -12.721  17.521  0.00  0.00    -0.311 N 
ATOM      8  C   UNL     1      -7.535 -14.603  16.122  0.00  0.00    +0.025 C 
ATOM      9  C   UNL     1      -8.739 -12.483  16.405  0.00  0.00    +0.053 C 
ATOM     10  C   UNL     1      -8.859 -13.997  16.555  0.00  0.00    +0.017 C 
ATOM     11  C   UNL     1      -7.227 -14.254  14.657  0.00  0.00    +0.114 C 
ATOM     12  C   UNL     1      -8.482 -12.133  14.927  0.00  0.00    +0.119 C 
ATOM     13  C   UNL     1      -6.442 -14.120  17.076  0.00  0.00    +0.130 C 
ATOM     14  C   UNL     1      -7.632 -11.915  17.299  0.00  0.00    +0.034 A 
ATOM     15  C   UNL     1      -7.701 -10.677  17.854  0.00  0.00    +0.002 A 
ATOM     16  C   UNL     1      -5.398 -12.283  18.280  0.00  0.00    +0.252 A 
ATOM     17  C   UNL     1      -6.583 -10.190  18.640  0.00  0.00    +0.015 A 
ATOM     18  C   UNL     1      -5.486 -10.917  18.844  0.00  0.00    +0.071 A 
ENDROOT
BRANCH  15  20
ATOM     20  C   UNL     1      -8.879  -9.801  17.666  0.00  0.00    -0.016 A 
ATOM     23  C   UNL     1      -8.819  -8.745  16.763  0.00  0.00    +0.008 A 
ATOM     24  C   UNL     1     -10.041 -10.041  18.394  0.00  0.00    +0.008 A 
ATOM     27  C   UNL     1      -9.930  -7.920  16.585  0.00  0.00    +0.001 A 
ATOM     28  C   UNL     1     -11.152  -9.217  18.217  0.00  0.00    +0.001 A 
ATOM     30  C   UNL     1     -11.096  -8.157  17.312  0.00  0.00    +0.000 A 
ENDBRANCH  15  20
BRANCH   6   1
ATOM      1  S   UNL     1      -6.632 -12.238  12.943  0.00  0.00    +0.061 S 
ATOM      2  O   UNL     1      -7.459 -11.146  12.476  0.00  0.00    -0.153 OA
ATOM      3  O   UNL     1      -6.371 -13.387  12.101  0.00  0.00    -0.153 OA
BRANCH   1  19
ATOM     19  C   UNL     1      -5.077 -11.565  13.439  0.00  0.00    +0.106 A 
ATOM     21  C   UNL     1      -4.848 -11.302  14.779  0.00  0.00    +0.032 A 
ATOM     22  C   UNL     1      -4.112 -11.310  12.477  0.00  0.00    +0.032 A 
ATOM     25  C   UNL     1      -3.619 -10.771  15.170  0.00  0.00    +0.047 A 
ATOM     26  C   UNL     1      -2.883 -10.779  12.868  0.00  0.00    +0.047 A 
ATOM     29  C   UNL     1      -2.637 -10.509  14.215  0.00  0.00    +0.120 A 
BRANCH  29   5
ATOM      5  O   UNL     1      -1.437  -9.991  14.597  0.00  0.00    -0.495 OA
ATOM     31  C   UNL     1      -0.964 -10.340  15.896  0.00  0.00    +0.277 C 
ENDBRANCH  29   5
ENDBRANCH   1  19
ENDBRANCH   6   1
TORSDOF 4
ENDMDL
MODEL 8
REMARK VINA RESULT:      -6.1     14.585     17.366
REMARK  Name = 7155442
REMARK  5 active torsions:
REMARK  status: ('A' for Active; 'I' for Inactive)
REMARK    1  A    between atoms: S_1  and  N_6
REMARK    2  A    between atoms: S_1  and  C_19
REMARK    3  A    between atoms: O_5  and  C_29
REMARK    4  A    between atoms: O_5  and  C_31
REMARK    5  A    between atoms: C_15  and  C_20
REMARK                            x       y       z     vdW  Elec       q    Type
REMARK                         _______ _______ _______ _____ _____    ______ ____
ROOT
ATOM      4  O   UNL     1      18.452  -8.682  26.913  0.00  0.00    -0.268 OA
ATOM      6  N   UNL     1      19.037  -4.039  28.534  0.00  0.00    -0.176 NA
ATOM      7  N   UNL     1      19.048  -6.453  26.511  0.00  0.00    -0.311 N 
ATOM      8  C   UNL     1      21.005  -5.344  27.742  0.00  0.00    +0.025 C 
ATOM      9  C   UNL     1      19.681  -4.050  26.131  0.00  0.00    +0.053 C 
ATOM     10  C   UNL     1      21.100  -4.472  26.502  0.00  0.00    +0.017 C 
ATOM     11  C   UNL     1      20.378  -4.567  28.911  0.00  0.00    +0.114 C 
ATOM     12  C   UNL     1      19.074  -3.226  27.283  0.00  0.00    +0.119 C 
ATOM     13  C   UNL     1      20.214  -6.605  27.393  0.00  0.00    +0.130 C 
ATOM     14  C   UNL     1      18.800  -5.260  25.805  0.00  0.00    +0.034 A 
ATOM     15  C   UNL     1      17.797  -5.211  24.890  0.00  0.00    +0.002 A 
ATOM     16  C   UNL     1      18.270  -7.611  26.333  0.00  0.00    +0.252 A 
ATOM     17  C   UNL     1      16.971  -6.386  24.683  0.00  0.00    +0.015 A 
ATOM     18  C   UNL     1      17.162  -7.519  25.355  0.00  0.00    +0.071 A 
ENDROOT
BRANCH  15  20
ATOM     20  C   UNL     1      17.511  -3.988  24.108  0.00  0.00    -0.016 A 
ATOM     23  C   UNL     1      16.457  -3.161  24.480  0.00  0.00    +0.008 A 
ATOM     24  C   UNL     1      18.301  -3.672  23.007  0.00  0.00    +0.008 A 
ATOM     27  C   UNL     1      16.188  -2.006  23.745  0.00  0.00    +0.001 A 
ATOM     28  C   UNL     1      18.033  -2.518  22.270  0.00  0.00    +0.001 A 
ATOM     30  C   UNL     1      16.976  -1.685  22.640  0.00  0.00    +0.000 A 
ENDBRANCH  15  20
BRANCH   6   1
ATOM      1  S   UNL     1      18.111  -3.385  29.815  0.00  0.00    +0.061 S 
ATOM      2  O   UNL     1      17.607  -2.087  29.422  0.00  0.00    -0.153 OA
ATOM      3  O   UNL     1      18.836  -3.557  31.057  0.00  0.00    -0.153 OA
BRANCH   1  19
ATOM     19  C   UNL     1      16.752  -4.512  29.822  0.00  0.00    +0.106 A 
ATOM     21  C   UNL     1      15.723  -4.330  30.731  0.00  0.00    +0.032 A 
ATOM     22  C   UNL     1      16.737  -5.561  28.916  0.00  0.00    +0.032 A 
ATOM     25  C   UNL     1      14.650  -5.221  30.735  0.00  0.00    +0.047 A 
ATOM     26  C   UNL     1      15.663  -6.452  28.920  0.00  0.00    +0.047 A 
ATOM     29  C   UNL     1      14.620  -6.281  29.830  0.00  0.00    +0.120 A 
BRANCH  29   5
ATOM      5  O   UNL     1      13.572  -7.150  29.834  0.00  0.00    -0.495 OA
ATOM     31  C   UNL     1      12.417  -6.770  30.580  0.00  0.00    +0.277 C 
ENDBRANCH  29   5
ENDBRANCH   1  19
ENDBRANCH   6   1
TORSDOF 4
ENDMDL
MODEL 9
REMARK VINA RESULT:      -6.0     13.609     16.453
REMARK  Name = 7155442
REMARK  5 active torsions:
REMARK  status: ('A' for Active; 'I' for Inactive)
REMARK    1  A    between atoms: S_1  and  N_6
REMARK    2  A    between atoms: S_1  and  C_19
REMARK    3  A    between atoms: O_5  and  C_29
REMARK    4  A    between atoms: O_5  and  C_31
REMARK    5  A    between atoms: C_15  and  C_20
REMARK                            x       y       z     vdW  Elec       q    Type
REMARK                         _______ _______ _______ _____ _____    ______ ____
ROOT
ATOM      4  O   UNL     1      19.241  -7.007  28.333  0.00  0.00    -0.268 OA
ATOM      6  N   UNL     1      21.564  -2.702  27.558  0.00  0.00    -0.176 NA
ATOM      7  N   UNL     1      20.001  -5.348  26.865  0.00  0.00    -0.311 N 
ATOM      8  C   UNL     1      22.497  -4.813  26.621  0.00  0.00    +0.025 C 
ATOM      9  C   UNL     1      20.840  -3.542  25.330  0.00  0.00    +0.053 C 
ATOM     10  C   UNL     1      22.116  -4.373  25.217  0.00  0.00    +0.017 C 
ATOM     11  C   UNL     1      22.754  -3.596  27.525  0.00  0.00    +0.114 C 
ATOM     12  C   UNL     1      21.116  -2.296  26.194  0.00  0.00    +0.119 C 
ATOM     13  C   UNL     1      21.391  -5.717  27.167  0.00  0.00    +0.130 C 
ATOM     14  C   UNL     1      19.684  -4.361  25.911  0.00  0.00    +0.034 A 
ATOM     15  C   UNL     1      18.389  -4.154  25.557  0.00  0.00    +0.002 A 
ATOM     16  C   UNL     1      19.018  -6.124  27.505  0.00  0.00    +0.252 A 
ATOM     17  C   UNL     1      17.347  -4.933  26.199  0.00  0.00    +0.015 A 
ATOM     18  C   UNL     1      17.613  -5.854  27.124  0.00  0.00    +0.071 A 
ENDROOT
BRANCH  15  20
ATOM     20  C   UNL     1      18.007  -3.144  24.546  0.00  0.00    -0.016 A 
ATOM     23  C   UNL     1      17.514  -1.909  24.954  0.00  0.00    +0.008 A 
ATOM     24  C   UNL     1      18.146  -3.435  23.192  0.00  0.00    +0.008 A 
ATOM     27  C   UNL     1      17.155  -0.956  24.001  0.00  0.00    +0.001 A 
ATOM     28  C   UNL     1      17.788  -2.483  22.238  0.00  0.00    +0.001 A 
ATOM     30  C   UNL     1      17.293  -1.243  22.643  0.00  0.00    +0.000 A 
ENDBRANCH  15  20
BRANCH   6   1
ATOM      1  S   UNL     1      21.607  -1.453  28.727  0.00  0.00    +0.061 S 
ATOM      2  O   UNL     1      21.728  -0.178  28.053  0.00  0.00    -0.153 OA
ATOM      3  O   UNL     1      22.524  -1.828  29.783  0.00  0.00    -0.153 OA
BRANCH   1  19
ATOM     19  C   UNL     1      19.965  -1.572  29.367  0.00  0.00    +0.106 A 
ATOM     21  C   UNL     1      19.619  -0.832  30.485  0.00  0.00    +0.032 A 
ATOM     22  C   UNL     1      19.052  -2.404  28.740  0.00  0.00    +0.032 A 
ATOM     25  C   UNL     1      18.322  -0.926  30.990  0.00  0.00    +0.047 A 
ATOM     26  C   UNL     1      17.755  -2.497  29.244  0.00  0.00    +0.047 A 
ATOM     29  C   UNL     1      17.391  -1.758  30.370  0.00  0.00    +0.120 A 
BRANCH  29   5
ATOM      5  O   UNL     1      16.125  -1.849  30.863  0.00  0.00    -0.495 OA
ATOM     31  C   UNL     1      15.950  -2.585  32.073  0.00  0.00    +0.277 C 
ENDBRANCH  29   5
ENDBRANCH   1  19
ENDBRANCH   6   1
TORSDOF 4
ENDMDL
MODEL 10
REMARK VINA RESULT:      -6.0     27.135     30.089
REMARK  Name = 7155442
REMARK  5 active torsions:
REMARK  status: ('A' for Active; 'I' for Inactive)
REMARK    1  A    between atoms: S_1  and  N_6
REMARK    2  A    between atoms: S_1  and  C_19
REMARK    3  A    between atoms: O_5  and  C_29
REMARK    4  A    between atoms: O_5  and  C_31
REMARK    5  A    between atoms: C_15  and  C_20
REMARK                            x       y       z     vdW  Elec       q    Type
REMARK                         _______ _______ _______ _____ _____    ______ ____
ROOT
ATOM      4  O   UNL     1      -1.931 -10.727  16.723  0.00  0.00    -0.268 OA
ATOM      6  N   UNL     1      -6.063 -12.763  14.903  0.00  0.00    -0.176 NA
ATOM      7  N   UNL     1      -3.731 -10.671  15.224  0.00  0.00    -0.311 N 
ATOM      8  C   UNL     1      -6.157 -10.551  16.044  0.00  0.00    +0.025 C 
ATOM      9  C   UNL     1      -5.682 -10.655  13.638  0.00  0.00    +0.053 C 
ATOM     10  C   UNL     1      -6.419  -9.863  14.715  0.00  0.00    +0.017 C 
ATOM     11  C   UNL     1      -6.678 -11.998  16.022  0.00  0.00    +0.114 C 
ATOM     12  C   UNL     1      -6.242 -12.089  13.583  0.00  0.00    +0.119 C 
ATOM     13  C   UNL     1      -4.660 -10.478  16.346  0.00  0.00    +0.130 C 
ATOM     14  C   UNL     1      -4.170 -10.671  13.885  0.00  0.00    +0.034 A 
ATOM     15  C   UNL     1      -3.262 -10.705  12.876  0.00  0.00    +0.002 A 
ATOM     16  C   UNL     1      -2.369 -10.738  15.572  0.00  0.00    +0.252 A 
ATOM     17  C   UNL     1      -1.849 -10.779  13.196  0.00  0.00    +0.015 A 
ATOM     18  C   UNL     1      -1.404 -10.809  14.451  0.00  0.00    +0.071 A 
ENDROOT
BRANCH  15  20
ATOM     20  C   UNL     1      -3.674 -10.686  11.454  0.00  0.00    -0.016 A 
ATOM     23  C   UNL     1      -3.819 -11.883  10.761  0.00  0.00    +0.008 A 
ATOM     24  C   UNL     1      -3.914  -9.470  10.821  0.00  0.00    +0.008 A 
ATOM     27  C   UNL     1      -4.209 -11.865   9.421  0.00  0.00    +0.001 A 
ATOM     28  C   UNL     1      -4.303  -9.451   9.482  0.00  0.00    +0.001 A 
ATOM     30  C   UNL     1      -4.451 -10.650   8.782  0.00  0.00    +0.000 A 
ENDBRANCH  15  20
BRANCH   6   1
ATOM      1  S   UNL     1      -6.344 -14.451  14.917  0.00  0.00    +0.061 S 
ATOM      2  O   UNL     1      -7.139 -14.809  13.761  0.00  0.00    -0.153 OA
ATOM      3  O   UNL     1      -6.745 -14.851  16.250  0.00  0.00    -0.153 OA
BRANCH   1  19
ATOM     19  C   UNL     1      -4.702 -15.040  14.646  0.00  0.00    +0.106 A 
ATOM     21  C   UNL     1      -4.431 -16.389  14.802  0.00  0.00    +0.032 A 
ATOM     22  C   UNL     1      -3.711 -14.142  14.281  0.00  0.00    +0.032 A 
ATOM     25  C   UNL     1      -3.133 -16.854  14.588  0.00  0.00    +0.047 A 
ATOM     26  C   UNL     1      -2.414 -14.607  14.066  0.00  0.00    +0.047 A 
ATOM     29  C   UNL     1      -2.125 -15.963  14.220  0.00  0.00    +0.120 A 
BRANCH  29   5
ATOM      5  O   UNL     1      -0.859 -16.418  14.010  0.00  0.00    -0.495 OA
ATOM     31  C   UNL     1       0.042 -15.540  13.339  0.00  0.00    +0.277 C 
ENDBRANCH  29   5
ENDBRANCH   1  19
ENDBRANCH   6   1
TORSDOF 4
ENDMDL
