MODEL 1
REMARK VINA RESULT:      -8.1      0.000      0.000
REMARK  Name = 11912475
REMARK  6 active torsions:
REMARK  status: ('A' for Active; 'I' for Inactive)
REMARK    1  A    between atoms: O_7  and  C_16
REMARK    2  A    between atoms: O_7  and  C_20
REMARK    3  A    between atoms: N_9  and  C_15
REMARK    4  A    between atoms: N_12  and  C_23
REMARK    5  A    between atoms: C_21  and  C_25
REMARK    6  A    between atoms: C_28  and  C_32
REMARK                            x       y       z     vdW  Elec       q    Type
REMARK                         _______ _______ _______ _____ _____    ______ ____
ROOT
ATOM      5  O   UNL     1     -16.026   1.736  25.339  0.00  0.00    -0.368 OA
ATOM      6  O   UNL     1     -19.009   2.342  25.725  0.00  0.00    -0.368 OA
ATOM     13  C   UNL     1     -18.179   1.272  26.221  0.00  0.00    +0.173 C 
ATOM     14  C   UNL     1     -17.197   0.930  25.119  0.00  0.00    +0.192 C 
ATOM     15  C   UNL     1     -17.304   1.776  27.347  0.00  0.00    +0.130 C 
ATOM     16  C   UNL     1     -17.941   1.355  23.876  0.00  0.00    +0.235 C 
ATOM     17  C   UNL     1     -16.149   2.418  26.596  0.00  0.00    +0.185 C 
ATOM     18  C   UNL     1     -18.679   2.586  24.349  0.00  0.00    +0.207 C 
ENDROOT
BRANCH  15   9
ATOM      9  N   UNL     1     -16.828   0.669  28.148  0.00  0.00    -0.306 N 
ATOM     10  N   UNL     1     -15.936   2.092  29.786  0.00  0.00    -0.214 NA
ATOM     11  N   UNL     1     -15.767  -0.302  30.001  0.00  0.00    -0.223 NA
ATOM     19  C   UNL     1     -16.157   0.824  29.348  0.00  0.00    +0.216 A 
ATOM     21  C   UNL     1     -15.279   2.206  30.959  0.00  0.00    +0.083 A 
ATOM     22  C   UNL     1     -15.115  -0.114  31.168  0.00  0.00    +0.116 A 
ATOM     24  C   UNL     1     -14.841   1.128  31.700  0.00  0.00    +0.049 A 
ATOM     35  H   UNL     1     -17.034  -0.281  27.857  0.00  0.00    +0.149 HD
BRANCH  21  25
ATOM      1  S   UNL     1     -16.069   4.805  30.789  0.00  0.00    -0.095 S 
ATOM     25  C   UNL     1     -15.059   3.559  31.398  0.00  0.00    +0.038 A 
ATOM     29  C   UNL     1     -14.115   4.049  32.276  0.00  0.00    +0.017 A 
ATOM     33  C   UNL     1     -14.222   5.459  32.453  0.00  0.00    +0.008 A 
ATOM     34  C   UNL     1     -15.245   5.997  31.702  0.00  0.00    +0.046 A 
ENDBRANCH  21  25
ENDBRANCH  15   9
BRANCH  16   7
ATOM      7  O   UNL     1     -17.096   1.630  22.781  0.00  0.00    -0.442 OA
BRANCH   7  20
ATOM      8  O   UNL     1     -17.808   3.417  21.547  0.00  0.00    -0.226 OA
ATOM     12  N   UNL     1     -15.973   3.574  22.991  0.00  0.00    -0.251 N 
ATOM     20  C   UNL     1     -17.027   2.942  22.360  0.00  0.00    +0.405 C 
ATOM     36  H   UNL     1     -15.433   3.006  23.640  0.00  0.00    +0.158 HD
BRANCH  12  23
ATOM     23  C   UNL     1     -15.550   4.915  22.847  0.00  0.00    +0.037 A 
ATOM     26  C   UNL     1     -14.437   5.197  22.071  0.00  0.00    +0.035 A 
ATOM     27  C   UNL     1     -16.258   5.922  23.484  0.00  0.00    +0.023 A 
ATOM     28  C   UNL     1     -14.021   6.521  21.928  0.00  0.00    +0.057 A 
ATOM     30  C   UNL     1     -15.842   7.246  23.341  0.00  0.00    +0.002 A 
ATOM     31  C   UNL     1     -14.723   7.546  22.563  0.00  0.00    +0.012 A 
BRANCH  28  32
ATOM      2  F   UNL     1     -12.193   7.994  21.467  0.00  0.00    -0.166 F 
ATOM      3  F   UNL     1     -11.859   5.877  21.133  0.00  0.00    -0.166 F 
ATOM      4  F   UNL     1     -13.133   7.002  19.776  0.00  0.00    -0.166 F 
ATOM     32  C   UNL     1     -12.826   6.841  21.095  0.00  0.00    +0.417 C 
ENDBRANCH  28  32
ENDBRANCH  12  23
ENDBRANCH   7  20
ENDBRANCH  16   7
TORSDOF 6
ENDMDL
MODEL 2
REMARK VINA RESULT:      -7.8     32.323     35.306
REMARK  Name = 11912475
REMARK  6 active torsions:
REMARK  status: ('A' for Active; 'I' for Inactive)
REMARK    1  A    between atoms: O_7  and  C_16
REMARK    2  A    between atoms: O_7  and  C_20
REMARK    3  A    between atoms: N_9  and  C_15
REMARK    4  A    between atoms: N_12  and  C_23
REMARK    5  A    between atoms: C_21  and  C_25
REMARK    6  A    between atoms: C_28  and  C_32
REMARK                            x       y       z     vdW  Elec       q    Type
REMARK                         _______ _______ _______ _____ _____    ______ ____
ROOT
ATOM      5  O   UNL     1      17.718   8.340  21.443  0.00  0.00    -0.368 OA
ATOM      6  O   UNL     1      17.714   5.914  19.564  0.00  0.00    -0.368 OA
ATOM     13  C   UNL     1      16.874   6.256  20.686  0.00  0.00    +0.173 C 
ATOM     14  C   UNL     1      17.764   6.928  21.712  0.00  0.00    +0.192 C 
ATOM     15  C   UNL     1      15.894   7.337  20.288  0.00  0.00    +0.130 C 
ATOM     16  C   UNL     1      19.121   6.344  21.399  0.00  0.00    +0.235 C 
ATOM     17  C   UNL     1      16.727   8.599  20.437  0.00  0.00    +0.185 C 
ATOM     18  C   UNL     1      19.077   6.220  19.894  0.00  0.00    +0.207 C 
ENDROOT
BRANCH  15   9
ATOM      9  N   UNL     1      14.775   7.362  21.205  0.00  0.00    -0.306 N 
ATOM     10  N   UNL     1      13.278   8.047  19.533  0.00  0.00    -0.214 NA
ATOM     11  N   UNL     1      12.529   7.691  21.796  0.00  0.00    -0.223 NA
ATOM     19  C   UNL     1      13.489   7.710  20.834  0.00  0.00    +0.216 A 
ATOM     21  C   UNL     1      12.012   8.381  19.207  0.00  0.00    +0.083 A 
ATOM     22  C   UNL     1      11.286   8.035  21.400  0.00  0.00    +0.116 A 
ATOM     24  C   UNL     1      10.966   8.393  20.107  0.00  0.00    +0.049 A 
ATOM     35  H   UNL     1      14.911   7.062  22.164  0.00  0.00    +0.149 HD
BRANCH  21  25
ATOM      1  S   UNL     1      13.098   9.498  16.975  0.00  0.00    -0.095 S 
ATOM     25  C   UNL     1      11.819   8.733  17.825  0.00  0.00    +0.038 A 
ATOM     29  C   UNL     1      10.711   8.548  17.024  0.00  0.00    +0.017 A 
ATOM     33  C   UNL     1      10.914   9.037  15.701  0.00  0.00    +0.008 A 
ATOM     34  C   UNL     1      12.170   9.579  15.538  0.00  0.00    +0.046 A 
ENDBRANCH  21  25
ENDBRANCH  15   9
BRANCH  16   7
ATOM      7  O   UNL     1      20.193   7.149  21.835  0.00  0.00    -0.442 OA
BRANCH   7  20
ATOM      8  O   UNL     1      22.433   7.061  21.383  0.00  0.00    -0.226 OA
ATOM     12  N   UNL     1      21.352   5.361  22.575  0.00  0.00    -0.251 N 
ATOM     20  C   UNL     1      21.438   6.557  21.888  0.00  0.00    +0.405 C 
ATOM     36  H   UNL     1      20.429   5.109  22.922  0.00  0.00    +0.158 HD
BRANCH  12  23
ATOM     23  C   UNL     1      22.388   4.442  22.855  0.00  0.00    +0.037 A 
ATOM     26  C   UNL     1      22.894   3.655  21.833  0.00  0.00    +0.035 A 
ATOM     27  C   UNL     1      22.878   4.346  24.148  0.00  0.00    +0.023 A 
ATOM     28  C   UNL     1      23.917   2.748  22.110  0.00  0.00    +0.057 A 
ATOM     30  C   UNL     1      23.902   3.439  24.425  0.00  0.00    +0.002 A 
ATOM     31  C   UNL     1      24.421   2.640  23.406  0.00  0.00    +0.012 A 
BRANCH  28  32
ATOM      2  F   UNL     1      23.913   0.651  20.960  0.00  0.00    -0.166 F 
ATOM      3  F   UNL     1      24.304   2.423  19.772  0.00  0.00    -0.166 F 
ATOM      4  F   UNL     1      25.815   1.686  21.150  0.00  0.00    -0.166 F 
ATOM     32  C   UNL     1      24.474   1.895  21.021  0.00  0.00    +0.417 C 
ENDBRANCH  28  32
ENDBRANCH  12  23
ENDBRANCH   7  20
ENDBRANCH  16   7
TORSDOF 6
ENDMDL
MODEL 3
REMARK VINA RESULT:      -7.8     15.729     17.495
REMARK  Name = 11912475
REMARK  6 active torsions:
REMARK  status: ('A' for Active; 'I' for Inactive)
REMARK    1  A    between atoms: O_7  and  C_16
REMARK    2  A    between atoms: O_7  and  C_20
REMARK    3  A    between atoms: N_9  and  C_15
REMARK    4  A    between atoms: N_12  and  C_23
REMARK    5  A    between atoms: C_21  and  C_25
REMARK    6  A    between atoms: C_28  and  C_32
REMARK                            x       y       z     vdW  Elec       q    Type
REMARK                         _______ _______ _______ _____ _____    ______ ____
ROOT
ATOM      5  O   UNL     1     -11.572  -9.227  16.300  0.00  0.00    -0.368 OA
ATOM      6  O   UNL     1      -9.729  -6.842  15.729  0.00  0.00    -0.368 OA
ATOM     13  C   UNL     1      -9.896  -7.662  16.904  0.00  0.00    +0.173 C 
ATOM     14  C   UNL     1     -11.372  -7.990  17.005  0.00  0.00    +0.192 C 
ATOM     15  C   UNL     1      -9.236  -9.006  16.696  0.00  0.00    +0.130 C 
ATOM     16  C   UNL     1     -12.015  -6.828  16.286  0.00  0.00    +0.235 C 
ATOM     17  C   UNL     1     -10.298  -9.771  15.925  0.00  0.00    +0.185 C 
ATOM     18  C   UNL     1     -11.023  -6.547  15.181  0.00  0.00    +0.207 C 
ENDROOT
BRANCH  15   9
ATOM      9  N   UNL     1      -8.981  -9.643  17.969  0.00  0.00    -0.306 N 
ATOM     10  N   UNL     1      -6.793 -10.234  17.362  0.00  0.00    -0.214 NA
ATOM     11  N   UNL     1      -7.674 -10.807  19.531  0.00  0.00    -0.223 NA
ATOM     19  C   UNL     1      -7.780 -10.246  18.298  0.00  0.00    +0.216 A 
ATOM     21  C   UNL     1      -5.636 -10.830  17.717  0.00  0.00    +0.083 A 
ATOM     22  C   UNL     1      -6.489 -11.386  19.818  0.00  0.00    +0.116 A 
ATOM     24  C   UNL     1      -5.425 -11.428  18.942  0.00  0.00    +0.049 A 
ATOM     35  H   UNL     1      -9.692  -9.612  18.692  0.00  0.00    +0.149 HD
BRANCH  21  25
ATOM      1  S   UNL     1      -5.064 -10.610  15.065  0.00  0.00    -0.095 S 
ATOM     25  C   UNL     1      -4.610 -10.802  16.708  0.00  0.00    +0.038 A 
ATOM     29  C   UNL     1      -3.242 -10.912  16.851  0.00  0.00    +0.017 A 
ATOM     33  C   UNL     1      -2.561 -10.836  15.601  0.00  0.00    +0.008 A 
ATOM     34  C   UNL     1      -3.433 -10.671  14.547  0.00  0.00    +0.046 A 
ENDBRANCH  21  25
ENDBRANCH  15   9
BRANCH  16   7
ATOM      7  O   UNL     1     -13.300  -7.118  15.785  0.00  0.00    -0.442 OA
BRANCH   7  20
ATOM      8  O   UNL     1     -13.837  -7.591  13.614  0.00  0.00    -0.226 OA
ATOM     12  N   UNL     1     -13.433  -5.399  14.330  0.00  0.00    -0.251 N 
ATOM     20  C   UNL     1     -13.553  -6.768  14.475  0.00  0.00    +0.405 C 
ATOM     36  H   UNL     1     -13.187  -4.880  15.170  0.00  0.00    +0.158 HD
BRANCH  12  23
ATOM     23  C   UNL     1     -13.607  -4.629  13.158  0.00  0.00    +0.037 A 
ATOM     26  C   UNL     1     -12.642  -4.675  12.165  0.00  0.00    +0.035 A 
ATOM     27  C   UNL     1     -14.740  -3.842  13.025  0.00  0.00    +0.023 A 
ATOM     28  C   UNL     1     -12.815  -3.916  11.007  0.00  0.00    +0.057 A 
ATOM     30  C   UNL     1     -14.913  -3.083  11.868  0.00  0.00    +0.002 A 
ATOM     31  C   UNL     1     -13.951  -3.119  10.859  0.00  0.00    +0.012 A 
BRANCH  28  32
ATOM      2  F   UNL     1     -10.939  -2.885   9.940  0.00  0.00    -0.166 F 
ATOM      3  F   UNL     1     -10.975  -5.053   9.987  0.00  0.00    -0.166 F 
ATOM      4  F   UNL     1     -12.336  -3.974   8.679  0.00  0.00    -0.166 F 
ATOM     32  C   UNL     1     -11.787  -3.956   9.928  0.00  0.00    +0.417 C 
ENDBRANCH  28  32
ENDBRANCH  12  23
ENDBRANCH   7  20
ENDBRANCH  16   7
TORSDOF 6
ENDMDL
MODEL 4
REMARK VINA RESULT:      -7.6      4.824      9.498
REMARK  Name = 11912475
REMARK  6 active torsions:
REMARK  status: ('A' for Active; 'I' for Inactive)
REMARK    1  A    between atoms: O_7  and  C_16
REMARK    2  A    between atoms: O_7  and  C_20
REMARK    3  A    between atoms: N_9  and  C_15
REMARK    4  A    between atoms: N_12  and  C_23
REMARK    5  A    between atoms: C_21  and  C_25
REMARK    6  A    between atoms: C_28  and  C_32
REMARK                            x       y       z     vdW  Elec       q    Type
REMARK                         _______ _______ _______ _____ _____    ______ ____
ROOT
ATOM      5  O   UNL     1     -15.094   4.121  24.604  0.00  0.00    -0.368 OA
ATOM      6  O   UNL     1     -17.126   4.010  22.308  0.00  0.00    -0.368 OA
ATOM     13  C   UNL     1     -16.776   5.067  23.225  0.00  0.00    +0.173 C 
ATOM     14  C   UNL     1     -16.501   4.413  24.564  0.00  0.00    +0.192 C 
ATOM     15  C   UNL     1     -15.448   5.672  22.834  0.00  0.00    +0.130 C 
ATOM     16  C   UNL     1     -17.331   3.154  24.489  0.00  0.00    +0.235 C 
ATOM     17  C   UNL     1     -14.456   4.707  23.459  0.00  0.00    +0.185 C 
ATOM     18  C   UNL     1     -17.204   2.773  23.032  0.00  0.00    +0.207 C 
ENDROOT
BRANCH  15   9
ATOM      9  N   UNL     1     -15.304   6.988  23.418  0.00  0.00    -0.306 N 
ATOM     10  N   UNL     1     -13.922   7.734  21.674  0.00  0.00    -0.214 NA
ATOM     11  N   UNL     1     -14.506   9.193  23.502  0.00  0.00    -0.223 NA
ATOM     19  C   UNL     1     -14.555   8.002  22.848  0.00  0.00    +0.216 A 
ATOM     21  C   UNL     1     -13.202   8.745  21.147  0.00  0.00    +0.083 A 
ATOM     22  C   UNL     1     -13.768  10.159  22.917  0.00  0.00    +0.116 A 
ATOM     24  C   UNL     1     -13.087   9.991  21.730  0.00  0.00    +0.049 A 
ATOM     35  H   UNL     1     -15.814   7.216  24.265  0.00  0.00    +0.149 HD
BRANCH  21  25
ATOM      1  S   UNL     1     -12.944   9.332  18.502  0.00  0.00    -0.095 S 
ATOM     25  C   UNL     1     -12.543   8.432  19.906  0.00  0.00    +0.038 A 
ATOM     29  C   UNL     1     -11.588   7.472  19.643  0.00  0.00    +0.017 A 
ATOM     33  C   UNL     1     -11.181   7.476  18.278  0.00  0.00    +0.008 A 
ATOM     34  C   UNL     1     -11.840   8.439  17.545  0.00  0.00    +0.046 A 
ENDBRANCH  21  25
ENDBRANCH  15   9
BRANCH  16   7
ATOM      7  O   UNL     1     -16.878   2.130  25.347  0.00  0.00    -0.442 OA
BRANCH   7  20
ATOM      8  O   UNL     1     -18.143   2.093  27.251  0.00  0.00    -0.226 OA
ATOM     12  N   UNL     1     -15.905   2.778  27.276  0.00  0.00    -0.251 N 
ATOM     20  C   UNL     1     -17.073   2.318  26.700  0.00  0.00    +0.405 C 
ATOM     36  H   UNL     1     -15.115   2.904  26.648  0.00  0.00    +0.158 HD
BRANCH  12  23
ATOM     23  C   UNL     1     -15.671   3.098  28.632  0.00  0.00    +0.037 A 
ATOM     26  C   UNL     1     -15.030   2.178  29.447  0.00  0.00    +0.035 A 
ATOM     27  C   UNL     1     -16.086   4.326  29.122  0.00  0.00    +0.023 A 
ATOM     28  C   UNL     1     -14.799   2.495  30.786  0.00  0.00    +0.057 A 
ATOM     30  C   UNL     1     -15.855   4.643  30.460  0.00  0.00    +0.002 A 
ATOM     31  C   UNL     1     -15.211   3.727  31.293  0.00  0.00    +0.012 A 
BRANCH  28  32
ATOM      2  F   UNL     1     -13.136   2.077  32.454  0.00  0.00    -0.166 F 
ATOM      3  F   UNL     1     -14.948   0.887  32.551  0.00  0.00    -0.166 F 
ATOM      4  F   UNL     1     -13.491   0.519  30.980  0.00  0.00    -0.166 F 
ATOM     32  C   UNL     1     -14.109   1.516  31.675  0.00  0.00    +0.417 C 
ENDBRANCH  28  32
ENDBRANCH  12  23
ENDBRANCH   7  20
ENDBRANCH  16   7
TORSDOF 6
ENDMDL
MODEL 5
REMARK VINA RESULT:      -7.6     17.753     19.852
REMARK  Name = 11912475
REMARK  6 active torsions:
REMARK  status: ('A' for Active; 'I' for Inactive)
REMARK    1  A    between atoms: O_7  and  C_16
REMARK    2  A    between atoms: O_7  and  C_20
REMARK    3  A    between atoms: N_9  and  C_15
REMARK    4  A    between atoms: N_12  and  C_23
REMARK    5  A    between atoms: C_21  and  C_25
REMARK    6  A    between atoms: C_28  and  C_32
REMARK                            x       y       z     vdW  Elec       q    Type
REMARK                         _______ _______ _______ _____ _____    ______ ____
ROOT
ATOM      5  O   UNL     1      -7.100 -10.491  15.453  0.00  0.00    -0.368 OA
ATOM      6  O   UNL     1      -7.507 -10.629  18.491  0.00  0.00    -0.368 OA
ATOM     13  C   UNL     1      -7.499  -9.513  17.577  0.00  0.00    +0.173 C 
ATOM     14  C   UNL     1      -6.441  -9.808  16.532  0.00  0.00    +0.192 C 
ATOM     15  C   UNL     1      -8.789  -9.479  16.790  0.00  0.00    +0.130 C 
ATOM     16  C   UNL     1      -5.495 -10.721  17.275  0.00  0.00    +0.235 C 
ATOM     17  C   UNL     1      -8.517 -10.481  15.680  0.00  0.00    +0.185 C 
ATOM     18  C   UNL     1      -6.438 -11.522  18.143  0.00  0.00    +0.207 C 
ENDROOT
BRANCH  15   9
ATOM      9  N   UNL     1      -9.005  -8.161  16.235  0.00  0.00    -0.306 N 
ATOM     10  N   UNL     1     -11.334  -8.323  16.465  0.00  0.00    -0.214 NA
ATOM     11  N   UNL     1     -10.316  -6.343  15.543  0.00  0.00    -0.223 NA
ATOM     19  C   UNL     1     -10.256  -7.591  16.076  0.00  0.00    +0.216 A 
ATOM     21  C   UNL     1     -12.538  -7.737  16.296  0.00  0.00    +0.083 A 
ATOM     22  C   UNL     1     -11.551  -5.818  15.403  0.00  0.00    +0.116 A 
ATOM     24  C   UNL     1     -12.709  -6.475  15.765  0.00  0.00    +0.049 A 
ATOM     35  H   UNL     1      -8.205  -7.586  15.991  0.00  0.00    +0.149 HD
BRANCH  21  25
ATOM      1  S   UNL     1     -15.244  -7.902  16.534  0.00  0.00    -0.095 S 
ATOM     25  C   UNL     1     -13.660  -8.534  16.715  0.00  0.00    +0.038 A 
ATOM     29  C   UNL     1     -13.674  -9.796  17.274  0.00  0.00    +0.017 A 
ATOM     33  C   UNL     1     -14.996 -10.248  17.553  0.00  0.00    +0.008 A 
ATOM     34  C   UNL     1     -15.947  -9.315  17.198  0.00  0.00    +0.046 A 
ENDBRANCH  21  25
ENDBRANCH  15   9
BRANCH  16   7
ATOM      7  O   UNL     1      -4.725 -11.544  16.428  0.00  0.00    -0.442 OA
BRANCH   7  20
ATOM      8  O   UNL     1      -2.845 -10.318  15.992  0.00  0.00    -0.226 OA
ATOM     12  N   UNL     1      -4.248 -11.067  14.275  0.00  0.00    -0.251 N 
ATOM     20  C   UNL     1      -3.835 -10.912  15.584  0.00  0.00    +0.405 C 
ATOM     36  H   UNL     1      -5.105 -11.598  14.136  0.00  0.00    +0.158 HD
BRANCH  12  23
ATOM     23  C   UNL     1      -3.629 -10.578  13.103  0.00  0.00    +0.037 A 
ATOM     26  C   UNL     1      -4.409 -10.019  12.104  0.00  0.00    +0.035 A 
ATOM     27  C   UNL     1      -2.252 -10.668  12.975  0.00  0.00    +0.023 A 
ATOM     28  C   UNL     1      -3.797  -9.535  10.947  0.00  0.00    +0.057 A 
ATOM     30  C   UNL     1      -1.639 -10.185  11.819  0.00  0.00    +0.002 A 
ATOM     31  C   UNL     1      -2.412  -9.618  10.805  0.00  0.00    +0.012 A 
BRANCH  28  32
ATOM      2  F   UNL     1      -3.932  -8.714   8.705  0.00  0.00    -0.166 F 
ATOM      3  F   UNL     1      -5.696  -9.692   9.502  0.00  0.00    -0.166 F 
ATOM      4  F   UNL     1      -5.138  -7.715  10.213  0.00  0.00    -0.166 F 
ATOM     32  C   UNL     1      -4.623  -8.929   9.864  0.00  0.00    +0.417 C 
ENDBRANCH  28  32
ENDBRANCH  12  23
ENDBRANCH   7  20
ENDBRANCH  16   7
TORSDOF 6
ENDMDL
MODEL 6
REMARK VINA RESULT:      -7.6      3.233      5.204
REMARK  Name = 11912475
REMARK  6 active torsions:
REMARK  status: ('A' for Active; 'I' for Inactive)
REMARK    1  A    between atoms: O_7  and  C_16
REMARK    2  A    between atoms: O_7  and  C_20
REMARK    3  A    between atoms: N_9  and  C_15
REMARK    4  A    between atoms: N_12  and  C_23
REMARK    5  A    between atoms: C_21  and  C_25
REMARK    6  A    between atoms: C_28  and  C_32
REMARK                            x       y       z     vdW  Elec       q    Type
REMARK                         _______ _______ _______ _____ _____    ______ ____
ROOT
ATOM      5  O   UNL     1     -15.182   5.045  21.249  0.00  0.00    -0.368 OA
ATOM      6  O   UNL     1     -16.031   6.879  23.558  0.00  0.00    -0.368 OA
ATOM     13  C   UNL     1     -16.364   5.509  23.252  0.00  0.00    +0.173 C 
ATOM     14  C   UNL     1     -16.481   5.411  21.745  0.00  0.00    +0.192 C 
ATOM     15  C   UNL     1     -15.200   4.605  23.588  0.00  0.00    +0.130 C 
ATOM     16  C   UNL     1     -16.850   6.822  21.354  0.00  0.00    +0.235 C 
ATOM     17  C   UNL     1     -14.321   4.739  22.356  0.00  0.00    +0.185 C 
ATOM     18  C   UNL     1     -16.061   7.645  22.345  0.00  0.00    +0.207 C 
ENDROOT
BRANCH  15   9
ATOM      9  N   UNL     1     -15.651   3.238  23.737  0.00  0.00    -0.306 N 
ATOM     10  N   UNL     1     -15.930   3.466  26.056  0.00  0.00    -0.214 NA
ATOM     11  N   UNL     1     -16.420   1.382  24.948  0.00  0.00    -0.223 NA
ATOM     19  C   UNL     1     -16.011   2.678  24.950  0.00  0.00    +0.216 A 
ATOM     21  C   UNL     1     -16.289   2.887  27.221  0.00  0.00    +0.083 A 
ATOM     22  C   UNL     1     -16.764   0.868  26.147  0.00  0.00    +0.116 A 
ATOM     24  C   UNL     1     -16.718   1.580  27.328  0.00  0.00    +0.049 A 
ATOM     35  H   UNL     1     -15.766   2.659  22.913  0.00  0.00    +0.149 HD
BRANCH  21  25
ATOM      1  S   UNL     1     -15.116   3.317  29.639  0.00  0.00    -0.095 S 
ATOM     25  C   UNL     1     -16.192   3.744  28.373  0.00  0.00    +0.038 A 
ATOM     29  C   UNL     1     -16.863   4.918  28.646  0.00  0.00    +0.017 A 
ATOM     33  C   UNL     1     -16.488   5.474  29.904  0.00  0.00    +0.008 A 
ATOM     34  C   UNL     1     -15.544   4.703  30.548  0.00  0.00    +0.046 A 
ENDBRANCH  21  25
ENDBRANCH  15   9
BRANCH  16   7
ATOM      7  O   UNL     1     -16.523   7.139  20.020  0.00  0.00    -0.442 OA
BRANCH   7  20
ATOM      8  O   UNL     1     -15.641   9.246  19.913  0.00  0.00    -0.226 OA
ATOM     12  N   UNL     1     -14.330   7.344  19.531  0.00  0.00    -0.251 N 
ATOM     20  C   UNL     1     -15.491   8.034  19.825  0.00  0.00    +0.405 C 
ATOM     36  H   UNL     1     -14.407   6.330  19.503  0.00  0.00    +0.158 HD
BRANCH  12  23
ATOM     23  C   UNL     1     -13.048   7.874  19.263  0.00  0.00    +0.037 A 
ATOM     26  C   UNL     1     -12.629   8.007  17.949  0.00  0.00    +0.035 A 
ATOM     27  C   UNL     1     -12.234   8.249  20.319  0.00  0.00    +0.023 A 
ATOM     28  C   UNL     1     -11.363   8.531  17.684  0.00  0.00    +0.057 A 
ATOM     30  C   UNL     1     -10.968   8.772  20.055  0.00  0.00    +0.002 A 
ATOM     31  C   UNL     1     -10.533   8.913  18.737  0.00  0.00    +0.012 A 
BRANCH  28  32
ATOM      2  F   UNL     1     -10.123   9.789  16.071  0.00  0.00    -0.166 F 
ATOM      3  F   UNL     1     -10.145   7.633  15.831  0.00  0.00    -0.166 F 
ATOM      4  F   UNL     1     -11.932   8.792  15.390  0.00  0.00    -0.166 F 
ATOM     32  C   UNL     1     -10.899   8.683  16.275  0.00  0.00    +0.417 C 
ENDBRANCH  28  32
ENDBRANCH  12  23
ENDBRANCH   7  20
ENDBRANCH  16   7
TORSDOF 6
ENDMDL
MODEL 7
REMARK VINA RESULT:      -7.5     21.650     24.523
REMARK  Name = 11912475
REMARK  6 active torsions:
REMARK  status: ('A' for Active; 'I' for Inactive)
REMARK    1  A    between atoms: O_7  and  C_16
REMARK    2  A    between atoms: O_7  and  C_20
REMARK    3  A    between atoms: N_9  and  C_15
REMARK    4  A    between atoms: N_12  and  C_23
REMARK    5  A    between atoms: C_21  and  C_25
REMARK    6  A    between atoms: C_28  and  C_32
REMARK                            x       y       z     vdW  Elec       q    Type
REMARK                         _______ _______ _______ _____ _____    ______ ____
ROOT
ATOM      5  O   UNL     1      -2.440 -10.153  12.731  0.00  0.00    -0.368 OA
ATOM      6  O   UNL     1      -2.974 -12.867  11.404  0.00  0.00    -0.368 OA
ATOM     13  C   UNL     1      -3.823 -11.719  11.609  0.00  0.00    +0.173 C 
ATOM     14  C   UNL     1      -3.460 -11.140  12.961  0.00  0.00    +0.192 C 
ATOM     15  C   UNL     1      -3.458 -10.624  10.633  0.00  0.00    +0.130 C 
ATOM     16  C   UNL     1      -2.917 -12.342  13.697  0.00  0.00    +0.235 C 
ATOM     17  C   UNL     1      -2.277  -9.960  11.319  0.00  0.00    +0.185 C 
ATOM     18  C   UNL     1      -2.208 -13.096  12.596  0.00  0.00    +0.207 C 
ENDROOT
BRANCH  15   9
ATOM      9  N   UNL     1      -4.552  -9.687  10.497  0.00  0.00    -0.306 N 
ATOM     10  N   UNL     1      -4.968 -10.322   8.276  0.00  0.00    -0.214 NA
ATOM     11  N   UNL     1      -6.298  -8.622   9.348  0.00  0.00    -0.223 NA
ATOM     19  C   UNL     1      -5.295  -9.539   9.339  0.00  0.00    +0.216 A 
ATOM     21  C   UNL     1      -5.713 -10.152   7.165  0.00  0.00    +0.083 A 
ATOM     22  C   UNL     1      -7.003  -8.504   8.203  0.00  0.00    +0.116 A 
ATOM     24  C   UNL     1      -6.752  -9.250   7.069  0.00  0.00    +0.049 A 
ATOM     35  H   UNL     1      -4.839  -9.136  11.299  0.00  0.00    +0.149 HD
BRANCH  21  25
ATOM      1  S   UNL     1      -6.377 -11.070   4.690  0.00  0.00    -0.095 S 
ATOM     25  C   UNL     1      -5.344 -10.993   6.057  0.00  0.00    +0.038 A 
ATOM     29  C   UNL     1      -4.232 -11.796   5.904  0.00  0.00    +0.017 A 
ATOM     33  C   UNL     1      -4.228 -12.479   4.654  0.00  0.00    +0.008 A 
ATOM     34  C   UNL     1      -5.337 -12.174   3.895  0.00  0.00    +0.046 A 
ENDBRANCH  21  25
ENDBRANCH  15   9
BRANCH  16   7
ATOM      7  O   UNL     1      -2.050 -12.009  14.757  0.00  0.00    -0.442 OA
BRANCH   7  20
ATOM      8  O   UNL     1      -2.121 -10.260  16.227  0.00  0.00    -0.226 OA
ATOM     12  N   UNL     1      -3.708 -11.980  16.286  0.00  0.00    -0.251 N 
ATOM     20  C   UNL     1      -2.596 -11.310  15.814  0.00  0.00    +0.405 C 
ATOM     36  H   UNL     1      -3.947 -12.845  15.808  0.00  0.00    +0.158 HD
BRANCH  12  23
ATOM     23  C   UNL     1      -4.556 -11.612  17.355  0.00  0.00    +0.037 A 
ATOM     26  C   UNL     1      -5.804 -11.077  17.079  0.00  0.00    +0.035 A 
ATOM     27  C   UNL     1      -4.124 -11.794  18.659  0.00  0.00    +0.023 A 
ATOM     28  C   UNL     1      -6.642 -10.715  18.134  0.00  0.00    +0.057 A 
ATOM     30  C   UNL     1      -4.961 -11.432  19.714  0.00  0.00    +0.002 A 
ATOM     31  C   UNL     1      -6.221 -10.892  19.452  0.00  0.00    +0.012 A 
BRANCH  28  32
ATOM      2  F   UNL     1      -8.603 -10.690  16.764  0.00  0.00    -0.166 F 
ATOM      3  F   UNL     1      -8.876 -10.298  18.880  0.00  0.00    -0.166 F 
ATOM      4  F   UNL     1      -7.947  -8.797  17.610  0.00  0.00    -0.166 F 
ATOM     32  C   UNL     1      -7.989 -10.139  17.853  0.00  0.00    +0.417 C 
ENDBRANCH  28  32
ENDBRANCH  12  23
ENDBRANCH   7  20
ENDBRANCH  16   7
TORSDOF 6
ENDMDL
MODEL 8
REMARK VINA RESULT:      -7.5      5.401     10.787
REMARK  Name = 11912475
REMARK  6 active torsions:
REMARK  status: ('A' for Active; 'I' for Inactive)
REMARK    1  A    between atoms: O_7  and  C_16
REMARK    2  A    between atoms: O_7  and  C_20
REMARK    3  A    between atoms: N_9  and  C_15
REMARK    4  A    between atoms: N_12  and  C_23
REMARK    5  A    between atoms: C_21  and  C_25
REMARK    6  A    between atoms: C_28  and  C_32
REMARK                            x       y       z     vdW  Elec       q    Type
REMARK                         _______ _______ _______ _____ _____    ______ ____
ROOT
ATOM      5  O   UNL     1     -16.452   6.537  23.075  0.00  0.00    -0.368 OA
ATOM      6  O   UNL     1     -13.776   5.258  22.291  0.00  0.00    -0.368 OA
ATOM     13  C   UNL     1     -14.991   5.470  21.542  0.00  0.00    +0.173 C 
ATOM     14  C   UNL     1     -16.143   5.255  22.503  0.00  0.00    +0.192 C 
ATOM     15  C   UNL     1     -15.109   6.925  21.149  0.00  0.00    +0.130 C 
ATOM     16  C   UNL     1     -15.545   4.318  23.525  0.00  0.00    +0.235 C 
ATOM     17  C   UNL     1     -15.691   7.553  22.405  0.00  0.00    +0.185 C 
ATOM     18  C   UNL     1     -14.117   4.806  23.610  0.00  0.00    +0.207 C 
ENDROOT
BRANCH  15   9
ATOM      9  N   UNL     1     -16.028   7.073  20.042  0.00  0.00    -0.306 N 
ATOM     10  N   UNL     1     -14.335   7.802  18.589  0.00  0.00    -0.214 NA
ATOM     11  N   UNL     1     -16.614   7.595  17.831  0.00  0.00    -0.223 NA
ATOM     19  C   UNL     1     -15.648   7.503  18.783  0.00  0.00    +0.216 A 
ATOM     21  C   UNL     1     -14.000   8.218  17.351  0.00  0.00    +0.083 A 
ATOM     22  C   UNL     1     -16.208   8.017  16.615  0.00  0.00    +0.116 A 
ATOM     24  C   UNL     1     -14.902   8.346  16.314  0.00  0.00    +0.049 A 
ATOM     35  H   UNL     1     -16.999   6.802  20.160  0.00  0.00    +0.149 HD
BRANCH  21  25
ATOM      1  S   UNL     1     -12.138   9.559  15.888  0.00  0.00    -0.095 S 
ATOM     25  C   UNL     1     -12.606   8.527  17.176  0.00  0.00    +0.038 A 
ATOM     29  C   UNL     1     -11.519   8.106  17.915  0.00  0.00    +0.017 A 
ATOM     33  C   UNL     1     -10.292   8.636  17.420  0.00  0.00    +0.008 A 
ATOM     34  C   UNL     1     -10.485   9.444  16.320  0.00  0.00    +0.046 A 
ENDBRANCH  21  25
ENDBRANCH  15   9
BRANCH  16   7
ATOM      7  O   UNL     1     -16.196   4.359  24.775  0.00  0.00    -0.442 OA
BRANCH   7  20
ATOM      8  O   UNL     1     -15.971   2.119  25.172  0.00  0.00    -0.226 OA
ATOM     12  N   UNL     1     -15.967   3.683  26.915  0.00  0.00    -0.251 N 
ATOM     20  C   UNL     1     -16.035   3.265  25.599  0.00  0.00    +0.405 C 
ATOM     36  H   UNL     1     -16.042   4.685  27.071  0.00  0.00    +0.158 HD
BRANCH  12  23
ATOM     23  C   UNL     1     -15.808   2.889  28.073  0.00  0.00    +0.037 A 
ATOM     26  C   UNL     1     -14.941   3.307  29.070  0.00  0.00    +0.035 A 
ATOM     27  C   UNL     1     -16.522   1.707  28.189  0.00  0.00    +0.023 A 
ATOM     28  C   UNL     1     -14.785   2.523  30.213  0.00  0.00    +0.057 A 
ATOM     30  C   UNL     1     -16.366   0.923  29.332  0.00  0.00    +0.002 A 
ATOM     31  C   UNL     1     -15.497   1.331  30.345  0.00  0.00    +0.012 A 
BRANCH  28  32
ATOM      2  F   UNL     1     -13.725   2.047  32.304  0.00  0.00    -0.166 F 
ATOM      3  F   UNL     1     -12.584   3.199  30.863  0.00  0.00    -0.166 F 
ATOM      4  F   UNL     1     -14.262   4.115  31.900  0.00  0.00    -0.166 F 
ATOM     32  C   UNL     1     -13.858   2.960  31.296  0.00  0.00    +0.417 C 
ENDBRANCH  28  32
ENDBRANCH  12  23
ENDBRANCH   7  20
ENDBRANCH  16   7
TORSDOF 6
ENDMDL
MODEL 9
REMARK VINA RESULT:      -7.5     33.477     36.012
REMARK  Name = 11912475
REMARK  6 active torsions:
REMARK  status: ('A' for Active; 'I' for Inactive)
REMARK    1  A    between atoms: O_7  and  C_16
REMARK    2  A    between atoms: O_7  and  C_20
REMARK    3  A    between atoms: N_9  and  C_15
REMARK    4  A    between atoms: N_12  and  C_23
REMARK    5  A    between atoms: C_21  and  C_25
REMARK    6  A    between atoms: C_28  and  C_32
REMARK                            x       y       z     vdW  Elec       q    Type
REMARK                         _______ _______ _______ _____ _____    ______ ____
ROOT
ATOM      5  O   UNL     1      21.138   7.654  20.425  0.00  0.00    -0.368 OA
ATOM      6  O   UNL     1      20.791   5.980  22.972  0.00  0.00    -0.368 OA
ATOM     13  C   UNL     1      21.425   5.682  21.711  0.00  0.00    +0.173 C 
ATOM     14  C   UNL     1      20.589   6.342  20.633  0.00  0.00    +0.192 C 
ATOM     15  C   UNL     1      22.758   6.389  21.623  0.00  0.00    +0.130 C 
ATOM     16  C   UNL     1      19.222   6.403  21.271  0.00  0.00    +0.235 C 
ATOM     17  C   UNL     1      22.357   7.782  21.171  0.00  0.00    +0.185 C 
ATOM     18  C   UNL     1      19.557   6.670  22.721  0.00  0.00    +0.207 C 
ENDROOT
BRANCH  15   9
ATOM      9  N   UNL     1      23.595   5.759  20.624  0.00  0.00    -0.306 N 
ATOM     10  N   UNL     1      23.786   3.780  21.872  0.00  0.00    -0.214 NA
ATOM     11  N   UNL     1      24.872   4.005  19.732  0.00  0.00    -0.223 NA
ATOM     19  C   UNL     1      24.100   4.476  20.746  0.00  0.00    +0.216 A 
ATOM     21  C   UNL     1      24.295   2.534  21.957  0.00  0.00    +0.083 A 
ATOM     22  C   UNL     1      25.347   2.750  19.883  0.00  0.00    +0.116 A 
ATOM     24  C   UNL     1      25.089   1.961  20.985  0.00  0.00    +0.049 A 
ATOM     35  H   UNL     1      23.791   6.248  19.758  0.00  0.00    +0.149 HD
BRANCH  21  25
ATOM      1  S   UNL     1      22.818   2.522  24.243  0.00  0.00    -0.095 S 
ATOM     25  C   UNL     1      23.947   1.822  23.159  0.00  0.00    +0.038 A 
ATOM     29  C   UNL     1      24.400   0.599  23.610  0.00  0.00    +0.017 A 
ATOM     33  C   UNL     1      23.813   0.234  24.856  0.00  0.00    +0.008 A 
ATOM     34  C   UNL     1      22.932   1.190  25.313  0.00  0.00    +0.046 A 
ENDBRANCH  21  25
ENDBRANCH  15   9
BRANCH  16   7
ATOM      7  O   UNL     1      18.391   7.403  20.726  0.00  0.00    -0.442 OA
BRANCH   7  20
ATOM      8  O   UNL     1      17.267   5.976  19.338  0.00  0.00    -0.226 OA
ATOM     12  N   UNL     1      16.225   7.848  20.281  0.00  0.00    -0.251 N 
ATOM     20  C   UNL     1      17.272   6.979  20.040  0.00  0.00    +0.405 C 
ATOM     36  H   UNL     1      16.426   8.632  20.898  0.00  0.00    +0.158 HD
BRANCH  12  23
ATOM     23  C   UNL     1      14.907   7.785  19.775  0.00  0.00    +0.037 A 
ATOM     26  C   UNL     1      13.853   7.570  20.649  0.00  0.00    +0.035 A 
ATOM     27  C   UNL     1      14.694   7.939  18.414  0.00  0.00    +0.023 A 
ATOM     28  C   UNL     1      12.552   7.508  20.149  0.00  0.00    +0.057 A 
ATOM     30  C   UNL     1      13.393   7.877  17.915  0.00  0.00    +0.002 A 
ATOM     31  C   UNL     1      12.322   7.662  18.782  0.00  0.00    +0.012 A 
BRANCH  28  32
ATOM      2  F   UNL     1      10.271   7.948  20.718  0.00  0.00    -0.166 F 
ATOM      3  F   UNL     1      11.033   5.969  21.172  0.00  0.00    -0.166 F 
ATOM      4  F   UNL     1      11.677   7.676  22.354  0.00  0.00    -0.166 F 
ATOM     32  C   UNL     1      11.407   7.279  21.077  0.00  0.00    +0.417 C 
ENDBRANCH  28  32
ENDBRANCH  12  23
ENDBRANCH   7  20
ENDBRANCH  16   7
TORSDOF 6
ENDMDL
MODEL 10
REMARK VINA RESULT:      -7.5     18.653     20.249
REMARK  Name = 11912475
REMARK  6 active torsions:
REMARK  status: ('A' for Active; 'I' for Inactive)
REMARK    1  A    between atoms: O_7  and  C_16
REMARK    2  A    between atoms: O_7  and  C_20
REMARK    3  A    between atoms: N_9  and  C_15
REMARK    4  A    between atoms: N_12  and  C_23
REMARK    5  A    between atoms: C_21  and  C_25
REMARK    6  A    between atoms: C_28  and  C_32
REMARK                            x       y       z     vdW  Elec       q    Type
REMARK                         _______ _______ _______ _____ _____    ______ ____
ROOT
ATOM      5  O   UNL     1      -6.596 -12.035  17.216  0.00  0.00    -0.368 OA
ATOM      6  O   UNL     1      -5.142 -11.515  19.867  0.00  0.00    -0.368 OA
ATOM     13  C   UNL     1      -6.158 -10.764  19.170  0.00  0.00    +0.173 C 
ATOM     14  C   UNL     1      -5.862 -10.893  17.690  0.00  0.00    +0.192 C 
ATOM     15  C   UNL     1      -7.502 -11.437  19.334  0.00  0.00    +0.130 C 
ATOM     16  C   UNL     1      -4.372 -11.142  17.675  0.00  0.00    +0.235 C 
ATOM     17  C   UNL     1      -7.459 -12.510  18.259  0.00  0.00    +0.185 C 
ATOM     18  C   UNL     1      -4.177 -11.986  18.914  0.00  0.00    +0.207 C 
ENDROOT
BRANCH  15   9
ATOM      9  N   UNL     1      -8.569 -10.498  19.064  0.00  0.00    -0.306 N 
ATOM     10  N   UNL     1     -10.168 -11.835  20.143  0.00  0.00    -0.214 NA
ATOM     11  N   UNL     1     -10.784  -9.730  19.145  0.00  0.00    -0.223 NA
ATOM     19  C   UNL     1      -9.880 -10.693  19.462  0.00  0.00    +0.216 A 
ATOM     21  C   UNL     1     -11.455 -11.992  20.516  0.00  0.00    +0.083 A 
ATOM     22  C   UNL     1     -12.053  -9.952  19.549  0.00  0.00    +0.116 A 
ATOM     24  C   UNL     1     -12.450 -11.075  20.244  0.00  0.00    +0.049 A 
ATOM     35  H   UNL     1      -8.356  -9.620  18.604  0.00  0.00    +0.149 HD
BRANCH  21  25
ATOM      1  S   UNL     1     -13.361 -13.653  21.524  0.00  0.00    -0.095 S 
ATOM     25  C   UNL     1     -11.730 -13.209  21.233  0.00  0.00    +0.038 A 
ATOM     29  C   UNL     1     -10.848 -14.131  21.757  0.00  0.00    +0.017 A 
ATOM     33  C   UNL     1     -11.517 -15.212  22.402  0.00  0.00    +0.008 A 
ATOM     34  C   UNL     1     -12.887 -15.077  22.348  0.00  0.00    +0.046 A 
ENDBRANCH  21  25
ENDBRANCH  15   9
BRANCH  16   7
ATOM      7  O   UNL     1      -3.923 -11.798  16.511  0.00  0.00    -0.442 OA
BRANCH   7  20
ATOM      8  O   UNL     1      -2.269 -10.328  15.933  0.00  0.00    -0.226 OA
ATOM     12  N   UNL     1      -3.725 -11.229  14.337  0.00  0.00    -0.251 N 
ATOM     20  C   UNL     1      -3.209 -11.041  15.605  0.00  0.00    +0.405 C 
ATOM     36  H   UNL     1      -4.516 -11.866  14.265  0.00  0.00    +0.158 HD
BRANCH  12  23
ATOM     23  C   UNL     1      -3.292 -10.645  13.125  0.00  0.00    +0.037 A 
ATOM     26  C   UNL     1      -4.233 -10.180  12.220  0.00  0.00    +0.035 A 
ATOM     27  C   UNL     1      -1.934 -10.548  12.866  0.00  0.00    +0.023 A 
ATOM     28  C   UNL     1      -3.805  -9.602  11.025  0.00  0.00    +0.057 A 
ATOM     30  C   UNL     1      -1.507  -9.971  11.670  0.00  0.00    +0.002 A 
ATOM     31  C   UNL     1      -2.442  -9.498  10.749  0.00  0.00    +0.012 A 
BRANCH  28  32
ATOM      2  F   UNL     1      -4.254  -8.701   8.855  0.00  0.00    -0.166 F 
ATOM      3  F   UNL     1      -5.756 -10.016   9.704  0.00  0.00    -0.166 F 
ATOM      4  F   UNL     1      -5.493  -8.011  10.503  0.00  0.00    -0.166 F 
ATOM     32  C   UNL     1      -4.805  -9.095  10.041  0.00  0.00    +0.417 C 
ENDBRANCH  28  32
ENDBRANCH  12  23
ENDBRANCH   7  20
ENDBRANCH  16   7
TORSDOF 6
ENDMDL
