MODEL 1
REMARK VINA RESULT:      -7.0      0.000      0.000
REMARK  Name = 9419192
REMARK  5 active torsions:
REMARK  status: ('A' for Active; 'I' for Inactive)
REMARK    1  A    between atoms: O_7  and  C_27
REMARK    2  A    between atoms: O_7  and  C_31
REMARK    3  A    between atoms: N_9  and  C_20
REMARK    4  A    between atoms: N_10  and  C_15
REMARK    5  A    between atoms: C_21  and  C_24
REMARK                            x       y       z     vdW  Elec       q    Type
REMARK                         _______ _______ _______ _____ _____    ______ ____
ROOT
ATOM      4  O   UNL     1     -13.018   4.801  22.285  0.00  0.00    -0.273 OA
ATOM      5  O   UNL     1     -16.264   8.121  22.185  0.00  0.00    -0.252 OA
ATOM      8  N   UNL     1     -15.936   6.215  23.468  0.00  0.00    -0.273 N 
ATOM      9  N   UNL     1     -14.388   6.699  21.923  0.00  0.00    -0.193 N 
ATOM     13  C   UNL     1     -15.007   5.125  23.583  0.00  0.00    +0.166 C 
ATOM     14  C   UNL     1     -15.699   3.791  23.327  0.00  0.00    +0.054 C 
ATOM     15  C   UNL     1     -16.985   3.645  24.161  0.00  0.00    +0.077 C 
ATOM     16  C   UNL     1     -17.903   4.869  23.997  0.00  0.00    +0.041 C 
ATOM     17  C   UNL     1     -17.165   6.187  24.242  0.00  0.00    +0.112 C 
ATOM     18  C   UNL     1     -14.003   5.495  22.506  0.00  0.00    +0.248 C 
ATOM     19  C   UNL     1     -15.586   7.147  22.489  0.00  0.00    +0.316 C 
ENDROOT
BRANCH   9  20
ATOM     20  C   UNL     1     -13.677   7.370  20.878  0.00  0.00    +0.046 A 
ATOM     22  C   UNL     1     -12.447   7.976  21.143  0.00  0.00    +0.027 A 
ATOM     23  C   UNL     1     -14.211   7.423  19.588  0.00  0.00    +0.027 A 
ATOM     25  C   UNL     1     -11.754   8.631  20.124  0.00  0.00    +0.048 A 
ATOM     26  C   UNL     1     -13.518   8.078  18.569  0.00  0.00    +0.048 A 
ATOM     27  C   UNL     1     -12.290   8.682  18.838  0.00  0.00    +0.130 A 
BRANCH  27   7
ATOM      7  O   UNL     1     -11.613   9.320  17.843  0.00  0.00    -0.406 OA
BRANCH   7  31
ATOM      1  F   UNL     1     -10.304   9.010  16.031  0.00  0.00    -0.133 F 
ATOM      2  F   UNL     1      -9.333   9.203  17.979  0.00  0.00    -0.133 F 
ATOM      3  F   UNL     1     -10.468   7.375  17.473  0.00  0.00    -0.133 F 
ATOM     31  C   UNL     1     -10.423   8.719  17.347  0.00  0.00    +0.575 C 
ENDBRANCH   7  31
ENDBRANCH  27   7
ENDBRANCH   9  20
BRANCH  15  10
ATOM      6  O   UNL     1     -16.488   1.105  25.402  0.00  0.00    -0.268 OA
ATOM     10  N   UNL     1     -16.682   3.410  25.554  0.00  0.00    -0.307 N 
ATOM     21  C   UNL     1     -16.457   2.140  26.061  0.00  0.00    +0.264 C 
ATOM     32  H   UNL     1     -16.685   4.201  26.192  0.00  0.00    +0.149 HD
BRANCH  21  24
ATOM     11  N   UNL     1     -16.426   0.882  28.083  0.00  0.00    -0.247 NA
ATOM     12  N   UNL     1     -15.467   3.099  29.507  0.00  0.00    -0.259 NA
ATOM     24  C   UNL     1     -16.183   2.064  27.520  0.00  0.00    +0.143 A 
ATOM     28  C   UNL     1     -15.719   3.155  28.185  0.00  0.00    +0.143 A 
ATOM     29  C   UNL     1     -16.174   0.825  29.406  0.00  0.00    +0.131 A 
ATOM     30  C   UNL     1     -15.703   1.914  30.105  0.00  0.00    +0.130 A 
ENDBRANCH  21  24
ENDBRANCH  15  10
TORSDOF 5
ENDMDL
MODEL 2
REMARK VINA RESULT:      -7.0     30.597     34.289
REMARK  Name = 9419192
REMARK  5 active torsions:
REMARK  status: ('A' for Active; 'I' for Inactive)
REMARK    1  A    between atoms: O_7  and  C_27
REMARK    2  A    between atoms: O_7  and  C_31
REMARK    3  A    between atoms: N_9  and  C_20
REMARK    4  A    between atoms: N_10  and  C_15
REMARK    5  A    between atoms: C_21  and  C_24
REMARK                            x       y       z     vdW  Elec       q    Type
REMARK                         _______ _______ _______ _____ _____    ______ ____
ROOT
ATOM      4  O   UNL     1      18.083   5.172  19.344  0.00  0.00    -0.273 OA
ATOM      5  O   UNL     1      17.629   9.093  21.790  0.00  0.00    -0.252 OA
ATOM      8  N   UNL     1      19.429   7.748  21.206  0.00  0.00    -0.273 N 
ATOM      9  N   UNL     1      17.406   7.155  20.446  0.00  0.00    -0.193 N 
ATOM     13  C   UNL     1      19.692   6.532  20.487  0.00  0.00    +0.166 C 
ATOM     14  C   UNL     1      20.309   5.481  21.403  0.00  0.00    +0.054 C 
ATOM     15  C   UNL     1      21.502   6.044  22.196  0.00  0.00    +0.077 C 
ATOM     16  C   UNL     1      21.135   7.358  22.907  0.00  0.00    +0.041 C 
ATOM     17  C   UNL     1      20.501   8.376  21.957  0.00  0.00    +0.112 C 
ATOM     18  C   UNL     1      18.293   6.172  20.019  0.00  0.00    +0.248 C 
ATOM     19  C   UNL     1      18.084   8.123  21.194  0.00  0.00    +0.316 C 
ENDROOT
BRANCH   9  20
ATOM     20  C   UNL     1      15.999   7.164  20.181  0.00  0.00    +0.046 A 
ATOM     22  C   UNL     1      15.090   6.917  21.212  0.00  0.00    +0.027 A 
ATOM     23  C   UNL     1      15.530   7.420  18.891  0.00  0.00    +0.027 A 
ATOM     25  C   UNL     1      13.719   6.925  20.953  0.00  0.00    +0.048 A 
ATOM     26  C   UNL     1      14.159   7.428  18.632  0.00  0.00    +0.048 A 
ATOM     27  C   UNL     1      13.254   7.180  19.664  0.00  0.00    +0.130 A 
BRANCH  27   7
ATOM      7  O   UNL     1      11.916   7.190  19.413  0.00  0.00    -0.406 OA
BRANCH   7  31
ATOM      1  F   UNL     1      10.439   8.680  18.580  0.00  0.00    -0.133 F 
ATOM      2  F   UNL     1      10.363   8.243  20.720  0.00  0.00    -0.133 F 
ATOM      3  F   UNL     1      12.030   9.426  19.879  0.00  0.00    -0.133 F 
ATOM     31  C   UNL     1      11.192   8.388  19.665  0.00  0.00    +0.575 C 
ENDBRANCH   7  31
ENDBRANCH  27   7
ENDBRANCH   9  20
BRANCH  15  10
ATOM      6  O   UNL     1      23.553   4.107  21.662  0.00  0.00    -0.268 OA
ATOM     10  N   UNL     1      22.657   6.223  21.346  0.00  0.00    -0.307 N 
ATOM     21  C   UNL     1      23.597   5.222  21.151  0.00  0.00    +0.264 C 
ATOM     32  H   UNL     1      22.811   7.131  20.919  0.00  0.00    +0.149 HD
BRANCH  21  24
ATOM     11  N   UNL     1      25.012   6.873  20.179  0.00  0.00    -0.247 NA
ATOM     12  N   UNL     1      26.467   4.898  18.820  0.00  0.00    -0.259 NA
ATOM     24  C   UNL     1      24.741   5.572  20.269  0.00  0.00    +0.143 A 
ATOM     28  C   UNL     1      25.428   4.593  19.622  0.00  0.00    +0.143 A 
ATOM     29  C   UNL     1      26.052   7.177  19.377  0.00  0.00    +0.131 A 
ATOM     30  C   UNL     1      26.767   6.208  18.710  0.00  0.00    +0.130 A 
ENDBRANCH  21  24
ENDBRANCH  15  10
TORSDOF 5
ENDMDL
MODEL 3
REMARK VINA RESULT:      -6.7     28.380     33.621
REMARK  Name = 9419192
REMARK  5 active torsions:
REMARK  status: ('A' for Active; 'I' for Inactive)
REMARK    1  A    between atoms: O_7  and  C_27
REMARK    2  A    between atoms: O_7  and  C_31
REMARK    3  A    between atoms: N_9  and  C_20
REMARK    4  A    between atoms: N_10  and  C_15
REMARK    5  A    between atoms: C_21  and  C_24
REMARK                            x       y       z     vdW  Elec       q    Type
REMARK                         _______ _______ _______ _____ _____    ______ ____
ROOT
ATOM      4  O   UNL     1      10.800   3.806   3.178  0.00  0.00    -0.273 OA
ATOM      5  O   UNL     1       9.708   8.312   2.911  0.00  0.00    -0.252 OA
ATOM      8  N   UNL     1      10.303   6.695   1.356  0.00  0.00    -0.273 N 
ATOM      9  N   UNL     1      10.142   6.058   3.498  0.00  0.00    -0.193 N 
ATOM     13  C   UNL     1      10.673   5.308   1.314  0.00  0.00    +0.166 C 
ATOM     14  C   UNL     1      12.080   5.136   0.751  0.00  0.00    +0.054 C 
ATOM     15  C   UNL     1      12.263   5.903  -0.571  0.00  0.00    +0.077 C 
ATOM     16  C   UNL     1      11.815   7.369  -0.437  0.00  0.00    +0.041 C 
ATOM     17  C   UNL     1      10.408   7.496   0.149  0.00  0.00    +0.112 C 
ATOM     18  C   UNL     1      10.567   4.942   2.783  0.00  0.00    +0.248 C 
ATOM     19  C   UNL     1       9.993   7.152   2.638  0.00  0.00    +0.316 C 
ENDROOT
BRANCH   9  20
ATOM     20  C   UNL     1       9.914   6.092   4.910  0.00  0.00    +0.046 A 
ATOM     22  C   UNL     1      10.994   6.059   5.795  0.00  0.00    +0.027 A 
ATOM     23  C   UNL     1       8.612   6.158   5.410  0.00  0.00    +0.027 A 
ATOM     25  C   UNL     1      10.772   6.092   7.173  0.00  0.00    +0.048 A 
ATOM     26  C   UNL     1       8.390   6.191   6.787  0.00  0.00    +0.048 A 
ATOM     27  C   UNL     1       9.470   6.157   7.668  0.00  0.00    +0.130 A 
BRANCH  27   7
ATOM      7  O   UNL     1       9.255   6.191   9.012  0.00  0.00    -0.406 OA
BRANCH   7  31
ATOM      1  F   UNL     1       9.276   3.941   8.833  0.00  0.00    -0.133 F 
ATOM      2  F   UNL     1      10.326   4.847  10.521  0.00  0.00    -0.133 F 
ATOM      3  F   UNL     1       8.117   4.832  10.457  0.00  0.00    -0.133 F 
ATOM     31  C   UNL     1       9.243   4.959   9.723  0.00  0.00    +0.575 C 
ENDBRANCH   7  31
ENDBRANCH  27   7
ENDBRANCH   9  20
BRANCH  15  10
ATOM      6  O   UNL     1      13.098   3.529  -1.953  0.00  0.00    -0.268 OA
ATOM     10  N   UNL     1      11.570   5.248  -1.656  0.00  0.00    -0.307 N 
ATOM     21  C   UNL     1      12.056   4.100  -2.263  0.00  0.00    +0.264 C 
ATOM     32  H   UNL     1      10.723   5.675  -2.020  0.00  0.00    +0.149 HD
BRANCH  21  24
ATOM     11  N   UNL     1      10.129   2.922  -3.020  0.00  0.00    -0.247 NA
ATOM     12  N   UNL     1      10.910   3.262  -5.691  0.00  0.00    -0.259 NA
ATOM     24  C   UNL     1      11.239   3.564  -3.382  0.00  0.00    +0.143 A 
ATOM     28  C   UNL     1      11.642   3.743  -4.668  0.00  0.00    +0.143 A 
ATOM     29  C   UNL     1       9.397   2.441  -4.044  0.00  0.00    +0.131 A 
ATOM     30  C   UNL     1       9.780   2.608  -5.356  0.00  0.00    +0.130 A 
ENDBRANCH  21  24
ENDBRANCH  15  10
TORSDOF 5
ENDMDL
MODEL 4
REMARK VINA RESULT:      -6.4     30.280     33.648
REMARK  Name = 9419192
REMARK  5 active torsions:
REMARK  status: ('A' for Active; 'I' for Inactive)
REMARK    1  A    between atoms: O_7  and  C_27
REMARK    2  A    between atoms: O_7  and  C_31
REMARK    3  A    between atoms: N_9  and  C_20
REMARK    4  A    between atoms: N_10  and  C_15
REMARK    5  A    between atoms: C_21  and  C_24
REMARK                            x       y       z     vdW  Elec       q    Type
REMARK                         _______ _______ _______ _____ _____    ______ ____
ROOT
ATOM      4  O   UNL     1      18.780   4.719  19.801  0.00  0.00    -0.273 OA
ATOM      5  O   UNL     1      20.256   8.309  22.350  0.00  0.00    -0.252 OA
ATOM      8  N   UNL     1      18.192   7.658  21.513  0.00  0.00    -0.273 N 
ATOM      9  N   UNL     1      19.940   6.317  21.107  0.00  0.00    -0.193 N 
ATOM     13  C   UNL     1      17.621   6.607  20.717  0.00  0.00    +0.166 C 
ATOM     14  C   UNL     1      16.998   7.167  19.442  0.00  0.00    +0.054 C 
ATOM     15  C   UNL     1      16.058   8.348  19.737  0.00  0.00    +0.077 C 
ATOM     16  C   UNL     1      16.744   9.407  20.617  0.00  0.00    +0.041 C 
ATOM     17  C   UNL     1      17.372   8.801  21.874  0.00  0.00    +0.112 C 
ATOM     18  C   UNL     1      18.847   5.750  20.458  0.00  0.00    +0.248 C 
ATOM     19  C   UNL     1      19.559   7.502  21.745  0.00  0.00    +0.316 C 
ENDROOT
BRANCH   9  20
ATOM     20  C   UNL     1      21.267   5.781  21.103  0.00  0.00    +0.046 A 
ATOM     22  C   UNL     1      21.548   4.597  21.788  0.00  0.00    +0.027 A 
ATOM     23  C   UNL     1      22.288   6.442  20.414  0.00  0.00    +0.027 A 
ATOM     25  C   UNL     1      22.843   4.076  21.784  0.00  0.00    +0.048 A 
ATOM     26  C   UNL     1      23.582   5.920  20.411  0.00  0.00    +0.048 A 
ATOM     27  C   UNL     1      23.859   4.738  21.096  0.00  0.00    +0.130 A 
BRANCH  27   7
ATOM      7  O   UNL     1      25.121   4.228  21.091  0.00  0.00    -0.406 OA
BRANCH   7  31
ATOM      1  F   UNL     1      26.666   3.364  19.690  0.00  0.00    -0.133 F 
ATOM      2  F   UNL     1      25.391   1.976  20.794  0.00  0.00    -0.133 F 
ATOM      3  F   UNL     1      24.559   3.179  19.138  0.00  0.00    -0.133 F 
ATOM     31  C   UNL     1      25.419   3.177  20.179  0.00  0.00    +0.575 C 
ENDBRANCH   7  31
ENDBRANCH  27   7
ENDBRANCH   9  20
BRANCH  15  10
ATOM      6  O   UNL     1      13.457   9.515  19.397  0.00  0.00    -0.268 OA
ATOM     10  N   UNL     1      14.824   7.897  20.340  0.00  0.00    -0.307 N 
ATOM     21  C   UNL     1      13.612   8.531  20.114  0.00  0.00    +0.264 C 
ATOM     32  H   UNL     1      14.858   7.119  20.992  0.00  0.00    +0.149 HD
BRANCH  21  24
ATOM     11  N   UNL     1      11.786   8.812  21.617  0.00  0.00    -0.247 NA
ATOM     12  N   UNL     1      11.044   6.127  21.297  0.00  0.00    -0.259 NA
ATOM     24  C   UNL     1      12.440   7.961  20.828  0.00  0.00    +0.143 A 
ATOM     28  C   UNL     1      12.104   6.655  20.655  0.00  0.00    +0.143 A 
ATOM     29  C   UNL     1      10.725   8.284  22.258  0.00  0.00    +0.131 A 
ATOM     30  C   UNL     1      10.361   6.965  22.101  0.00  0.00    +0.130 A 
ENDBRANCH  21  24
ENDBRANCH  15  10
TORSDOF 5
ENDMDL
MODEL 5
REMARK VINA RESULT:      -6.4     30.295     33.828
REMARK  Name = 9419192
REMARK  5 active torsions:
REMARK  status: ('A' for Active; 'I' for Inactive)
REMARK    1  A    between atoms: O_7  and  C_27
REMARK    2  A    between atoms: O_7  and  C_31
REMARK    3  A    between atoms: N_9  and  C_20
REMARK    4  A    between atoms: N_10  and  C_15
REMARK    5  A    between atoms: C_21  and  C_24
REMARK                            x       y       z     vdW  Elec       q    Type
REMARK                         _______ _______ _______ _____ _____    ______ ____
ROOT
ATOM      4  O   UNL     1      17.262   5.986  21.263  0.00  0.00    -0.273 OA
ATOM      5  O   UNL     1      18.464  10.470  21.180  0.00  0.00    -0.252 OA
ATOM      8  N   UNL     1      19.648   8.479  21.319  0.00  0.00    -0.273 N 
ATOM      9  N   UNL     1      17.420   8.345  21.136  0.00  0.00    -0.193 N 
ATOM     13  C   UNL     1      19.400   7.064  21.370  0.00  0.00    +0.166 C 
ATOM     14  C   UNL     1      19.923   6.467  22.672  0.00  0.00    +0.054 C 
ATOM     15  C   UNL     1      21.377   6.886  22.949  0.00  0.00    +0.077 C 
ATOM     16  C   UNL     1      21.553   8.411  22.844  0.00  0.00    +0.041 C 
ATOM     17  C   UNL     1      20.998   8.971  21.533  0.00  0.00    +0.112 C 
ATOM     18  C   UNL     1      17.885   7.040  21.265  0.00  0.00    +0.248 C 
ATOM     19  C   UNL     1      18.489   9.245  21.187  0.00  0.00    +0.316 C 
ENDROOT
BRANCH   9  20
ATOM     20  C   UNL     1      16.044   8.717  20.999  0.00  0.00    +0.046 A 
ATOM     22  C   UNL     1      15.436   8.701  19.742  0.00  0.00    +0.027 A 
ATOM     23  C   UNL     1      15.305   9.098  22.121  0.00  0.00    +0.027 A 
ATOM     25  C   UNL     1      14.096   9.065  19.608  0.00  0.00    +0.048 A 
ATOM     26  C   UNL     1      13.965   9.462  21.987  0.00  0.00    +0.048 A 
ATOM     27  C   UNL     1      13.360   9.445  20.730  0.00  0.00    +0.130 A 
BRANCH  27   7
ATOM      7  O   UNL     1      12.052   9.798  20.599  0.00  0.00    -0.406 OA
BRANCH   7  31
ATOM      1  F   UNL     1      10.181   9.099  21.649  0.00  0.00    -0.133 F 
ATOM      2  F   UNL     1      10.389   8.657  19.520  0.00  0.00    -0.133 F 
ATOM      3  F   UNL     1      11.625   7.589  21.009  0.00  0.00    -0.133 F 
ATOM     31  C   UNL     1      11.068   8.775  20.681  0.00  0.00    +0.575 C 
ENDBRANCH   7  31
ENDBRANCH  27   7
ENDBRANCH   9  20
BRANCH  15  10
ATOM      6  O   UNL     1      22.129   4.119  23.081  0.00  0.00    -0.268 OA
ATOM     10  N   UNL     1      22.296   6.199  22.071  0.00  0.00    -0.307 N 
ATOM     21  C   UNL     1      22.597   4.853  22.216  0.00  0.00    +0.264 C 
ATOM     32  H   UNL     1      22.776   6.735  21.354  0.00  0.00    +0.149 HD
BRANCH  21  24
ATOM     11  N   UNL     1      23.633   2.972  21.186  0.00  0.00    -0.247 NA
ATOM     12  N   UNL     1      25.245   4.652  19.624  0.00  0.00    -0.259 NA
ATOM     24  C   UNL     1      23.581   4.302  21.249  0.00  0.00    +0.143 A 
ATOM     28  C   UNL     1      24.350   5.140  20.505  0.00  0.00    +0.143 A 
ATOM     29  C   UNL     1      24.528   2.484  20.304  0.00  0.00    +0.131 A 
ATOM     30  C   UNL     1      25.320   3.309  19.538  0.00  0.00    +0.130 A 
ENDBRANCH  21  24
ENDBRANCH  15  10
TORSDOF 5
ENDMDL
MODEL 6
REMARK VINA RESULT:      -6.3     21.804     23.874
REMARK  Name = 9419192
REMARK  5 active torsions:
REMARK  status: ('A' for Active; 'I' for Inactive)
REMARK    1  A    between atoms: O_7  and  C_27
REMARK    2  A    between atoms: O_7  and  C_31
REMARK    3  A    between atoms: N_9  and  C_20
REMARK    4  A    between atoms: N_10  and  C_15
REMARK    5  A    between atoms: C_21  and  C_24
REMARK                            x       y       z     vdW  Elec       q    Type
REMARK                         _______ _______ _______ _____ _____    ______ ____
ROOT
ATOM      4  O   UNL     1      -4.394  -8.305   9.510  0.00  0.00    -0.273 OA
ATOM      5  O   UNL     1      -6.774 -12.156  10.543  0.00  0.00    -0.252 OA
ATOM      8  N   UNL     1      -6.966 -10.525   8.902  0.00  0.00    -0.273 N 
ATOM      9  N   UNL     1      -5.266 -10.339  10.350  0.00  0.00    -0.193 N 
ATOM     13  C   UNL     1      -6.321  -9.307   8.496  0.00  0.00    +0.166 C 
ATOM     14  C   UNL     1      -7.288  -8.130   8.566  0.00  0.00    +0.054 C 
ATOM     15  C   UNL     1      -8.615  -8.438   7.851  0.00  0.00    +0.077 C 
ATOM     16  C   UNL     1      -9.215  -9.772   8.329  0.00  0.00    +0.041 C 
ATOM     17  C   UNL     1      -8.207 -10.920   8.261  0.00  0.00    +0.112 C 
ATOM     18  C   UNL     1      -5.202  -9.225   9.519  0.00  0.00    +0.248 C 
ATOM     19  C   UNL     1      -6.357 -11.140   9.998  0.00  0.00    +0.316 C 
ENDROOT
BRANCH   9  20
ATOM     20  C   UNL     1      -4.365 -10.614  11.427  0.00  0.00    +0.046 A 
ATOM     22  C   UNL     1      -3.076 -11.083  11.161  0.00  0.00    +0.027 A 
ATOM     23  C   UNL     1      -4.769 -10.416  12.749  0.00  0.00    +0.027 A 
ATOM     25  C   UNL     1      -2.198 -11.352  12.211  0.00  0.00    +0.048 A 
ATOM     26  C   UNL     1      -3.891 -10.685  13.799  0.00  0.00    +0.048 A 
ATOM     27  C   UNL     1      -2.605 -11.154  13.530  0.00  0.00    +0.130 A 
BRANCH  27   7
ATOM      7  O   UNL     1      -1.747 -11.415  14.554  0.00  0.00    -0.406 OA
BRANCH   7  31
ATOM      1  F   UNL     1      -2.090  -9.974  16.257  0.00  0.00    -0.133 F 
ATOM      2  F   UNL     1      -0.045 -10.641  15.871  0.00  0.00    -0.133 F 
ATOM      3  F   UNL     1      -1.044  -9.239  14.484  0.00  0.00    -0.133 F 
ATOM     31  C   UNL     1      -1.215 -10.315  15.283  0.00  0.00    +0.575 C 
ENDBRANCH   7  31
ENDBRANCH  27   7
ENDBRANCH   9  20
BRANCH  15  10
ATOM      6  O   UNL     1     -10.111  -6.878   5.961  0.00  0.00    -0.268 OA
ATOM     10  N   UNL     1      -8.450  -8.431   6.416  0.00  0.00    -0.307 N 
ATOM     21  C   UNL     1      -9.225  -7.639   5.582  0.00  0.00    +0.264 C 
ATOM     32  H   UNL     1      -7.776  -9.068   6.001  0.00  0.00    +0.149 HD
BRANCH  21  24
ATOM     11  N   UNL     1      -9.626  -6.927   3.345  0.00  0.00    -0.247 NA
ATOM     12  N   UNL     1      -7.802  -8.817   2.364  0.00  0.00    -0.259 NA
ATOM     24  C   UNL     1      -8.949  -7.766   4.128  0.00  0.00    +0.143 A 
ATOM     28  C   UNL     1      -8.060  -8.692   3.680  0.00  0.00    +0.143 A 
ATOM     29  C   UNL     1      -9.367  -7.051   2.028  0.00  0.00    +0.131 A 
ATOM     30  C   UNL     1      -8.471  -7.980   1.546  0.00  0.00    +0.130 A 
ENDBRANCH  21  24
ENDBRANCH  15  10
TORSDOF 5
ENDMDL
MODEL 7
REMARK VINA RESULT:      -6.2     16.582     18.510
REMARK  Name = 9419192
REMARK  5 active torsions:
REMARK  status: ('A' for Active; 'I' for Inactive)
REMARK    1  A    between atoms: O_7  and  C_27
REMARK    2  A    between atoms: O_7  and  C_31
REMARK    3  A    between atoms: N_9  and  C_20
REMARK    4  A    between atoms: N_10  and  C_15
REMARK    5  A    between atoms: C_21  and  C_24
REMARK                            x       y       z     vdW  Elec       q    Type
REMARK                         _______ _______ _______ _____ _____    ______ ____
ROOT
ATOM      4  O   UNL     1      -9.893  -7.437  17.406  0.00  0.00    -0.273 OA
ATOM      5  O   UNL     1      -9.105 -10.947  14.469  0.00  0.00    -0.252 OA
ATOM      8  N   UNL     1     -10.575  -9.150  14.488  0.00  0.00    -0.273 N 
ATOM      9  N   UNL     1      -9.129  -9.320  16.191  0.00  0.00    -0.193 N 
ATOM     13  C   UNL     1     -10.921  -8.035  15.325  0.00  0.00    +0.166 C 
ATOM     14  C   UNL     1     -12.376  -8.122  15.775  0.00  0.00    +0.054 C 
ATOM     15  C   UNL     1     -13.326  -8.371  14.590  0.00  0.00    +0.077 C 
ATOM     16  C   UNL     1     -12.860  -9.564  13.737  0.00  0.00    +0.041 C 
ATOM     17  C   UNL     1     -11.392  -9.446  13.324  0.00  0.00    +0.112 C 
ATOM     18  C   UNL     1      -9.931  -8.215  16.461  0.00  0.00    +0.248 C 
ATOM     19  C   UNL     1      -9.524  -9.920  14.990  0.00  0.00    +0.316 C 
ENDROOT
BRANCH   9  20
ATOM     20  C   UNL     1      -8.071  -9.793  17.031  0.00  0.00    +0.046 A 
ATOM     22  C   UNL     1      -6.739  -9.568  16.674  0.00  0.00    +0.027 A 
ATOM     23  C   UNL     1      -8.365 -10.482  18.209  0.00  0.00    +0.027 A 
ATOM     25  C   UNL     1      -5.707 -10.029  17.492  0.00  0.00    +0.048 A 
ATOM     26  C   UNL     1      -7.333 -10.943  19.028  0.00  0.00    +0.048 A 
ATOM     27  C   UNL     1      -6.005 -10.717  18.668  0.00  0.00    +0.130 A 
BRANCH  27   7
ATOM      7  O   UNL     1      -4.998 -11.166  19.467  0.00  0.00    -0.406 OA
BRANCH   7  31
ATOM      1  F   UNL     1      -3.339 -12.623  19.936  0.00  0.00    -0.133 F 
ATOM      2  F   UNL     1      -4.725 -13.128  18.324  0.00  0.00    -0.133 F 
ATOM      3  F   UNL     1      -3.235 -11.517  18.053  0.00  0.00    -0.133 F 
ATOM     31  C   UNL     1      -4.079 -12.108  18.927  0.00  0.00    +0.575 C 
ENDBRANCH   7  31
ENDBRANCH  27   7
ENDBRANCH   9  20
BRANCH  15  10
ATOM      6  O   UNL     1     -15.349  -6.353  14.862  0.00  0.00    -0.268 OA
ATOM     10  N   UNL     1     -13.474  -7.184  13.780  0.00  0.00    -0.307 N 
ATOM     21  C   UNL     1     -14.490  -6.264  13.989  0.00  0.00    +0.264 C 
ATOM     32  H   UNL     1     -12.842  -7.048  12.997  0.00  0.00    +0.149 HD
BRANCH  21  24
ATOM     11  N   UNL     1     -15.549  -5.092  12.207  0.00  0.00    -0.247 NA
ATOM     12  N   UNL     1     -13.561  -3.116  12.258  0.00  0.00    -0.259 NA
ATOM     24  C   UNL     1     -14.521  -5.110  13.054  0.00  0.00    +0.143 A 
ATOM     28  C   UNL     1     -13.543  -4.167  13.100  0.00  0.00    +0.143 A 
ATOM     29  C   UNL     1     -15.567  -4.040  11.364  0.00  0.00    +0.131 A 
ATOM     30  C   UNL     1     -14.590  -3.070  11.389  0.00  0.00    +0.130 A 
ENDBRANCH  21  24
ENDBRANCH  15  10
TORSDOF 5
ENDMDL
MODEL 8
REMARK VINA RESULT:      -6.2     29.513     33.244
REMARK  Name = 9419192
REMARK  5 active torsions:
REMARK  status: ('A' for Active; 'I' for Inactive)
REMARK    1  A    between atoms: O_7  and  C_27
REMARK    2  A    between atoms: O_7  and  C_31
REMARK    3  A    between atoms: N_9  and  C_20
REMARK    4  A    between atoms: N_10  and  C_15
REMARK    5  A    between atoms: C_21  and  C_24
REMARK                            x       y       z     vdW  Elec       q    Type
REMARK                         _______ _______ _______ _____ _____    ______ ____
ROOT
ATOM      4  O   UNL     1      17.881  10.528  21.619  0.00  0.00    -0.273 OA
ATOM      5  O   UNL     1      19.203   6.149  20.819  0.00  0.00    -0.252 OA
ATOM      8  N   UNL     1      17.308   7.388  20.305  0.00  0.00    -0.273 N 
ATOM      9  N   UNL     1      18.964   8.435  21.393  0.00  0.00    -0.193 N 
ATOM     13  C   UNL     1      16.784   8.711  20.506  0.00  0.00    +0.166 C 
ATOM     14  C   UNL     1      15.487   8.666  21.307  0.00  0.00    +0.054 C 
ATOM     15  C   UNL     1      14.491   7.649  20.725  0.00  0.00    +0.077 C 
ATOM     16  C   UNL     1      15.148   6.273  20.518  0.00  0.00    +0.041 C 
ATOM     17  C   UNL     1      16.455   6.365  19.728  0.00  0.00    +0.112 C 
ATOM     18  C   UNL     1      17.932   9.359  21.260  0.00  0.00    +0.248 C 
ATOM     19  C   UNL     1      18.590   7.211  20.828  0.00  0.00    +0.316 C 
ENDROOT
BRANCH   9  20
ATOM     20  C   UNL     1      20.217   8.690  22.036  0.00  0.00    +0.046 A 
ATOM     22  C   UNL     1      21.311   9.132  21.290  0.00  0.00    +0.027 A 
ATOM     23  C   UNL     1      20.351   8.495  23.413  0.00  0.00    +0.027 A 
ATOM     25  C   UNL     1      22.533   9.380  21.918  0.00  0.00    +0.048 A 
ATOM     26  C   UNL     1      21.573   8.742  24.040  0.00  0.00    +0.048 A 
ATOM     27  C   UNL     1      22.663   9.184  23.292  0.00  0.00    +0.130 A 
BRANCH  27   7
ATOM      7  O   UNL     1      23.855   9.427  23.904  0.00  0.00    -0.406 OA
BRANCH   7  31
ATOM      1  F   UNL     1      24.367   7.924  25.508  0.00  0.00    -0.133 F 
ATOM      2  F   UNL     1      24.451   7.272  23.425  0.00  0.00    -0.133 F 
ATOM      3  F   UNL     1      25.981   8.650  24.226  0.00  0.00    -0.133 F 
ATOM     31  C   UNL     1      24.673   8.316  24.250  0.00  0.00    +0.575 C 
ENDBRANCH   7  31
ENDBRANCH  27   7
ENDBRANCH   9  20
BRANCH  15  10
ATOM      6  O   UNL     1      12.099   6.683  19.465  0.00  0.00    -0.268 OA
ATOM     10  N   UNL     1      13.908   8.132  19.494  0.00  0.00    -0.307 N 
ATOM     21  C   UNL     1      12.745   7.598  18.963  0.00  0.00    +0.264 C 
ATOM     32  H   UNL     1      14.399   8.855  18.975  0.00  0.00    +0.149 HD
BRANCH  21  24
ATOM     11  N   UNL     1      10.968   8.263  17.522  0.00  0.00    -0.247 NA
ATOM     12  N   UNL     1      12.799   9.142  15.588  0.00  0.00    -0.259 NA
ATOM     24  C   UNL     1      12.290   8.188  17.677  0.00  0.00    +0.143 A 
ATOM     28  C   UNL     1      13.200   8.605  16.757  0.00  0.00    +0.143 A 
ATOM     29  C   UNL     1      10.568   8.800  16.352  0.00  0.00    +0.131 A 
ATOM     30  C   UNL     1      11.467   9.232  15.402  0.00  0.00    +0.130 A 
ENDBRANCH  21  24
ENDBRANCH  15  10
TORSDOF 5
ENDMDL
MODEL 9
REMARK VINA RESULT:      -6.1     23.212     25.481
REMARK  Name = 9419192
REMARK  5 active torsions:
REMARK  status: ('A' for Active; 'I' for Inactive)
REMARK    1  A    between atoms: O_7  and  C_27
REMARK    2  A    between atoms: O_7  and  C_31
REMARK    3  A    between atoms: N_9  and  C_20
REMARK    4  A    between atoms: N_10  and  C_15
REMARK    5  A    between atoms: C_21  and  C_24
REMARK                            x       y       z     vdW  Elec       q    Type
REMARK                         _______ _______ _______ _____ _____    ______ ____
ROOT
ATOM      4  O   UNL     1      -2.923  -9.916  10.989  0.00  0.00    -0.273 OA
ATOM      5  O   UNL     1      -6.107 -13.191  11.827  0.00  0.00    -0.252 OA
ATOM      8  N   UNL     1      -4.947 -12.506   9.936  0.00  0.00    -0.273 N 
ATOM      9  N   UNL     1      -4.488 -11.462  11.864  0.00  0.00    -0.193 N 
ATOM     13  C   UNL     1      -3.975 -11.521   9.552  0.00  0.00    +0.166 C 
ATOM     14  C   UNL     1      -4.541 -10.582   8.492  0.00  0.00    +0.054 C 
ATOM     15  C   UNL     1      -5.183 -11.356   7.328  0.00  0.00    +0.077 C 
ATOM     16  C   UNL     1      -6.187 -12.406   7.837  0.00  0.00    +0.041 C 
ATOM     17  C   UNL     1      -5.585 -13.313   8.911  0.00  0.00    +0.112 C 
ATOM     18  C   UNL     1      -3.722 -10.838  10.884  0.00  0.00    +0.248 C 
ATOM     19  C   UNL     1      -5.263 -12.478  11.296  0.00  0.00    +0.316 C 
ENDROOT
BRANCH   9  20
ATOM     20  C   UNL     1      -4.503 -11.101  13.250  0.00  0.00    +0.046 A 
ATOM     22  C   UNL     1      -5.554 -10.339  13.764  0.00  0.00    +0.027 A 
ATOM     23  C   UNL     1      -3.465 -11.507  14.091  0.00  0.00    +0.027 A 
ATOM     25  C   UNL     1      -5.568  -9.987  15.115  0.00  0.00    +0.048 A 
ATOM     26  C   UNL     1      -3.479 -11.155  15.441  0.00  0.00    +0.048 A 
ATOM     27  C   UNL     1      -4.530 -10.394  15.953  0.00  0.00    +0.130 A 
BRANCH  27   7
ATOM      7  O   UNL     1      -4.545 -10.052  17.270  0.00  0.00    -0.406 OA
BRANCH   7  31
ATOM      1  F   UNL     1      -5.635 -11.993  17.647  0.00  0.00    -0.133 F 
ATOM      2  F   UNL     1      -3.714 -11.683  18.641  0.00  0.00    -0.133 F 
ATOM      3  F   UNL     1      -5.501 -10.553  19.286  0.00  0.00    -0.133 F 
ATOM     31  C   UNL     1      -4.839 -11.064  18.225  0.00  0.00    +0.575 C 
ENDBRANCH   7  31
ENDBRANCH  27   7
ENDBRANCH   9  20
BRANCH  15  10
ATOM      6  O   UNL     1      -5.277 -11.638   4.473  0.00  0.00    -0.268 OA
ATOM     10  N   UNL     1      -4.179 -11.967   6.488  0.00  0.00    -0.307 N 
ATOM     21  C   UNL     1      -4.316 -12.056   5.111  0.00  0.00    +0.264 C 
ATOM     32  H   UNL     1      -3.368 -12.391   6.930  0.00  0.00    +0.149 HD
BRANCH  21  24
ATOM     11  N   UNL     1      -2.512 -13.612   5.119  0.00  0.00    -0.247 NA
ATOM     12  N   UNL     1      -1.958 -13.058   2.426  0.00  0.00    -0.259 NA
ATOM     24  C   UNL     1      -3.207 -12.737   4.393  0.00  0.00    +0.143 A 
ATOM     28  C   UNL     1      -2.960 -12.448   3.088  0.00  0.00    +0.143 A 
ATOM     29  C   UNL     1      -1.510 -14.223   4.456  0.00  0.00    +0.131 A 
ATOM     30  C   UNL     1      -1.237 -13.951   3.134  0.00  0.00    +0.130 A 
ENDBRANCH  21  24
ENDBRANCH  15  10
TORSDOF 5
ENDMDL
MODEL 10
REMARK VINA RESULT:      -6.1     22.433     24.865
REMARK  Name = 9419192
REMARK  5 active torsions:
REMARK  status: ('A' for Active; 'I' for Inactive)
REMARK    1  A    between atoms: O_7  and  C_27
REMARK    2  A    between atoms: O_7  and  C_31
REMARK    3  A    between atoms: N_9  and  C_20
REMARK    4  A    between atoms: N_10  and  C_15
REMARK    5  A    between atoms: C_21  and  C_24
REMARK                            x       y       z     vdW  Elec       q    Type
REMARK                         _______ _______ _______ _____ _____    ______ ____
ROOT
ATOM      4  O   UNL     1      -4.862 -10.927   6.526  0.00  0.00    -0.273 OA
ATOM      5  O   UNL     1      -7.183  -8.494   9.730  0.00  0.00    -0.252 OA
ATOM      8  N   UNL     1      -7.595  -9.067   7.519  0.00  0.00    -0.273 N 
ATOM      9  N   UNL     1      -5.707  -9.833   8.449  0.00  0.00    -0.193 N 
ATOM     13  C   UNL     1      -6.966  -9.781   6.442  0.00  0.00    +0.166 C 
ATOM     14  C   UNL     1      -6.708  -8.859   5.255  0.00  0.00    +0.054 C 
ATOM     15  C   UNL     1      -7.966  -8.064   4.865  0.00  0.00    +0.077 C 
ATOM     16  C   UNL     1      -8.586  -7.359   6.084  0.00  0.00    +0.041 C 
ATOM     17  C   UNL     1      -8.810  -8.314   7.258  0.00  0.00    +0.112 C 
ATOM     18  C   UNL     1      -5.693 -10.253   7.122  0.00  0.00    +0.248 C 
ATOM     19  C   UNL     1      -6.861  -9.085   8.705  0.00  0.00    +0.316 C 
ENDROOT
BRANCH   9  20
ATOM     20  C   UNL     1      -4.678 -10.103   9.407  0.00  0.00    +0.046 A 
ATOM     22  C   UNL     1      -3.696  -9.146   9.669  0.00  0.00    +0.027 A 
ATOM     23  C   UNL     1      -4.652 -11.325  10.083  0.00  0.00    +0.027 A 
ATOM     25  C   UNL     1      -2.693  -9.410  10.603  0.00  0.00    +0.048 A 
ATOM     26  C   UNL     1      -3.649 -11.589  11.016  0.00  0.00    +0.048 A 
ATOM     27  C   UNL     1      -2.669 -10.631  11.276  0.00  0.00    +0.130 A 
BRANCH  27   7
ATOM      7  O   UNL     1      -1.692 -10.887  12.188  0.00  0.00    -0.406 OA
BRANCH   7  31
ATOM      1  F   UNL     1      -3.226 -10.187  13.689  0.00  0.00    -0.133 F 
ATOM      2  F   UNL     1      -1.662 -11.549  14.377  0.00  0.00    -0.133 F 
ATOM      3  F   UNL     1      -1.179  -9.448  13.890  0.00  0.00    -0.133 F 
ATOM     31  C   UNL     1      -1.923 -10.520  13.543  0.00  0.00    +0.575 C 
ENDBRANCH   7  31
ENDBRANCH  27   7
ENDBRANCH   9  20
BRANCH  15  10
ATOM      6  O   UNL     1      -7.877  -8.991   2.150  0.00  0.00    -0.268 OA
ATOM     10  N   UNL     1      -8.937  -8.910   4.210  0.00  0.00    -0.307 N 
ATOM     21  C   UNL     1      -8.806  -9.305   2.888  0.00  0.00    +0.264 C 
ATOM     32  H   UNL     1      -9.771  -9.181   4.723  0.00  0.00    +0.149 HD
BRANCH  21  24
ATOM     11  N   UNL     1      -9.526 -11.090   1.484  0.00  0.00    -0.247 NA
ATOM     12  N   UNL     1     -12.187 -10.708   2.279  0.00  0.00    -0.259 NA
ATOM     24  C   UNL     1      -9.903 -10.153   2.353  0.00  0.00    +0.143 A 
ATOM     28  C   UNL     1     -11.184  -9.945   2.756  0.00  0.00    +0.143 A 
ATOM     29  C   UNL     1     -10.530 -11.853   1.007  0.00  0.00    +0.131 A 
ATOM     30  C   UNL     1     -11.837 -11.665   1.397  0.00  0.00    +0.130 A 
ENDBRANCH  21  24
ENDBRANCH  15  10
TORSDOF 5
ENDMDL
