MODEL 1
REMARK VINA RESULT:      -7.1      0.000      0.000
REMARK  Name = 7142730
REMARK  5 active torsions:
REMARK  status: ('A' for Active; 'I' for Inactive)
REMARK    1  A    between atoms: O_4  and  C_21
REMARK    2  A    between atoms: O_4  and  C_23
REMARK    3  A    between atoms: N_8  and  C_19
REMARK    4  A    between atoms: C_18  and  C_21
REMARK    5  A    between atoms: C_22  and  C_24
REMARK                            x       y       z     vdW  Elec       q    Type
REMARK                         _______ _______ _______ _____ _____    ______ ____
ROOT
ATOM      2  O   UNL     1      -4.849 -12.615   9.552  0.00  0.00    -0.266 OA
ATOM      3  O   UNL     1      -6.128 -12.478  14.750  0.00  0.00    -0.272 OA
ATOM      6  N   UNL     1      -3.837 -12.222  14.457  0.00  0.00    -0.298 N 
ATOM      7  N   UNL     1      -3.356 -12.180  11.296  0.00  0.00    -0.310 N 
ATOM      9  C   UNL     1      -2.710 -13.943  13.038  0.00  0.00    +0.027 C 
ATOM     10  C   UNL     1      -1.768 -11.677  13.186  0.00  0.00    +0.054 C 
ATOM     11  C   UNL     1      -1.407 -13.159  13.142  0.00  0.00    +0.018 C 
ATOM     12  C   UNL     1      -3.612 -13.655  14.251  0.00  0.00    +0.113 C 
ATOM     13  C   UNL     1      -3.398 -13.588  11.712  0.00  0.00    +0.130 C 
ATOM     14  C   UNL     1      -2.625 -11.389  14.435  0.00  0.00    +0.117 C 
ATOM     15  C   UNL     1      -2.522 -11.259  11.937  0.00  0.00    +0.027 A 
ATOM     16  C   UNL     1      -2.412 -10.006  11.467  0.00  0.00    +0.024 A 
ATOM     17  C   UNL     1      -4.115 -11.834  10.160  0.00  0.00    +0.273 A 
ATOM     18  C   UNL     1      -5.123 -11.761  14.737  0.00  0.00    +0.253 C 
ATOM     19  C   UNL     1      -3.984 -10.421   9.683  0.00  0.00    +0.099 A 
ATOM     20  C   UNL     1      -3.159  -9.580  10.317  0.00  0.00    +0.030 A 
ENDROOT
BRANCH  19   8
ATOM      5  O   UNL     1      -6.651  -9.406   9.710  0.00  0.00    -0.269 OA
ATOM      8  N   UNL     1      -4.712 -10.043   8.593  0.00  0.00    -0.277 N 
ATOM     22  C   UNL     1      -6.010  -9.555   8.673  0.00  0.00    +0.255 C 
ATOM     33  H   UNL     1      -4.351 -10.308   7.680  0.00  0.00    +0.155 HD
BRANCH  22  24
ATOM      1  S   UNL     1      -7.884  -8.046   7.425  0.00  0.00    -0.092 S 
ATOM     24  C   UNL     1      -6.634  -9.174   7.379  0.00  0.00    +0.074 A 
ATOM     27  C   UNL     1      -6.308  -9.634   6.162  0.00  0.00    +0.021 A 
ATOM     30  C   UNL     1      -7.135  -9.028   5.173  0.00  0.00    +0.008 A 
ATOM     32  C   UNL     1      -8.037  -8.143   5.722  0.00  0.00    +0.046 A 
ENDBRANCH  22  24
ENDBRANCH  19   8
BRANCH  18  21
ATOM     21  C   UNL     1      -5.263 -10.289  15.030  0.00  0.00    +0.324 C 
BRANCH  21   4
ATOM      4  O   UNL     1      -4.575 -10.051  16.235  0.00  0.00    -0.483 OA
BRANCH   4  23
ATOM     23  C   UNL     1      -5.151 -10.516  17.396  0.00  0.00    +0.121 A 
ATOM     25  C   UNL     1      -6.448 -10.141  17.711  0.00  0.00    +0.045 A 
ATOM     26  C   UNL     1      -4.423 -11.351  18.229  0.00  0.00    +0.045 A 
ATOM     28  C   UNL     1      -7.032 -10.611  18.887  0.00  0.00    +0.004 A 
ATOM     29  C   UNL     1      -5.006 -11.822  19.406  0.00  0.00    +0.004 A 
ATOM     31  C   UNL     1      -6.311 -11.452  19.735  0.00  0.00    +0.000 A 
ENDBRANCH   4  23
ENDBRANCH  21   4
ENDBRANCH  18  21
TORSDOF 5
ENDMDL
MODEL 2
REMARK VINA RESULT:      -7.1     24.834     27.668
REMARK  Name = 7142730
REMARK  5 active torsions:
REMARK  status: ('A' for Active; 'I' for Inactive)
REMARK    1  A    between atoms: O_4  and  C_21
REMARK    2  A    between atoms: O_4  and  C_23
REMARK    3  A    between atoms: N_8  and  C_19
REMARK    4  A    between atoms: C_18  and  C_21
REMARK    5  A    between atoms: C_22  and  C_24
REMARK                            x       y       z     vdW  Elec       q    Type
REMARK                         _______ _______ _______ _____ _____    ______ ____
ROOT
ATOM      2  O   UNL     1      14.128   6.827   7.057  0.00  0.00    -0.266 OA
ATOM      3  O   UNL     1      10.338   3.782   4.812  0.00  0.00    -0.272 OA
ATOM      6  N   UNL     1       9.636   5.991   4.968  0.00  0.00    -0.298 N 
ATOM      7  N   UNL     1      12.109   7.614   6.182  0.00  0.00    -0.310 N 
ATOM      9  C   UNL     1       9.837   7.054   7.220  0.00  0.00    +0.027 C 
ATOM     10  C   UNL     1       9.945   8.449   5.199  0.00  0.00    +0.054 C 
ATOM     11  C   UNL     1       9.393   8.383   6.621  0.00  0.00    +0.018 C 
ATOM     12  C   UNL     1       9.296   5.878   6.388  0.00  0.00    +0.113 C 
ATOM     13  C   UNL     1      11.369   7.038   7.312  0.00  0.00    +0.130 C 
ATOM     14  C   UNL     1       9.354   7.300   4.359  0.00  0.00    +0.117 C 
ATOM     15  C   UNL     1      11.460   8.363   5.196  0.00  0.00    +0.027 A 
ATOM     16  C   UNL     1      12.171   8.978   4.236  0.00  0.00    +0.024 A 
ATOM     17  C   UNL     1      13.511   7.462   6.201  0.00  0.00    +0.273 A 
ATOM     18  C   UNL     1      10.107   4.872   4.281  0.00  0.00    +0.253 C 
ATOM     19  C   UNL     1      14.265   8.141   5.100  0.00  0.00    +0.099 A 
ATOM     20  C   UNL     1      13.602   8.863   4.189  0.00  0.00    +0.030 A 
ENDROOT
BRANCH  19   8
ATOM      5  O   UNL     1      16.153   9.903   6.316  0.00  0.00    -0.269 OA
ATOM      8  N   UNL     1      15.622   8.007   5.076  0.00  0.00    -0.277 N 
ATOM     22  C   UNL     1      16.489   8.901   5.689  0.00  0.00    +0.255 C 
ATOM     33  H   UNL     1      16.008   7.329   4.424  0.00  0.00    +0.155 HD
BRANCH  22  24
ATOM      1  S   UNL     1      18.518   8.171   4.046  0.00  0.00    -0.092 S 
ATOM     24  C   UNL     1      17.935   8.577   5.573  0.00  0.00    +0.074 A 
ATOM     27  C   UNL     1      18.839   8.571   6.564  0.00  0.00    +0.021 A 
ATOM     30  C   UNL     1      20.120   8.208   6.054  0.00  0.00    +0.008 A 
ATOM     32  C   UNL     1      20.088   7.964   4.699  0.00  0.00    +0.046 A 
ENDBRANCH  22  24
ENDBRANCH  19   8
BRANCH  18  21
ATOM     21  C   UNL     1      10.347   5.038   2.803  0.00  0.00    +0.324 C 
BRANCH  21   4
ATOM      4  O   UNL     1      11.187   3.979   2.409  0.00  0.00    -0.483 OA
BRANCH   4  23
ATOM     23  C   UNL     1      12.473   4.295   2.034  0.00  0.00    +0.121 A 
ATOM     25  C   UNL     1      12.890   5.618   2.078  0.00  0.00    +0.045 A 
ATOM     26  C   UNL     1      13.329   3.287   1.619  0.00  0.00    +0.045 A 
ATOM     28  C   UNL     1      14.192   5.939   1.697  0.00  0.00    +0.004 A 
ATOM     29  C   UNL     1      14.632   3.608   1.238  0.00  0.00    +0.004 A 
ATOM     31  C   UNL     1      15.064   4.935   1.278  0.00  0.00    +0.000 A 
ENDBRANCH   4  23
ENDBRANCH  21   4
ENDBRANCH  18  21
TORSDOF 5
ENDMDL
MODEL 3
REMARK VINA RESULT:      -6.9      4.298      7.383
REMARK  Name = 7142730
REMARK  5 active torsions:
REMARK  status: ('A' for Active; 'I' for Inactive)
REMARK    1  A    between atoms: O_4  and  C_21
REMARK    2  A    between atoms: O_4  and  C_23
REMARK    3  A    between atoms: N_8  and  C_19
REMARK    4  A    between atoms: C_18  and  C_21
REMARK    5  A    between atoms: C_22  and  C_24
REMARK                            x       y       z     vdW  Elec       q    Type
REMARK                         _______ _______ _______ _____ _____    ______ ____
ROOT
ATOM      2  O   UNL     1      -8.228  -8.455  17.079  0.00  0.00    -0.266 OA
ATOM      3  O   UNL     1      -3.245 -10.190  16.165  0.00  0.00    -0.272 OA
ATOM      6  N   UNL     1      -4.597 -11.923  16.922  0.00  0.00    -0.298 N 
ATOM      7  N   UNL     1      -7.525 -10.677  17.239  0.00  0.00    -0.310 N 
ATOM      9  C   UNL     1      -5.876 -11.483  19.023  0.00  0.00    +0.027 C 
ATOM     10  C   UNL     1      -6.757 -13.073  17.368  0.00  0.00    +0.054 C 
ATOM     11  C   UNL     1      -6.577 -12.827  18.864  0.00  0.00    +0.018 C 
ATOM     12  C   UNL     1      -4.506 -11.503  18.323  0.00  0.00    +0.113 C 
ATOM     13  C   UNL     1      -6.788 -10.379  18.474  0.00  0.00    +0.130 C 
ATOM     14  C   UNL     1      -5.378 -13.146  16.685  0.00  0.00    +0.117 C 
ATOM     15  C   UNL     1      -7.591 -11.977  16.730  0.00  0.00    +0.027 A 
ATOM     16  C   UNL     1      -8.365 -12.249  15.666  0.00  0.00    +0.024 A 
ATOM     17  C   UNL     1      -8.242  -9.611  16.657  0.00  0.00    +0.273 A 
ATOM     18  C   UNL     1      -3.895 -11.216  15.945  0.00  0.00    +0.253 C 
ATOM     19  C   UNL     1      -9.072  -9.950  15.458  0.00  0.00    +0.099 A 
ATOM     20  C   UNL     1      -9.119 -11.212  15.018  0.00  0.00    +0.030 A 
ENDROOT
BRANCH  19   8
ATOM      5  O   UNL     1     -11.761  -9.188  16.040  0.00  0.00    -0.269 OA
ATOM      8  N   UNL     1      -9.771  -8.944  14.858  0.00  0.00    -0.277 N 
ATOM     22  C   UNL     1     -11.081  -8.621  15.187  0.00  0.00    +0.255 C 
ATOM     33  H   UNL     1      -9.373  -8.544  14.012  0.00  0.00    +0.155 HD
BRANCH  22  24
ATOM      1  S   UNL     1     -11.589  -5.959  15.162  0.00  0.00    -0.092 S 
ATOM     24  C   UNL     1     -11.669  -7.479  14.441  0.00  0.00    +0.074 A 
ATOM     27  C   UNL     1     -12.264  -7.524  13.240  0.00  0.00    +0.021 A 
ATOM     30  C   UNL     1     -12.698  -6.221  12.860  0.00  0.00    +0.008 A 
ATOM     32  C   UNL     1     -12.393  -5.275  13.814  0.00  0.00    +0.046 A 
ENDBRANCH  22  24
ENDBRANCH  19   8
BRANCH  18  21
ATOM     21  C   UNL     1      -3.960 -11.761  14.541  0.00  0.00    +0.324 C 
BRANCH  21   4
ATOM      4  O   UNL     1      -4.798 -10.895  13.812  0.00  0.00    -0.483 OA
BRANCH   4  23
ATOM     23  C   UNL     1      -4.293 -10.356  12.650  0.00  0.00    +0.121 A 
ATOM     25  C   UNL     1      -2.964 -10.573  12.319  0.00  0.00    +0.045 A 
ATOM     26  C   UNL     1      -5.123  -9.605  11.831  0.00  0.00    +0.045 A 
ATOM     28  C   UNL     1      -2.452 -10.026  11.143  0.00  0.00    +0.004 A 
ATOM     29  C   UNL     1      -4.611  -9.058  10.654  0.00  0.00    +0.004 A 
ATOM     31  C   UNL     1      -3.275  -9.269  10.310  0.00  0.00    +0.000 A 
ENDBRANCH   4  23
ENDBRANCH  21   4
ENDBRANCH  18  21
TORSDOF 5
ENDMDL
MODEL 4
REMARK VINA RESULT:      -6.9     24.959     27.126
REMARK  Name = 7142730
REMARK  5 active torsions:
REMARK  status: ('A' for Active; 'I' for Inactive)
REMARK    1  A    between atoms: O_4  and  C_21
REMARK    2  A    between atoms: O_4  and  C_23
REMARK    3  A    between atoms: N_8  and  C_19
REMARK    4  A    between atoms: C_18  and  C_21
REMARK    5  A    between atoms: C_22  and  C_24
REMARK                            x       y       z     vdW  Elec       q    Type
REMARK                         _______ _______ _______ _____ _____    ______ ____
ROOT
ATOM      2  O   UNL     1      12.847   7.876   3.897  0.00  0.00    -0.266 OA
ATOM      3  O   UNL     1       9.225  11.043   6.248  0.00  0.00    -0.272 OA
ATOM      6  N   UNL     1       8.844   8.814   6.784  0.00  0.00    -0.298 N 
ATOM      7  N   UNL     1      11.208   7.163   5.403  0.00  0.00    -0.310 N 
ATOM      9  C   UNL     1       8.707   7.227   4.859  0.00  0.00    +0.027 C 
ATOM     10  C   UNL     1       9.460   6.418   7.056  0.00  0.00    +0.054 C 
ATOM     11  C   UNL     1       8.608   6.064   5.839  0.00  0.00    +0.018 C 
ATOM     12  C   UNL     1       8.191   8.524   5.506  0.00  0.00    +0.113 C 
ATOM     13  C   UNL     1      10.162   7.357   4.390  0.00  0.00    +0.130 C 
ATOM     14  C   UNL     1       8.900   7.688   7.728  0.00  0.00    +0.117 C 
ATOM     15  C   UNL     1      10.909   6.640   6.664  0.00  0.00    +0.027 A 
ATOM     16  C   UNL     1      11.895   6.362   7.532  0.00  0.00    +0.024 A 
ATOM     17  C   UNL     1      12.533   7.432   5.002  0.00  0.00    +0.273 A 
ATOM     18  C   UNL     1       9.281  10.111   7.056  0.00  0.00    +0.253 C 
ATOM     19  C   UNL     1      13.601   7.132   6.008  0.00  0.00    +0.099 A 
ATOM     20  C   UNL     1      13.268   6.614   7.195  0.00  0.00    +0.030 A 
ENDROOT
BRANCH  19   8
ATOM      5  O   UNL     1      15.056   9.517   6.593  0.00  0.00    -0.269 OA
ATOM      8  N   UNL     1      14.895   7.390   5.663  0.00  0.00    -0.277 N 
ATOM     22  C   UNL     1      15.549   8.574   5.978  0.00  0.00    +0.255 C 
ATOM     33  H   UNL     1      15.329   6.764   4.990  0.00  0.00    +0.155 HD
BRANCH  22  24
ATOM      1  S   UNL     1      17.296   8.335   3.920  0.00  0.00    -0.092 S 
ATOM     24  C   UNL     1      16.965   8.665   5.538  0.00  0.00    +0.074 A 
ATOM     27  C   UNL     1      18.024   8.984   6.297  0.00  0.00    +0.021 A 
ATOM     30  C   UNL     1      19.213   8.963   5.511  0.00  0.00    +0.008 A 
ATOM     32  C   UNL     1      18.961   8.626   4.200  0.00  0.00    +0.046 A 
ENDBRANCH  22  24
ENDBRANCH  19   8
BRANCH  18  21
ATOM     21  C   UNL     1       9.858  10.356   8.426  0.00  0.00    +0.324 C 
BRANCH  21   4
ATOM      4  O   UNL     1       9.156  11.448   8.970  0.00  0.00    -0.483 OA
BRANCH   4  23
ATOM     23  C   UNL     1       9.440  11.798  10.271  0.00  0.00    +0.121 A 
ATOM     25  C   UNL     1       8.405  12.167  11.118  0.00  0.00    +0.045 A 
ATOM     26  C   UNL     1      10.754  11.777  10.711  0.00  0.00    +0.045 A 
ATOM     28  C   UNL     1       8.692  12.523  12.436  0.00  0.00    +0.004 A 
ATOM     29  C   UNL     1      11.041  12.132  12.029  0.00  0.00    +0.004 A 
ATOM     31  C   UNL     1      10.010  12.505  12.892  0.00  0.00    +0.000 A 
ENDBRANCH   4  23
ENDBRANCH  21   4
ENDBRANCH  18  21
TORSDOF 5
ENDMDL
MODEL 5
REMARK VINA RESULT:      -6.9      8.866     12.331
REMARK  Name = 7142730
REMARK  5 active torsions:
REMARK  status: ('A' for Active; 'I' for Inactive)
REMARK    1  A    between atoms: O_4  and  C_21
REMARK    2  A    between atoms: O_4  and  C_23
REMARK    3  A    between atoms: N_8  and  C_19
REMARK    4  A    between atoms: C_18  and  C_21
REMARK    5  A    between atoms: C_22  and  C_24
REMARK                            x       y       z     vdW  Elec       q    Type
REMARK                         _______ _______ _______ _____ _____    ______ ____
ROOT
ATOM      2  O   UNL     1     -11.838  -7.545   9.517  0.00  0.00    -0.266 OA
ATOM      3  O   UNL     1     -16.610  -5.337  10.528  0.00  0.00    -0.272 OA
ATOM      6  N   UNL     1     -14.932  -4.254  11.716  0.00  0.00    -0.298 N 
ATOM      7  N   UNL     1     -12.192  -5.642  10.826  0.00  0.00    -0.310 N 
ATOM      9  C   UNL     1     -13.424  -5.715  13.069  0.00  0.00    +0.027 C 
ATOM     10  C   UNL     1     -12.589  -3.571  12.204  0.00  0.00    +0.054 C 
ATOM     11  C   UNL     1     -12.574  -4.499  13.416  0.00  0.00    +0.018 C 
ATOM     12  C   UNL     1     -14.867  -5.292  12.747  0.00  0.00    +0.113 C 
ATOM     13  C   UNL     1     -12.768  -6.462  11.901  0.00  0.00    +0.130 C 
ATOM     14  C   UNL     1     -14.033  -3.109  11.923  0.00  0.00    +0.117 C 
ATOM     15  C   UNL     1     -12.023  -4.263  10.978  0.00  0.00    +0.027 A 
ATOM     16  C   UNL     1     -11.389  -3.552  10.031  0.00  0.00    +0.024 A 
ATOM     17  C   UNL     1     -11.727  -6.330   9.686  0.00  0.00    +0.273 A 
ATOM     18  C   UNL     1     -15.865  -4.365  10.684  0.00  0.00    +0.253 C 
ATOM     19  C   UNL     1     -11.049  -5.497   8.643  0.00  0.00    +0.099 A 
ATOM     20  C   UNL     1     -10.894  -4.184   8.841  0.00  0.00    +0.030 A 
ENDROOT
BRANCH  19   8
ATOM      5  O   UNL     1      -8.385  -6.413   8.183  0.00  0.00    -0.269 OA
ATOM      8  N   UNL     1     -10.596  -6.123   7.519  0.00  0.00    -0.277 N 
ATOM     22  C   UNL     1      -9.283  -6.546   7.356  0.00  0.00    +0.255 C 
ATOM     33  H   UNL     1     -11.203  -6.107   6.704  0.00  0.00    +0.155 HD
BRANCH  22  24
ATOM      1  S   UNL     1     -10.194  -7.246   4.900  0.00  0.00    -0.092 S 
ATOM     24  C   UNL     1      -8.983  -7.229   6.071  0.00  0.00    +0.074 A 
ATOM     27  C   UNL     1      -7.839  -7.843   5.735  0.00  0.00    +0.021 A 
ATOM     30  C   UNL     1      -7.939  -8.377   4.418  0.00  0.00    +0.008 A 
ATOM     32  C   UNL     1      -9.167  -8.124   3.848  0.00  0.00    +0.046 A 
ENDBRANCH  22  24
ENDBRANCH  19   8
BRANCH  18  21
ATOM     21  C   UNL     1     -15.937  -3.216   9.713  0.00  0.00    +0.324 C 
BRANCH  21   4
ATOM      4  O   UNL     1     -16.851  -2.290  10.252  0.00  0.00    -0.483 OA
BRANCH   4  23
ATOM     23  C   UNL     1     -16.562  -0.952  10.096  0.00  0.00    +0.121 A 
ATOM     25  C   UNL     1     -15.857  -0.533   8.978  0.00  0.00    +0.045 A 
ATOM     26  C   UNL     1     -16.982  -0.049  11.061  0.00  0.00    +0.045 A 
ATOM     28  C   UNL     1     -15.563   0.821   8.821  0.00  0.00    +0.004 A 
ATOM     29  C   UNL     1     -16.689   1.306  10.903  0.00  0.00    +0.004 A 
ATOM     31  C   UNL     1     -15.980   1.741   9.783  0.00  0.00    +0.000 A 
ENDBRANCH   4  23
ENDBRANCH  21   4
ENDBRANCH  18  21
TORSDOF 5
ENDMDL
MODEL 6
REMARK VINA RESULT:      -6.6      6.422     10.772
REMARK  Name = 7142730
REMARK  5 active torsions:
REMARK  status: ('A' for Active; 'I' for Inactive)
REMARK    1  A    between atoms: O_4  and  C_21
REMARK    2  A    between atoms: O_4  and  C_23
REMARK    3  A    between atoms: N_8  and  C_19
REMARK    4  A    between atoms: C_18  and  C_21
REMARK    5  A    between atoms: C_22  and  C_24
REMARK                            x       y       z     vdW  Elec       q    Type
REMARK                         _______ _______ _______ _____ _____    ______ ____
ROOT
ATOM      2  O   UNL     1     -10.103 -10.918  15.227  0.00  0.00    -0.266 OA
ATOM      3  O   UNL     1     -13.391  -8.379  11.847  0.00  0.00    -0.272 OA
ATOM      6  N   UNL     1     -13.942  -7.897  14.053  0.00  0.00    -0.298 N 
ATOM      7  N   UNL     1     -11.758  -9.390  15.849  0.00  0.00    -0.310 N 
ATOM      9  C   UNL     1     -14.258  -9.863  15.563  0.00  0.00    +0.027 C 
ATOM     10  C   UNL     1     -13.521  -7.712  16.498  0.00  0.00    +0.054 C 
ATOM     11  C   UNL     1     -14.429  -8.914  16.743  0.00  0.00    +0.018 C 
ATOM     12  C   UNL     1     -14.649  -9.165  14.249  0.00  0.00    +0.113 C 
ATOM     13  C   UNL     1     -12.809 -10.368  15.538  0.00  0.00    +0.130 C 
ATOM     14  C   UNL     1     -13.956  -6.988  15.209  0.00  0.00    +0.117 C 
ATOM     15  C   UNL     1     -12.068  -8.137  16.385  0.00  0.00    +0.027 A 
ATOM     16  C   UNL     1     -11.088  -7.304  16.770  0.00  0.00    +0.024 A 
ATOM     17  C   UNL     1     -10.426  -9.819  15.678  0.00  0.00    +0.273 A 
ATOM     18  C   UNL     1     -13.393  -7.600  12.805  0.00  0.00    +0.253 C 
ATOM     19  C   UNL     1      -9.361  -8.851  16.095  0.00  0.00    +0.099 A 
ATOM     20  C   UNL     1      -9.707  -7.671  16.620  0.00  0.00    +0.030 A 
ENDROOT
BRANCH  19   8
ATOM      5  O   UNL     1      -7.655  -9.928  18.114  0.00  0.00    -0.269 OA
ATOM      8  N   UNL     1      -8.059  -9.223  15.934  0.00  0.00    -0.277 N 
ATOM     22  C   UNL     1      -7.280  -9.742  16.959  0.00  0.00    +0.255 C 
ATOM     33  H   UNL     1      -7.598  -8.931  15.076  0.00  0.00    +0.155 HD
BRANCH  22  24
ATOM      1  S   UNL     1      -5.550 -10.297  14.947  0.00  0.00    -0.092 S 
ATOM     24  C   UNL     1      -5.889 -10.111  16.586  0.00  0.00    +0.074 A 
ATOM     27  C   UNL     1      -4.860 -10.315  17.421  0.00  0.00    +0.021 A 
ATOM     30  C   UNL     1      -3.689 -10.652  16.682  0.00  0.00    +0.008 A 
ATOM     32  C   UNL     1      -3.924 -10.677  15.325  0.00  0.00    +0.046 A 
ENDBRANCH  22  24
ENDBRANCH  19   8
BRANCH  18  21
ATOM     21  C   UNL     1     -12.763  -6.240  12.651  0.00  0.00    +0.324 C 
BRANCH  21   4
ATOM      4  O   UNL     1     -13.186  -5.739  11.405  0.00  0.00    -0.483 OA
BRANCH   4  23
ATOM     23  C   UNL     1     -12.216  -5.260  10.553  0.00  0.00    +0.121 A 
ATOM     25  C   UNL     1     -11.441  -6.156   9.830  0.00  0.00    +0.045 A 
ATOM     26  C   UNL     1     -12.030  -3.892  10.434  0.00  0.00    +0.045 A 
ATOM     28  C   UNL     1     -10.457  -5.671   8.969  0.00  0.00    +0.004 A 
ATOM     29  C   UNL     1     -11.046  -3.406   9.571  0.00  0.00    +0.004 A 
ATOM     31  C   UNL     1     -10.261  -4.296   8.839  0.00  0.00    +0.000 A 
ENDBRANCH   4  23
ENDBRANCH  21   4
ENDBRANCH  18  21
TORSDOF 5
ENDMDL
MODEL 7
REMARK VINA RESULT:      -6.6      4.374      7.638
REMARK  Name = 7142730
REMARK  5 active torsions:
REMARK  status: ('A' for Active; 'I' for Inactive)
REMARK    1  A    between atoms: O_4  and  C_21
REMARK    2  A    between atoms: O_4  and  C_23
REMARK    3  A    between atoms: N_8  and  C_19
REMARK    4  A    between atoms: C_18  and  C_21
REMARK    5  A    between atoms: C_22  and  C_24
REMARK                            x       y       z     vdW  Elec       q    Type
REMARK                         _______ _______ _______ _____ _____    ______ ____
ROOT
ATOM      2  O   UNL     1      -6.598 -12.848  15.168  0.00  0.00    -0.266 OA
ATOM      3  O   UNL     1     -11.527 -11.464  16.739  0.00  0.00    -0.272 OA
ATOM      6  N   UNL     1     -10.108 -11.679  18.567  0.00  0.00    -0.298 N 
ATOM      7  N   UNL     1      -7.222 -12.348  17.364  0.00  0.00    -0.310 N 
ATOM      9  C   UNL     1      -8.823 -13.817  18.718  0.00  0.00    +0.027 C 
ATOM     10  C   UNL     1      -7.904 -11.768  19.719  0.00  0.00    +0.054 C 
ATOM     11  C   UNL     1      -8.077 -13.270  19.929  0.00  0.00    +0.018 C 
ATOM     12  C   UNL     1     -10.198 -13.141  18.580  0.00  0.00    +0.113 C 
ATOM     13  C   UNL     1      -7.955 -13.616  17.468  0.00  0.00    +0.130 C 
ATOM     14  C   UNL     1      -9.288 -11.093  19.637  0.00  0.00    +0.117 C 
ATOM     15  C   UNL     1      -7.116 -11.479  18.454  0.00  0.00    +0.027 A 
ATOM     16  C   UNL     1      -6.345 -10.383  18.373  0.00  0.00    +0.024 A 
ATOM     17  C   UNL     1      -6.549 -12.105  16.149  0.00  0.00    +0.273 A 
ATOM     18  C   UNL     1     -10.844 -10.952  17.631  0.00  0.00    +0.253 C 
ATOM     19  C   UNL     1      -5.720 -10.859  16.090  0.00  0.00    +0.099 A 
ATOM     20  C   UNL     1      -5.634 -10.068  17.165  0.00  0.00    +0.030 A 
ENDROOT
BRANCH  19   8
ATOM      5  O   UNL     1      -3.050 -11.631  15.439  0.00  0.00    -0.269 OA
ATOM      8  N   UNL     1      -5.063 -10.582  14.928  0.00  0.00    -0.277 N 
ATOM     22  C   UNL     1      -3.760 -10.987  14.670  0.00  0.00    +0.255 C 
ATOM     33  H   UNL     1      -5.486  -9.893  14.310  0.00  0.00    +0.155 HD
BRANCH  22  24
ATOM      1  S   UNL     1      -4.330 -10.344  12.099  0.00  0.00    -0.092 S 
ATOM     24  C   UNL     1      -3.220 -10.609  13.338  0.00  0.00    +0.074 A 
ATOM     27  C   UNL     1      -1.930 -10.455  13.008  0.00  0.00    +0.021 A 
ATOM     30  C   UNL     1      -1.816 -10.090  11.635  0.00  0.00    +0.008 A 
ATOM     32  C   UNL     1      -3.046  -9.994  11.022  0.00  0.00    +0.046 A 
ENDBRANCH  22  24
ENDBRANCH  19   8
BRANCH  18  21
ATOM     21  C   UNL     1     -10.775  -9.451  17.736  0.00  0.00    +0.324 C 
BRANCH  21   4
ATOM      4  O   UNL     1     -12.032  -8.960  17.333  0.00  0.00    -0.483 OA
BRANCH   4  23
ATOM     23  C   UNL     1     -12.046  -7.850  16.519  0.00  0.00    +0.121 A 
ATOM     25  C   UNL     1     -10.871  -7.143  16.310  0.00  0.00    +0.045 A 
ATOM     26  C   UNL     1     -13.235  -7.459  15.923  0.00  0.00    +0.045 A 
ATOM     28  C   UNL     1     -10.886  -6.017  15.486  0.00  0.00    +0.004 A 
ATOM     29  C   UNL     1     -13.250  -6.333  15.098  0.00  0.00    +0.004 A 
ATOM     31  C   UNL     1     -12.075  -5.613  14.879  0.00  0.00    +0.000 A 
ENDBRANCH   4  23
ENDBRANCH  21   4
ENDBRANCH  18  21
TORSDOF 5
ENDMDL
MODEL 8
REMARK VINA RESULT:      -6.6     19.616     23.018
REMARK  Name = 7142730
REMARK  5 active torsions:
REMARK  status: ('A' for Active; 'I' for Inactive)
REMARK    1  A    between atoms: O_4  and  C_21
REMARK    2  A    between atoms: O_4  and  C_23
REMARK    3  A    between atoms: N_8  and  C_19
REMARK    4  A    between atoms: C_18  and  C_21
REMARK    5  A    between atoms: C_22  and  C_24
REMARK                            x       y       z     vdW  Elec       q    Type
REMARK                         _______ _______ _______ _____ _____    ______ ____
ROOT
ATOM      2  O   UNL     1      -7.067   9.578   5.235  0.00  0.00    -0.266 OA
ATOM      3  O   UNL     1      -3.101  11.965   2.543  0.00  0.00    -0.272 OA
ATOM      6  N   UNL     1      -2.258  10.679   4.286  0.00  0.00    -0.298 N 
ATOM      7  N   UNL     1      -4.787   9.249   5.623  0.00  0.00    -0.310 N 
ATOM      9  C   UNL     1      -3.259  11.087   6.539  0.00  0.00    +0.027 C 
ATOM     10  C   UNL     1      -2.324   8.878   6.002  0.00  0.00    +0.054 C 
ATOM     11  C   UNL     1      -2.439   9.932   7.100  0.00  0.00    +0.018 C 
ATOM     12  C   UNL     1      -2.569  11.688   5.302  0.00  0.00    +0.113 C 
ATOM     13  C   UNL     1      -4.674  10.585   6.223  0.00  0.00    +0.130 C 
ATOM     14  C   UNL     1      -1.583   9.473   4.788  0.00  0.00    +0.117 C 
ATOM     15  C   UNL     1      -3.693   8.380   5.575  0.00  0.00    +0.027 A 
ATOM     16  C   UNL     1      -3.847   7.123   5.129  0.00  0.00    +0.024 A 
ATOM     17  C   UNL     1      -6.072   8.854   5.196  0.00  0.00    +0.273 A 
ATOM     18  C   UNL     1      -2.532  10.946   2.944  0.00  0.00    +0.253 C 
ATOM     19  C   UNL     1      -6.196   7.454   4.682  0.00  0.00    +0.099 A 
ATOM     20  C   UNL     1      -5.125   6.653   4.673  0.00  0.00    +0.030 A 
ENDROOT
BRANCH  19   8
ATOM      5  O   UNL     1      -8.136   6.034   6.221  0.00  0.00    -0.269 OA
ATOM      8  N   UNL     1      -7.420   7.037   4.248  0.00  0.00    -0.277 N 
ATOM     22  C   UNL     1      -8.322   6.349   5.048  0.00  0.00    +0.255 C 
ATOM     33  H   UNL     1      -7.593   7.073   3.246  0.00  0.00    +0.155 HD
BRANCH  22  24
ATOM      1  S   UNL     1      -9.663   5.977   2.722  0.00  0.00    -0.092 S 
ATOM     24  C   UNL     1      -9.615   5.998   4.405  0.00  0.00    +0.074 A 
ATOM     27  C   UNL     1     -10.764   5.692   5.025  0.00  0.00    +0.021 A 
ATOM     30  C   UNL     1     -11.779   5.414   4.065  0.00  0.00    +0.008 A 
ATOM     32  C   UNL     1     -11.316   5.532   2.773  0.00  0.00    +0.046 A 
ENDBRANCH  22  24
ENDBRANCH  19   8
BRANCH  18  21
ATOM     21  C   UNL     1      -2.100   9.902   1.947  0.00  0.00    +0.324 C 
BRANCH  21   4
ATOM      4  O   UNL     1      -3.164   9.750   1.037  0.00  0.00    -0.483 OA
BRANCH   4  23
ATOM     23  C   UNL     1      -2.887   9.940  -0.298  0.00  0.00    +0.121 A 
ATOM     25  C   UNL     1      -1.587   9.778  -0.754  0.00  0.00    +0.045 A 
ATOM     26  C   UNL     1      -3.912  10.292  -1.163  0.00  0.00    +0.045 A 
ATOM     28  C   UNL     1      -1.306   9.972  -2.107  0.00  0.00    +0.004 A 
ATOM     29  C   UNL     1      -3.631  10.486  -2.516  0.00  0.00    +0.004 A 
ATOM     31  C   UNL     1      -2.328  10.325  -2.987  0.00  0.00    +0.000 A 
ENDBRANCH   4  23
ENDBRANCH  21   4
ENDBRANCH  18  21
TORSDOF 5
ENDMDL
MODEL 9
REMARK VINA RESULT:      -6.6     26.694     29.854
REMARK  Name = 7142730
REMARK  5 active torsions:
REMARK  status: ('A' for Active; 'I' for Inactive)
REMARK    1  A    between atoms: O_4  and  C_21
REMARK    2  A    between atoms: O_4  and  C_23
REMARK    3  A    between atoms: N_8  and  C_19
REMARK    4  A    between atoms: C_18  and  C_21
REMARK    5  A    between atoms: C_22  and  C_24
REMARK                            x       y       z     vdW  Elec       q    Type
REMARK                         _______ _______ _______ _____ _____    ______ ____
ROOT
ATOM      2  O   UNL     1      18.871  -7.320  -1.693  0.00  0.00    -0.266 OA
ATOM      3  O   UNL     1      18.234  -6.946  -6.997  0.00  0.00    -0.272 OA
ATOM      6  N   UNL     1      16.491  -5.890  -5.880  0.00  0.00    -0.298 N 
ATOM      7  N   UNL     1      17.181  -6.115  -2.766  0.00  0.00    -0.310 N 
ATOM      9  C   UNL     1      15.329  -7.241  -4.128  0.00  0.00    +0.027 C 
ATOM     10  C   UNL     1      15.388  -4.791  -3.939  0.00  0.00    +0.054 C 
ATOM     11  C   UNL     1      14.501  -6.019  -3.750  0.00  0.00    +0.018 C 
ATOM     12  C   UNL     1      15.795  -7.147  -5.591  0.00  0.00    +0.113 C 
ATOM     13  C   UNL     1      16.508  -7.362  -3.154  0.00  0.00    +0.130 C 
ATOM     14  C   UNL     1      15.804  -4.675  -5.419  0.00  0.00    +0.117 C 
ATOM     15  C   UNL     1      16.624  -4.868  -3.062  0.00  0.00    +0.027 A 
ATOM     16  C   UNL     1      17.194  -3.745  -2.596  0.00  0.00    +0.024 A 
ATOM     17  C   UNL     1      18.354  -6.244  -1.994  0.00  0.00    +0.273 A 
ATOM     18  C   UNL     1      17.673  -5.913  -6.620  0.00  0.00    +0.253 C 
ATOM     19  C   UNL     1      18.973  -4.967  -1.515  0.00  0.00    +0.099 A 
ATOM     20  C   UNL     1      18.393  -3.798  -1.808  0.00  0.00    +0.030 A 
ENDROOT
BRANCH  19   8
ATOM      5  O   UNL     1      19.140  -4.961   1.334  0.00  0.00    -0.269 OA
ATOM      8  N   UNL     1      20.117  -5.048  -0.776  0.00  0.00    -0.277 N 
ATOM     22  C   UNL     1      20.132  -5.040   0.612  0.00  0.00    +0.255 C 
ATOM     33  H   UNL     1      20.997  -4.921  -1.269  0.00  0.00    +0.155 HD
BRANCH  22  24
ATOM      1  S   UNL     1      22.648  -6.024   0.402  0.00  0.00    -0.092 S 
ATOM     24  C   UNL     1      21.472  -5.160   1.242  0.00  0.00    +0.074 A 
ATOM     27  C   UNL     1      21.855  -4.648   2.421  0.00  0.00    +0.021 A 
ATOM     30  C   UNL     1      23.217  -4.978   2.678  0.00  0.00    +0.008 A 
ATOM     32  C   UNL     1      23.770  -5.724   1.661  0.00  0.00    +0.046 A 
ENDBRANCH  22  24
ENDBRANCH  19   8
BRANCH  18  21
ATOM     21  C   UNL     1      18.283  -4.577  -6.958  0.00  0.00    +0.324 C 
BRANCH  21   4
ATOM      4  O   UNL     1      19.534  -4.530  -6.312  0.00  0.00    -0.483 OA
BRANCH   4  23
ATOM     23  C   UNL     1      19.779  -3.458  -5.484  0.00  0.00    +0.121 A 
ATOM     25  C   UNL     1      20.862  -3.500  -4.618  0.00  0.00    +0.045 A 
ATOM     26  C   UNL     1      18.939  -2.357  -5.530  0.00  0.00    +0.045 A 
ATOM     28  C   UNL     1      21.110  -2.415  -3.777  0.00  0.00    +0.004 A 
ATOM     29  C   UNL     1      19.187  -1.270  -4.689  0.00  0.00    +0.004 A 
ATOM     31  C   UNL     1      20.273  -1.300  -3.814  0.00  0.00    +0.000 A 
ENDBRANCH   4  23
ENDBRANCH  21   4
ENDBRANCH  18  21
TORSDOF 5
ENDMDL
MODEL 10
REMARK VINA RESULT:      -6.6     26.892     29.432
REMARK  Name = 7142730
REMARK  5 active torsions:
REMARK  status: ('A' for Active; 'I' for Inactive)
REMARK    1  A    between atoms: O_4  and  C_21
REMARK    2  A    between atoms: O_4  and  C_23
REMARK    3  A    between atoms: N_8  and  C_19
REMARK    4  A    between atoms: C_18  and  C_21
REMARK    5  A    between atoms: C_22  and  C_24
REMARK                            x       y       z     vdW  Elec       q    Type
REMARK                         _______ _______ _______ _____ _____    ______ ____
ROOT
ATOM      2  O   UNL     1      22.206  -3.527  26.361  0.00  0.00    -0.266 OA
ATOM      3  O   UNL     1      19.508  -7.689  24.342  0.00  0.00    -0.272 OA
ATOM      6  N   UNL     1      18.361  -6.753  26.133  0.00  0.00    -0.298 N 
ATOM      7  N   UNL     1      20.083  -4.219  27.049  0.00  0.00    -0.310 N 
ATOM      9  C   UNL     1      19.670  -6.447  28.240  0.00  0.00    +0.027 C 
ATOM     10  C   UNL     1      17.778  -4.955  27.752  0.00  0.00    +0.054 C 
ATOM     11  C   UNL     1      18.478  -5.732  28.864  0.00  0.00    +0.018 C 
ATOM     12  C   UNL     1      19.204  -7.411  27.135  0.00  0.00    +0.113 C 
ATOM     13  C   UNL     1      20.657  -5.398  27.711  0.00  0.00    +0.130 C 
ATOM     14  C   UNL     1      17.267  -5.934  26.677  0.00  0.00    +0.117 C 
ATOM     15  C   UNL     1      18.715  -3.941  27.121  0.00  0.00    +0.027 A 
ATOM     16  C   UNL     1      18.229  -2.798  26.609  0.00  0.00    +0.024 A 
ATOM     17  C   UNL     1      20.992  -3.334  26.433  0.00  0.00    +0.273 A 
ATOM     18  C   UNL     1      18.582  -6.999  24.778  0.00  0.00    +0.253 C 
ATOM     19  C   UNL     1      20.408  -2.084  25.853  0.00  0.00    +0.099 A 
ATOM     20  C   UNL     1      19.095  -1.853  25.962  0.00  0.00    +0.030 A 
ENDROOT
BRANCH  19   8
ATOM      5  O   UNL     1      21.895  -0.004  27.121  0.00  0.00    -0.269 OA
ATOM      8  N   UNL     1      21.252  -1.208  25.237  0.00  0.00    -0.277 N 
ATOM     22  C   UNL     1      21.949  -0.215  25.911  0.00  0.00    +0.255 C 
ATOM     33  H   UNL     1      21.220  -1.171  24.221  0.00  0.00    +0.155 HD
BRANCH  22  24
ATOM      1  S   UNL     1      24.429   0.109  24.865  0.00  0.00    -0.092 S 
ATOM     24  C   UNL     1      22.840   0.629  25.073  0.00  0.00    +0.074 A 
ATOM     27  C   UNL     1      22.516   1.774  24.455  0.00  0.00    +0.021 A 
ATOM     30  C   UNL     1      23.643   2.285  23.749  0.00  0.00    +0.008 A 
ATOM     32  C   UNL     1      24.750   1.477  23.886  0.00  0.00    +0.046 A 
ENDBRANCH  22  24
ENDBRANCH  19   8
BRANCH  18  21
ATOM     21  C   UNL     1      17.618  -6.362  23.811  0.00  0.00    +0.324 C 
BRANCH  21   4
ATOM      4  O   UNL     1      18.311  -5.306  23.188  0.00  0.00    -0.483 OA
BRANCH   4  23
ATOM     23  C   UNL     1      17.684  -4.081  23.134  0.00  0.00    +0.121 A 
ATOM     25  C   UNL     1      18.325  -3.014  22.523  0.00  0.00    +0.045 A 
ATOM     26  C   UNL     1      16.423  -3.938  23.692  0.00  0.00    +0.045 A 
ATOM     28  C   UNL     1      17.690  -1.773  22.470  0.00  0.00    +0.004 A 
ATOM     29  C   UNL     1      15.788  -2.697  23.638  0.00  0.00    +0.004 A 
ATOM     31  C   UNL     1      16.422  -1.614  23.026  0.00  0.00    +0.000 A 
ENDBRANCH   4  23
ENDBRANCH  21   4
ENDBRANCH  18  21
TORSDOF 5
ENDMDL
