MODEL 1
REMARK VINA RESULT:      -6.6      0.000      0.000
REMARK  Name = 11867459
REMARK  14 active torsions:
REMARK  status: ('A' for Active; 'I' for Inactive)
REMARK    1  A    between atoms: O_2  and  C_15
REMARK    2  A    between atoms: O_3  and  C_20
REMARK    3  A    between atoms: N_7  and  C_26
REMARK    4  A    between atoms: C_10  and  C_18
REMARK    5  A    between atoms: C_12  and  C_20
REMARK    6  A    between atoms: C_12  and  C_21
REMARK    7  A    between atoms: C_13  and  C_23
REMARK    8  A    between atoms: C_23  and  C_24
REMARK    9  A    between atoms: C_26  and  C_29
REMARK   10  A    between atoms: C_27  and  C_28
REMARK   11  A    between atoms: C_28  and  C_30
REMARK   12  A    between atoms: C_30  and  C_31
REMARK   13  A    between atoms: C_30  and  C_32
REMARK   14  A    between atoms: C_30  and  C_33
REMARK                            x       y       z     vdW  Elec       q    Type
REMARK                         _______ _______ _______ _____ _____    ______ ____
ROOT
ATOM      1  S   UNL     1      18.026   6.592  20.539  0.00  0.00    -0.057 S 
ATOM      5  O   UNL     1      20.624   9.327  23.275  0.00  0.00    -0.275 OA
ATOM      6  N   UNL     1      18.068   8.815  21.862  0.00  0.00    -0.229 NA
ATOM      8  N   UNL     1      20.064   7.467  21.936  0.00  0.00    -0.265 N 
ATOM     10  C   UNL     1      14.617   9.633  20.347  0.00  0.00    -0.019 C 
ATOM     11  C   UNL     1      14.202   8.098  20.266  0.00  0.00    +0.011 C 
ATOM     12  C   UNL     1      12.827   7.765  19.568  0.00  0.00    +0.021 C 
ATOM     13  C   UNL     1      15.773   9.773  21.443  0.00  0.00    +0.054 C 
ATOM     14  C   UNL     1      13.399  10.473  20.811  0.00  0.00    +0.010 C 
ATOM     15  C   UNL     1      11.731   8.724  20.112  0.00  0.00    +0.123 C 
ATOM     16  C   UNL     1      15.386   7.214  19.773  0.00  0.00    +0.049 C 
ATOM     17  C   UNL     1      12.124  10.195  20.027  0.00  0.00    +0.032 C 
ATOM     18  C   UNL     1      15.121  10.193  18.995  0.00  0.00    +0.012 C 
ATOM     19  C   UNL     1      16.830   8.716  21.254  0.00  0.00    +0.058 A 
ATOM     21  C   UNL     1      12.404   6.318  19.947  0.00  0.00    +0.016 C 
ATOM     22  C   UNL     1      16.630   7.568  20.516  0.00  0.00    +0.015 A 
ATOM     25  C   UNL     1      18.783   7.757  21.549  0.00  0.00    +0.165 A 
ATOM     27  C   UNL     1      20.896   8.248  22.757  0.00  0.00    +0.219 C 
ATOM     41  H   UNL     1      20.432   6.590  21.575  0.00  0.00    +0.157 HD
ENDROOT
BRANCH  15   2
ATOM      2  O   UNL     1      10.504   8.536  19.408  0.00  0.00    -0.391 OA
ATOM     38  H   UNL     1      10.086   7.730  19.757  0.00  0.00    +0.210 HD
ENDBRANCH  15   2
BRANCH  12  20
ATOM     20  C   UNL     1      12.868   7.794  18.025  0.00  0.00    +0.165 C 
BRANCH  20   3
ATOM      3  O   UNL     1      11.869   6.920  17.549  0.00  0.00    -0.394 OA
ATOM     39  H   UNL     1      12.319   6.158  17.146  0.00  0.00    +0.209 HD
ENDBRANCH  20   3
ENDBRANCH  12  20
BRANCH  13  23
ATOM     23  C   UNL     1      16.390  11.175  21.543  0.00  0.00    +0.106 C 
BRANCH  23  24
ATOM      4  O   UNL     1      16.609  12.883  23.242  0.00  0.00    -0.276 OA
ATOM      7  N   UNL     1      15.205  11.070  23.614  0.00  0.00    -0.311 N 
ATOM     24  C   UNL     1      16.103  11.826  22.876  0.00  0.00    +0.214 C 
ATOM     40  H   UNL     1      14.836  10.210  23.217  0.00  0.00    +0.149 HD
BRANCH   7  26
ATOM     26  C   UNL     1      14.748  11.449  24.932  0.00  0.00    +0.141 C 
BRANCH  26  29
ATOM      9  N   UNL     1      11.643  13.415  25.822  0.00  0.00    -0.263 NA
ATOM     29  C   UNL     1      13.329  11.937  24.916  0.00  0.00    -0.012 A 
ATOM     34  C   UNL     1      12.397  11.404  24.032  0.00  0.00    +0.008 A 
ATOM     35  C   UNL     1      12.906  12.931  25.783  0.00  0.00    +0.115 A 
ATOM     36  C   UNL     1      11.090  11.875  24.041  0.00  0.00    +0.020 A 
ATOM     37  C   UNL     1      10.766  12.873  24.948  0.00  0.00    +0.111 A 
ENDBRANCH  26  29
ENDBRANCH   7  26
ENDBRANCH  23  24
ENDBRANCH  13  23
BRANCH  27  28
ATOM     28  C   UNL     1      22.267   7.619  22.974  0.00  0.00    +0.102 C 
BRANCH  28  30
ATOM     30  C   UNL     1      23.397   8.211  22.098  0.00  0.00    -0.029 C 
ATOM     31  C   UNL     1      22.772   8.681  20.769  0.00  0.00    +0.011 C 
ATOM     32  C   UNL     1      24.468   7.152  21.783  0.00  0.00    +0.011 C 
ATOM     33  C   UNL     1      24.062   9.419  22.774  0.00  0.00    +0.011 C 
ENDBRANCH  28  30
ENDBRANCH  27  28
TORSDOF 9
ENDMDL
MODEL 2
REMARK VINA RESULT:      -6.5     16.463     20.594
REMARK  Name = 11867459
REMARK  14 active torsions:
REMARK  status: ('A' for Active; 'I' for Inactive)
REMARK    1  A    between atoms: O_2  and  C_15
REMARK    2  A    between atoms: O_3  and  C_20
REMARK    3  A    between atoms: N_7  and  C_26
REMARK    4  A    between atoms: C_10  and  C_18
REMARK    5  A    between atoms: C_12  and  C_20
REMARK    6  A    between atoms: C_12  and  C_21
REMARK    7  A    between atoms: C_13  and  C_23
REMARK    8  A    between atoms: C_23  and  C_24
REMARK    9  A    between atoms: C_26  and  C_29
REMARK   10  A    between atoms: C_27  and  C_28
REMARK   11  A    between atoms: C_28  and  C_30
REMARK   12  A    between atoms: C_30  and  C_31
REMARK   13  A    between atoms: C_30  and  C_32
REMARK   14  A    between atoms: C_30  and  C_33
REMARK                            x       y       z     vdW  Elec       q    Type
REMARK                         _______ _______ _______ _____ _____    ______ ____
ROOT
ATOM      1  S   UNL     1      14.982   7.818   6.219  0.00  0.00    -0.057 S 
ATOM      5  O   UNL     1      12.487   6.425   2.537  0.00  0.00    -0.275 OA
ATOM      6  N   UNL     1      15.023   7.482   3.654  0.00  0.00    -0.229 NA
ATOM      8  N   UNL     1      12.977   6.911   4.793  0.00  0.00    -0.265 N 
ATOM     10  C   UNL     1      18.502   9.145   3.621  0.00  0.00    -0.019 C 
ATOM     11  C   UNL     1      18.860   8.606   5.076  0.00  0.00    +0.011 C 
ATOM     12  C   UNL     1      20.222   9.094   5.705  0.00  0.00    +0.021 C 
ATOM     13  C   UNL     1      17.352   8.212   3.019  0.00  0.00    +0.054 C 
ATOM     14  C   UNL     1      19.750   9.033   2.708  0.00  0.00    +0.010 C 
ATOM     15  C   UNL     1      21.352   8.959   4.646  0.00  0.00    +0.123 C 
ATOM     16  C   UNL     1      17.644   8.727   6.042  0.00  0.00    +0.049 C 
ATOM     17  C   UNL     1      21.014   9.624   3.317  0.00  0.00    +0.032 C 
ATOM     18  C   UNL     1      18.020  10.616   3.625  0.00  0.00    +0.012 C 
ATOM     19  C   UNL     1      16.256   7.983   4.027  0.00  0.00    +0.058 A 
ATOM     21  C   UNL     1      20.590   8.168   6.897  0.00  0.00    +0.016 C 
ATOM     22  C   UNL     1      16.414   8.203   5.380  0.00  0.00    +0.015 A 
ATOM     25  C   UNL     1      14.269   7.361   4.724  0.00  0.00    +0.165 A 
ATOM     27  C   UNL     1      12.176   6.478   3.723  0.00  0.00    +0.219 C 
ATOM     41  H   UNL     1      12.578   6.900   5.728  0.00  0.00    +0.157 HD
ENDROOT
BRANCH  15   2
ATOM      2  O   UNL     1      22.572   9.512   5.140  0.00  0.00    -0.391 OA
ATOM     38  H   UNL     1      22.497  10.480   5.090  0.00  0.00    +0.210 HD
ENDBRANCH  15   2
BRANCH  12  20
ATOM     20  C   UNL     1      20.182  10.525   6.288  0.00  0.00    +0.165 C 
BRANCH  20   3
ATOM      3  O   UNL     1      20.981  10.540   7.449  0.00  0.00    -0.394 OA
ATOM     39  H   UNL     1      21.094   9.619   7.736  0.00  0.00    +0.209 HD
ENDBRANCH  20   3
ENDBRANCH  12  20
BRANCH  13  23
ATOM     23  C   UNL     1      16.788   8.683   1.672  0.00  0.00    +0.106 C 
BRANCH  23  24
ATOM      4  O   UNL     1      17.708   7.838  -0.400  0.00  0.00    -0.276 OA
ATOM      7  N   UNL     1      16.267   6.505   0.843  0.00  0.00    -0.311 N 
ATOM     24  C   UNL     1      16.993   7.657   0.581  0.00  0.00    +0.214 C 
ATOM     40  H   UNL     1      15.709   6.451   1.691  0.00  0.00    +0.149 HD
BRANCH   7  26
ATOM     26  C   UNL     1      16.270   5.354  -0.032  0.00  0.00    +0.141 C 
BRANCH  26  29
ATOM      9  N   UNL     1      13.726   3.147   1.690  0.00  0.00    -0.263 NA
ATOM     29  C   UNL     1      15.068   4.482   0.183  0.00  0.00    -0.012 A 
ATOM     34  C   UNL     1      14.197   4.190  -0.862  0.00  0.00    +0.008 A 
ATOM     35  C   UNL     1      14.790   3.941   1.428  0.00  0.00    +0.115 A 
ATOM     36  C   UNL     1      13.093   3.378  -0.633  0.00  0.00    +0.020 A 
ATOM     37  C   UNL     1      12.904   2.886   0.649  0.00  0.00    +0.111 A 
ENDBRANCH  26  29
ENDBRANCH   7  26
ENDBRANCH  23  24
ENDBRANCH  13  23
BRANCH  27  28
ATOM     28  C   UNL     1      10.782   6.051   4.168  0.00  0.00    +0.102 C 
BRANCH  28  30
ATOM     30  C   UNL     1       9.702   7.155   4.065  0.00  0.00    -0.029 C 
ATOM     31  C   UNL     1       8.508   6.737   4.945  0.00  0.00    +0.011 C 
ATOM     32  C   UNL     1       9.207   7.313   2.617  0.00  0.00    +0.011 C 
ATOM     33  C   UNL     1      10.227   8.507   4.571  0.00  0.00    +0.011 C 
ENDBRANCH  28  30
ENDBRANCH  27  28
TORSDOF 9
ENDMDL
MODEL 3
REMARK VINA RESULT:      -6.4     28.442     31.882
REMARK  Name = 11867459
REMARK  14 active torsions:
REMARK  status: ('A' for Active; 'I' for Inactive)
REMARK    1  A    between atoms: O_2  and  C_15
REMARK    2  A    between atoms: O_3  and  C_20
REMARK    3  A    between atoms: N_7  and  C_26
REMARK    4  A    between atoms: C_10  and  C_18
REMARK    5  A    between atoms: C_12  and  C_20
REMARK    6  A    between atoms: C_12  and  C_21
REMARK    7  A    between atoms: C_13  and  C_23
REMARK    8  A    between atoms: C_23  and  C_24
REMARK    9  A    between atoms: C_26  and  C_29
REMARK   10  A    between atoms: C_27  and  C_28
REMARK   11  A    between atoms: C_28  and  C_30
REMARK   12  A    between atoms: C_30  and  C_31
REMARK   13  A    between atoms: C_30  and  C_32
REMARK   14  A    between atoms: C_30  and  C_33
REMARK                            x       y       z     vdW  Elec       q    Type
REMARK                         _______ _______ _______ _____ _____    ______ ____
ROOT
ATOM      1  S   UNL     1      -4.646  -9.175   9.905  0.00  0.00    -0.057 S 
ATOM      5  O   UNL     1      -8.945  -7.530   9.174  0.00  0.00    -0.275 OA
ATOM      6  N   UNL     1      -6.977  -8.827  10.974  0.00  0.00    -0.229 NA
ATOM      8  N   UNL     1      -6.699  -8.075   8.700  0.00  0.00    -0.265 N 
ATOM     10  C   UNL     1      -5.726 -10.805  14.038  0.00  0.00    -0.019 C 
ATOM     11  C   UNL     1      -4.224 -10.313  13.841  0.00  0.00    +0.011 C 
ATOM     12  C   UNL     1      -3.137 -10.930  14.803  0.00  0.00    +0.021 C 
ATOM     13  C   UNL     1      -6.686  -9.765  13.296  0.00  0.00    +0.054 C 
ATOM     14  C   UNL     1      -6.076 -10.803  15.548  0.00  0.00    +0.010 C 
ATOM     15  C   UNL     1      -3.666 -10.893  16.265  0.00  0.00    +0.123 C 
ATOM     16  C   UNL     1      -3.814 -10.327  12.339  0.00  0.00    +0.049 C 
ATOM     17  C   UNL     1      -5.049 -11.514  16.419  0.00  0.00    +0.032 C 
ATOM     18  C   UNL     1      -5.973 -12.225  13.472  0.00  0.00    +0.012 C 
ATOM     19  C   UNL     1      -6.175  -9.442  11.917  0.00  0.00    +0.058 A 
ATOM     21  C   UNL     1      -1.857 -10.051  14.751  0.00  0.00    +0.016 C 
ATOM     22  C   UNL     1      -4.878  -9.686  11.514  0.00  0.00    +0.015 A 
ATOM     25  C   UNL     1      -6.279  -8.643   9.874  0.00  0.00    +0.165 A 
ATOM     27  C   UNL     1      -7.976  -7.562   8.420  0.00  0.00    +0.219 C 
ATOM     41  H   UNL     1      -5.993  -8.035   7.969  0.00  0.00    +0.157 HD
ENDROOT
BRANCH  15   2
ATOM      2  O   UNL     1      -2.761 -11.561  17.143  0.00  0.00    -0.391 OA
ATOM     38  H   UNL     1      -3.187 -11.619  18.016  0.00  0.00    +0.210 HD
ENDBRANCH  15   2
BRANCH  12  20
ATOM     20  C   UNL     1      -2.678 -12.355  14.420  0.00  0.00    +0.165 C 
BRANCH  20   3
ATOM      3  O   UNL     1      -1.302 -12.458  14.710  0.00  0.00    -0.394 OA
ATOM     39  H   UNL     1      -1.013 -11.597  15.056  0.00  0.00    +0.209 HD
ENDBRANCH  20   3
ENDBRANCH  12  20
BRANCH  13  23
ATOM     23  C   UNL     1      -8.166 -10.172  13.267  0.00  0.00    +0.106 C 
BRANCH  23  24
ATOM      4  O   UNL     1      -9.342 -10.900  15.252  0.00  0.00    -0.276 OA
ATOM      7  N   UNL     1      -8.787  -8.657  15.006  0.00  0.00    -0.311 N 
ATOM     24  C   UNL     1      -8.832  -9.986  14.610  0.00  0.00    +0.214 C 
ATOM     40  H   UNL     1      -8.332  -7.975  14.404  0.00  0.00    +0.149 HD
BRANCH   7  26
ATOM     26  C   UNL     1      -9.349  -8.184  16.250  0.00  0.00    +0.141 C 
BRANCH  26  29
ATOM      9  N   UNL     1     -13.112  -7.810  16.291  0.00  0.00    -0.263 NA
ATOM     29  C   UNL     1     -10.715  -7.591  16.060  0.00  0.00    -0.012 A 
ATOM     34  C   UNL     1     -10.877  -6.328  15.501  0.00  0.00    +0.008 A 
ATOM     35  C   UNL     1     -11.854  -8.285  16.435  0.00  0.00    +0.115 A 
ATOM     36  C   UNL     1     -12.154  -5.805  15.336  0.00  0.00    +0.020 A 
ATOM     37  C   UNL     1     -13.229  -6.580  15.743  0.00  0.00    +0.111 A 
ENDBRANCH  26  29
ENDBRANCH   7  26
ENDBRANCH  23  24
ENDBRANCH  13  23
BRANCH  27  28
ATOM     28  C   UNL     1      -8.091  -7.010   7.004  0.00  0.00    +0.102 C 
BRANCH  28  30
ATOM     30  C   UNL     1      -8.395  -8.070   5.918  0.00  0.00    -0.029 C 
ATOM     31  C   UNL     1      -9.297  -7.415   4.853  0.00  0.00    +0.011 C 
ATOM     32  C   UNL     1      -9.143  -9.275   6.514  0.00  0.00    +0.011 C 
ATOM     33  C   UNL     1      -7.111  -8.560   5.231  0.00  0.00    +0.011 C 
ENDBRANCH  28  30
ENDBRANCH  27  28
TORSDOF 9
ENDMDL
MODEL 4
REMARK VINA RESULT:      -6.2      2.742      4.832
REMARK  Name = 11867459
REMARK  14 active torsions:
REMARK  status: ('A' for Active; 'I' for Inactive)
REMARK    1  A    between atoms: O_2  and  C_15
REMARK    2  A    between atoms: O_3  and  C_20
REMARK    3  A    between atoms: N_7  and  C_26
REMARK    4  A    between atoms: C_10  and  C_18
REMARK    5  A    between atoms: C_12  and  C_20
REMARK    6  A    between atoms: C_12  and  C_21
REMARK    7  A    between atoms: C_13  and  C_23
REMARK    8  A    between atoms: C_23  and  C_24
REMARK    9  A    between atoms: C_26  and  C_29
REMARK   10  A    between atoms: C_27  and  C_28
REMARK   11  A    between atoms: C_28  and  C_30
REMARK   12  A    between atoms: C_30  and  C_31
REMARK   13  A    between atoms: C_30  and  C_32
REMARK   14  A    between atoms: C_30  and  C_33
REMARK                            x       y       z     vdW  Elec       q    Type
REMARK                         _______ _______ _______ _____ _____    ______ ____
ROOT
ATOM      1  S   UNL     1      17.417   5.565  19.689  0.00  0.00    -0.057 S 
ATOM      5  O   UNL     1      21.346   7.612  21.134  0.00  0.00    -0.275 OA
ATOM      6  N   UNL     1      18.404   7.696  20.773  0.00  0.00    -0.229 NA
ATOM      8  N   UNL     1      19.960   5.946  20.201  0.00  0.00    -0.265 N 
ATOM     10  C   UNL     1      14.892   9.275  20.562  0.00  0.00    -0.019 C 
ATOM     11  C   UNL     1      14.164   7.868  20.727  0.00  0.00    +0.011 C 
ATOM     12  C   UNL     1      12.592   7.856  20.595  0.00  0.00    +0.021 C 
ATOM     13  C   UNL     1      16.369   9.137  21.155  0.00  0.00    +0.054 C 
ATOM     14  C   UNL     1      14.133  10.348  21.384  0.00  0.00    +0.010 C 
ATOM     15  C   UNL     1      11.998   9.018  21.439  0.00  0.00    +0.123 C 
ATOM     16  C   UNL     1      14.873   6.760  19.894  0.00  0.00    +0.049 C 
ATOM     17  C   UNL     1      12.632  10.370  21.131  0.00  0.00    +0.032 C 
ATOM     18  C   UNL     1      14.972   9.742  19.088  0.00  0.00    +0.012 C 
ATOM     19  C   UNL     1      17.038   7.881  20.661  0.00  0.00    +0.058 A 
ATOM     21  C   UNL     1      12.044   6.527  21.186  0.00  0.00    +0.016 C 
ATOM     22  C   UNL     1      16.346   6.819  20.115  0.00  0.00    +0.015 A 
ATOM     25  C   UNL     1      18.716   6.515  20.287  0.00  0.00    +0.165 A 
ATOM     27  C   UNL     1      21.177   6.510  20.619  0.00  0.00    +0.219 C 
ATOM     41  H   UNL     1      19.977   5.019  19.785  0.00  0.00    +0.157 HD
ENDROOT
BRANCH  15   2
ATOM      2  O   UNL     1      10.588   9.115  21.239  0.00  0.00    -0.391 OA
ATOM     38  H   UNL     1      10.436   9.759  20.526  0.00  0.00    +0.210 HD
ENDBRANCH  15   2
BRANCH  12  20
ATOM     20  C   UNL     1      12.071   7.909  19.141  0.00  0.00    +0.165 C 
BRANCH  20   3
ATOM      3  O   UNL     1      12.059   6.592  18.638  0.00  0.00    -0.394 OA
ATOM     39  H   UNL     1      11.140   6.381  18.402  0.00  0.00    +0.209 HD
ENDBRANCH  20   3
ENDBRANCH  12  20
BRANCH  13  23
ATOM     23  C   UNL     1      17.260  10.370  20.943  0.00  0.00    +0.106 C 
BRANCH  23  24
ATOM      4  O   UNL     1      17.105  11.623  23.006  0.00  0.00    -0.276 OA
ATOM      7  N   UNL     1      19.093  10.551  22.463  0.00  0.00    -0.311 N 
ATOM     24  C   UNL     1      17.776  10.928  22.249  0.00  0.00    +0.214 C 
ATOM     40  H   UNL     1      19.560   9.965  21.776  0.00  0.00    +0.149 HD
BRANCH   7  26
ATOM     26  C   UNL     1      19.847  10.943  23.632  0.00  0.00    +0.141 C 
BRANCH  26  29
ATOM      9  N   UNL     1      23.014   9.178  24.708  0.00  0.00    -0.263 NA
ATOM     29  C   UNL     1      20.777   9.858  24.091  0.00  0.00    -0.012 A 
ATOM     34  C   UNL     1      20.314   8.566  24.321  0.00  0.00    +0.008 A 
ATOM     35  C   UNL     1      22.123  10.109  24.297  0.00  0.00    +0.115 A 
ATOM     36  C   UNL     1      21.198   7.581  24.743  0.00  0.00    +0.020 A 
ATOM     37  C   UNL     1      22.527   7.936  24.921  0.00  0.00    +0.111 A 
ENDBRANCH  26  29
ENDBRANCH   7  26
ENDBRANCH  23  24
ENDBRANCH  13  23
BRANCH  27  28
ATOM     28  C   UNL     1      22.368   5.595  20.362  0.00  0.00    +0.102 C 
BRANCH  28  30
ATOM     30  C   UNL     1      22.463   4.375  21.308  0.00  0.00    -0.029 C 
ATOM     31  C   UNL     1      22.226   4.870  22.749  0.00  0.00    +0.011 C 
ATOM     32  C   UNL     1      23.856   3.726  21.240  0.00  0.00    +0.011 C 
ATOM     33  C   UNL     1      21.396   3.319  20.978  0.00  0.00    +0.011 C 
ENDBRANCH  28  30
ENDBRANCH  27  28
TORSDOF 9
ENDMDL
MODEL 5
REMARK VINA RESULT:      -6.2     29.053     32.065
REMARK  Name = 11867459
REMARK  14 active torsions:
REMARK  status: ('A' for Active; 'I' for Inactive)
REMARK    1  A    between atoms: O_2  and  C_15
REMARK    2  A    between atoms: O_3  and  C_20
REMARK    3  A    between atoms: N_7  and  C_26
REMARK    4  A    between atoms: C_10  and  C_18
REMARK    5  A    between atoms: C_12  and  C_20
REMARK    6  A    between atoms: C_12  and  C_21
REMARK    7  A    between atoms: C_13  and  C_23
REMARK    8  A    between atoms: C_23  and  C_24
REMARK    9  A    between atoms: C_26  and  C_29
REMARK   10  A    between atoms: C_27  and  C_28
REMARK   11  A    between atoms: C_28  and  C_30
REMARK   12  A    between atoms: C_30  and  C_31
REMARK   13  A    between atoms: C_30  and  C_32
REMARK   14  A    between atoms: C_30  and  C_33
REMARK                            x       y       z     vdW  Elec       q    Type
REMARK                         _______ _______ _______ _____ _____    ______ ____
ROOT
ATOM      1  S   UNL     1      -9.087 -10.018  13.550  0.00  0.00    -0.057 S 
ATOM      5  O   UNL     1      -5.124  -9.020  11.311  0.00  0.00    -0.275 OA
ATOM      6  N   UNL     1      -6.508  -9.984  13.750  0.00  0.00    -0.229 NA
ATOM      8  N   UNL     1      -7.447  -9.244  11.657  0.00  0.00    -0.265 N 
ATOM     10  C   UNL     1      -6.912 -10.953  17.460  0.00  0.00    -0.019 C 
ATOM     11  C   UNL     1      -8.251 -11.769  17.183  0.00  0.00    +0.011 C 
ATOM     12  C   UNL     1      -9.008 -12.350  18.439  0.00  0.00    +0.021 C 
ATOM     13  C   UNL     1      -6.105 -10.848  16.085  0.00  0.00    +0.054 C 
ATOM     14  C   UNL     1      -6.038 -11.727  18.482  0.00  0.00    +0.010 C 
ATOM     15  C   UNL     1      -7.983 -13.048  19.377  0.00  0.00    +0.123 C 
ATOM     16  C   UNL     1      -9.178 -11.016  16.184  0.00  0.00    +0.049 C 
ATOM     17  C   UNL     1      -6.792 -12.165  19.730  0.00  0.00    +0.032 C 
ATOM     18  C   UNL     1      -7.176  -9.530  18.010  0.00  0.00    +0.012 C 
ATOM     19  C   UNL     1      -7.012 -10.442  14.953  0.00  0.00    +0.058 A 
ATOM     21  C   UNL     1     -10.016 -13.434  17.965  0.00  0.00    +0.016 C 
ATOM     22  C   UNL     1      -8.387 -10.542  15.011  0.00  0.00    +0.015 A 
ATOM     25  C   UNL     1      -7.509  -9.723  12.938  0.00  0.00    +0.165 A 
ATOM     27  C   UNL     1      -6.287  -8.926  10.930  0.00  0.00    +0.219 C 
ATOM     41  H   UNL     1      -8.348  -9.110  11.206  0.00  0.00    +0.157 HD
ENDROOT
BRANCH  15   2
ATOM      2  O   UNL     1      -8.615 -13.472  20.584  0.00  0.00    -0.391 OA
ATOM     38  H   UNL     1      -8.012 -13.267  21.319  0.00  0.00    +0.210 HD
ENDBRANCH  15   2
BRANCH  12  20
ATOM     20  C   UNL     1      -9.848 -11.313  19.217  0.00  0.00    +0.165 C 
BRANCH  20   3
ATOM      3  O   UNL     1     -10.911 -11.999  19.840  0.00  0.00    -0.394 OA
ATOM     39  H   UNL     1     -10.611 -12.907  20.008  0.00  0.00    +0.209 HD
ENDBRANCH  20   3
ENDBRANCH  12  20
BRANCH  13  23
ATOM     23  C   UNL     1      -4.852  -9.963  16.146  0.00  0.00    +0.106 C 
BRANCH  23  24
ATOM      4  O   UNL     1      -2.977 -11.486  16.287  0.00  0.00    -0.276 OA
ATOM      7  N   UNL     1      -3.346 -10.300  14.323  0.00  0.00    -0.311 N 
ATOM     24  C   UNL     1      -3.627 -10.680  15.627  0.00  0.00    +0.214 C 
ATOM     40  H   UNL     1      -3.952  -9.629  13.860  0.00  0.00    +0.149 HD
BRANCH   7  26
ATOM     26  C   UNL     1      -2.228 -10.824  13.571  0.00  0.00    +0.141 C 
BRANCH  26  29
ATOM      9  N   UNL     1      -2.645 -14.331  12.219  0.00  0.00    -0.263 NA
ATOM     29  C   UNL     1      -2.635 -11.955  12.674  0.00  0.00    -0.012 A 
ATOM     34  C   UNL     1      -3.349 -11.721  11.503  0.00  0.00    +0.008 A 
ATOM     35  C   UNL     1      -2.311 -13.266  12.983  0.00  0.00    +0.115 A 
ATOM     36  C   UNL     1      -3.711 -12.789  10.690  0.00  0.00    +0.020 A 
ATOM     37  C   UNL     1      -3.338 -14.063  11.089  0.00  0.00    +0.111 A 
ENDBRANCH  26  29
ENDBRANCH   7  26
ENDBRANCH  23  24
ENDBRANCH  13  23
BRANCH  27  28
ATOM     28  C   UNL     1      -6.594  -8.409   9.529  0.00  0.00    +0.102 C 
BRANCH  28  30
ATOM     30  C   UNL     1      -6.333  -9.426   8.393  0.00  0.00    -0.029 C 
ATOM     31  C   UNL     1      -7.047  -8.917   7.125  0.00  0.00    +0.011 C 
ATOM     32  C   UNL     1      -6.900 -10.812   8.747  0.00  0.00    +0.011 C 
ATOM     33  C   UNL     1      -4.834  -9.557   8.084  0.00  0.00    +0.011 C 
ENDBRANCH  28  30
ENDBRANCH  27  28
TORSDOF 9
ENDMDL
MODEL 6
REMARK VINA RESULT:      -6.2     28.994     32.206
REMARK  Name = 11867459
REMARK  14 active torsions:
REMARK  status: ('A' for Active; 'I' for Inactive)
REMARK    1  A    between atoms: O_2  and  C_15
REMARK    2  A    between atoms: O_3  and  C_20
REMARK    3  A    between atoms: N_7  and  C_26
REMARK    4  A    between atoms: C_10  and  C_18
REMARK    5  A    between atoms: C_12  and  C_20
REMARK    6  A    between atoms: C_12  and  C_21
REMARK    7  A    between atoms: C_13  and  C_23
REMARK    8  A    between atoms: C_23  and  C_24
REMARK    9  A    between atoms: C_26  and  C_29
REMARK   10  A    between atoms: C_27  and  C_28
REMARK   11  A    between atoms: C_28  and  C_30
REMARK   12  A    between atoms: C_30  and  C_31
REMARK   13  A    between atoms: C_30  and  C_32
REMARK   14  A    between atoms: C_30  and  C_33
REMARK                            x       y       z     vdW  Elec       q    Type
REMARK                         _______ _______ _______ _____ _____    ______ ____
ROOT
ATOM      1  S   UNL     1      -9.141 -11.443  13.160  0.00  0.00    -0.057 S 
ATOM      5  O   UNL     1      -4.599 -10.534  12.645  0.00  0.00    -0.275 OA
ATOM      6  N   UNL     1      -6.959 -10.842  14.414  0.00  0.00    -0.229 NA
ATOM      8  N   UNL     1      -6.810 -11.070  12.019  0.00  0.00    -0.265 N 
ATOM     10  C   UNL     1      -9.051 -10.525  17.638  0.00  0.00    -0.019 C 
ATOM     11  C   UNL     1     -10.095 -11.629  17.163  0.00  0.00    +0.011 C 
ATOM     12  C   UNL     1     -11.349 -11.875  18.088  0.00  0.00    +0.021 C 
ATOM     13  C   UNL     1      -7.693 -10.748  16.825  0.00  0.00    +0.054 C 
ATOM     14  C   UNL     1      -8.754 -10.712  19.148  0.00  0.00    +0.010 C 
ATOM     15  C   UNL     1     -10.879 -11.992  19.566  0.00  0.00    +0.123 C 
ATOM     16  C   UNL     1     -10.451 -11.464  15.655  0.00  0.00    +0.049 C 
ATOM     17  C   UNL     1     -10.002 -10.827  20.012  0.00  0.00    +0.032 C 
ATOM     18  C   UNL     1      -9.556  -9.080  17.406  0.00  0.00    +0.012 C 
ATOM     19  C   UNL     1      -7.966 -10.944  15.356  0.00  0.00    +0.058 A 
ATOM     21  C   UNL     1     -12.006 -13.229  17.702  0.00  0.00    +0.016 C 
ATOM     22  C   UNL     1      -9.206 -11.282  14.855  0.00  0.00    +0.015 A 
ATOM     25  C   UNL     1      -7.463 -11.078  13.223  0.00  0.00    +0.165 A 
ATOM     27  C   UNL     1      -5.447 -10.806  11.800  0.00  0.00    +0.219 C 
ATOM     41  H   UNL     1      -7.395 -11.278  11.214  0.00  0.00    +0.157 HD
ENDROOT
BRANCH  15   2
ATOM      2  O   UNL     1     -12.000 -12.085  20.444  0.00  0.00    -0.391 OA
ATOM     38  H   UNL     1     -11.909 -12.910  20.950  0.00  0.00    +0.210 HD
ENDBRANCH  15   2
BRANCH  12  20
ATOM     20  C   UNL     1     -12.465 -10.816  17.948  0.00  0.00    +0.165 C 
BRANCH  20   3
ATOM      3  O   UNL     1     -13.699 -11.455  18.190  0.00  0.00    -0.394 OA
ATOM     39  H   UNL     1     -14.253 -10.834  18.692  0.00  0.00    +0.209 HD
ENDBRANCH  20   3
ENDBRANCH  12  20
BRANCH  13  23
ATOM     23  C   UNL     1      -6.624  -9.672  17.061  0.00  0.00    +0.106 C 
BRANCH  23  24
ATOM      4  O   UNL     1      -4.989 -10.788  18.452  0.00  0.00    -0.276 OA
ATOM      7  N   UNL     1      -4.418 -10.162  16.289  0.00  0.00    -0.311 N 
ATOM     24  C   UNL     1      -5.274 -10.274  17.374  0.00  0.00    +0.214 C 
ATOM     40  H   UNL     1      -4.753  -9.726  15.434  0.00  0.00    +0.149 HD
BRANCH   7  26
ATOM     26  C   UNL     1      -3.057 -10.650  16.302  0.00  0.00    +0.141 C 
BRANCH  26  29
ATOM      9  N   UNL     1      -1.445 -12.833  13.667  0.00  0.00    -0.263 NA
ATOM     29  C   UNL     1      -2.851 -11.768  15.323  0.00  0.00    -0.012 A 
ATOM     34  C   UNL     1      -3.819 -12.752  15.143  0.00  0.00    +0.008 A 
ATOM     35  C   UNL     1      -1.693 -11.854  14.568  0.00  0.00    +0.115 A 
ATOM     36  C   UNL     1      -3.601 -13.774  14.227  0.00  0.00    +0.020 A 
ATOM     37  C   UNL     1      -2.409 -13.769  13.521  0.00  0.00    +0.111 A 
ENDBRANCH  26  29
ENDBRANCH   7  26
ENDBRANCH  23  24
ENDBRANCH  13  23
BRANCH  27  28
ATOM     28  C   UNL     1      -5.064 -10.876  10.327  0.00  0.00    +0.102 C 
BRANCH  28  30
ATOM     30  C   UNL     1      -4.660  -9.522   9.697  0.00  0.00    -0.029 C 
ATOM     31  C   UNL     1      -4.845  -9.633   8.170  0.00  0.00    +0.011 C 
ATOM     32  C   UNL     1      -3.185  -9.194   9.985  0.00  0.00    +0.011 C 
ATOM     33  C   UNL     1      -5.544  -8.375  10.209  0.00  0.00    +0.011 C 
ENDBRANCH  28  30
ENDBRANCH  27  28
TORSDOF 9
ENDMDL
MODEL 7
REMARK VINA RESULT:      -6.1     18.097     21.665
REMARK  Name = 11867459
REMARK  14 active torsions:
REMARK  status: ('A' for Active; 'I' for Inactive)
REMARK    1  A    between atoms: O_2  and  C_15
REMARK    2  A    between atoms: O_3  and  C_20
REMARK    3  A    between atoms: N_7  and  C_26
REMARK    4  A    between atoms: C_10  and  C_18
REMARK    5  A    between atoms: C_12  and  C_20
REMARK    6  A    between atoms: C_12  and  C_21
REMARK    7  A    between atoms: C_13  and  C_23
REMARK    8  A    between atoms: C_23  and  C_24
REMARK    9  A    between atoms: C_26  and  C_29
REMARK   10  A    between atoms: C_27  and  C_28
REMARK   11  A    between atoms: C_28  and  C_30
REMARK   12  A    between atoms: C_30  and  C_31
REMARK   13  A    between atoms: C_30  and  C_32
REMARK   14  A    between atoms: C_30  and  C_33
REMARK                            x       y       z     vdW  Elec       q    Type
REMARK                         _______ _______ _______ _____ _____    ______ ____
ROOT
ATOM      1  S   UNL     1      14.219   4.665   1.147  0.00  0.00    -0.057 S 
ATOM      5  O   UNL     1      13.018   8.125   4.030  0.00  0.00    -0.275 OA
ATOM      6  N   UNL     1      12.483   6.533   1.586  0.00  0.00    -0.229 NA
ATOM      8  N   UNL     1      14.281   6.323   3.178  0.00  0.00    -0.265 N 
ATOM     10  C   UNL     1      10.887   5.672  -1.817  0.00  0.00    -0.019 C 
ATOM     11  C   UNL     1      11.302   4.138  -1.712  0.00  0.00    +0.011 C 
ATOM     12  C   UNL     1      10.997   3.226  -2.963  0.00  0.00    +0.021 C 
ATOM     13  C   UNL     1      10.874   6.281  -0.340  0.00  0.00    +0.054 C 
ATOM     14  C   UNL     1       9.456   5.780  -2.404  0.00  0.00    +0.010 C 
ATOM     15  C   UNL     1       9.545   3.493  -3.450  0.00  0.00    +0.123 C 
ATOM     16  C   UNL     1      12.747   3.976  -1.155  0.00  0.00    +0.049 C 
ATOM     17  C   UNL     1       9.249   4.972  -3.677  0.00  0.00    +0.032 C 
ATOM     18  C   UNL     1      11.852   6.496  -2.704  0.00  0.00    +0.012 C 
ATOM     19  C   UNL     1      12.113   5.886   0.421  0.00  0.00    +0.058 A 
ATOM     21  C   UNL     1      11.075   1.734  -2.534  0.00  0.00    +0.016 C 
ATOM     22  C   UNL     1      12.929   4.838   0.048  0.00  0.00    +0.015 A 
ATOM     25  C   UNL     1      13.581   5.979   2.052  0.00  0.00    +0.165 A 
ATOM     27  C   UNL     1      13.970   7.352   4.084  0.00  0.00    +0.219 C 
ATOM     41  H   UNL     1      15.110   5.762   3.354  0.00  0.00    +0.157 HD
ENDROOT
BRANCH  15   2
ATOM      2  O   UNL     1       9.281   2.781  -4.657  0.00  0.00    -0.391 OA
ATOM     38  H   UNL     1       8.378   3.006  -4.940  0.00  0.00    +0.210 HD
ENDBRANCH  15   2
BRANCH  12  20
ATOM     20  C   UNL     1      12.004   3.377  -4.125  0.00  0.00    +0.165 C 
BRANCH  20   3
ATOM      3  O   UNL     1      12.934   2.322  -4.031  0.00  0.00    -0.394 OA
ATOM     39  H   UNL     1      12.834   1.775  -4.828  0.00  0.00    +0.209 HD
ENDBRANCH  20   3
ENDBRANCH  12  20
BRANCH  13  23
ATOM     23  C   UNL     1      10.633   7.795  -0.276  0.00  0.00    +0.106 C 
BRANCH  23  24
ATOM      4  O   UNL     1       8.493   8.805   0.230  0.00  0.00    -0.276 OA
ATOM      7  N   UNL     1       9.623   7.625   1.882  0.00  0.00    -0.311 N 
ATOM     24  C   UNL     1       9.457   8.145   0.607  0.00  0.00    +0.214 C 
ATOM     40  H   UNL     1      10.457   7.083   2.092  0.00  0.00    +0.149 HD
BRANCH   7  26
ATOM     26  C   UNL     1       8.656   7.804   2.941  0.00  0.00    +0.141 C 
BRANCH  26  29
ATOM      9  N   UNL     1      10.491   5.440   5.253  0.00  0.00    -0.263 NA
ATOM     29  C   UNL     1       9.014   7.019   4.168  0.00  0.00    -0.012 A 
ATOM     34  C   UNL     1       8.251   7.112   5.327  0.00  0.00    +0.008 A 
ATOM     35  C   UNL     1      10.113   6.176   4.182  0.00  0.00    +0.115 A 
ATOM     36  C   UNL     1       8.606   6.371   6.448  0.00  0.00    +0.020 A 
ATOM     37  C   UNL     1       9.724   5.557   6.360  0.00  0.00    +0.111 A 
ENDBRANCH  26  29
ENDBRANCH   7  26
ENDBRANCH  23  24
ENDBRANCH  13  23
BRANCH  27  28
ATOM     28  C   UNL     1      14.977   7.455   5.224  0.00  0.00    +0.102 C 
BRANCH  28  30
ATOM     30  C   UNL     1      15.746   8.796   5.288  0.00  0.00    -0.029 C 
ATOM     31  C   UNL     1      17.132   8.521   5.905  0.00  0.00    +0.011 C 
ATOM     32  C   UNL     1      15.012   9.815   6.177  0.00  0.00    +0.011 C 
ATOM     33  C   UNL     1      15.950   9.399   3.890  0.00  0.00    +0.011 C 
ENDBRANCH  28  30
ENDBRANCH  27  28
TORSDOF 9
ENDMDL
MODEL 8
REMARK VINA RESULT:      -6.0      2.791      5.865
REMARK  Name = 11867459
REMARK  14 active torsions:
REMARK  status: ('A' for Active; 'I' for Inactive)
REMARK    1  A    between atoms: O_2  and  C_15
REMARK    2  A    between atoms: O_3  and  C_20
REMARK    3  A    between atoms: N_7  and  C_26
REMARK    4  A    between atoms: C_10  and  C_18
REMARK    5  A    between atoms: C_12  and  C_20
REMARK    6  A    between atoms: C_12  and  C_21
REMARK    7  A    between atoms: C_13  and  C_23
REMARK    8  A    between atoms: C_23  and  C_24
REMARK    9  A    between atoms: C_26  and  C_29
REMARK   10  A    between atoms: C_27  and  C_28
REMARK   11  A    between atoms: C_28  and  C_30
REMARK   12  A    between atoms: C_30  and  C_31
REMARK   13  A    between atoms: C_30  and  C_32
REMARK   14  A    between atoms: C_30  and  C_33
REMARK                            x       y       z     vdW  Elec       q    Type
REMARK                         _______ _______ _______ _____ _____    ______ ____
ROOT
ATOM      1  S   UNL     1      18.987  10.833  21.717  0.00  0.00    -0.057 S 
ATOM      5  O   UNL     1      19.080   6.278  20.737  0.00  0.00    -0.275 OA
ATOM      6  N   UNL     1      17.525   8.740  21.299  0.00  0.00    -0.229 NA
ATOM      8  N   UNL     1      19.914   8.439  21.185  0.00  0.00    -0.265 N 
ATOM     10  C   UNL     1      14.444  10.864  22.229  0.00  0.00    -0.019 C 
ATOM     11  C   UNL     1      15.103  12.204  21.676  0.00  0.00    +0.011 C 
ATOM     12  C   UNL     1      14.300  13.543  21.901  0.00  0.00    +0.021 C 
ATOM     13  C   UNL     1      15.176   9.629  21.526  0.00  0.00    +0.054 C 
ATOM     14  C   UNL     1      12.944  10.829  21.840  0.00  0.00    +0.010 C 
ATOM     15  C   UNL     1      12.812  13.320  21.508  0.00  0.00    +0.123 C 
ATOM     16  C   UNL     1      16.608  12.302  22.068  0.00  0.00    +0.049 C 
ATOM     17  C   UNL     1      12.188  12.105  22.185  0.00  0.00    +0.032 C 
ATOM     18  C   UNL     1      14.563  10.725  23.766  0.00  0.00    +0.012 C 
ATOM     19  C   UNL     1      16.673   9.798  21.553  0.00  0.00    +0.058 A 
ATOM     21  C   UNL     1      14.868  14.640  20.957  0.00  0.00    +0.016 C 
ATOM     22  C   UNL     1      17.294  11.009  21.780  0.00  0.00    +0.015 A 
ATOM     25  C   UNL     1      18.768   9.166  21.365  0.00  0.00    +0.165 A 
ATOM     27  C   UNL     1      20.007   7.069  20.888  0.00  0.00    +0.219 C 
ATOM     41  H   UNL     1      20.776   8.969  21.285  0.00  0.00    +0.157 HD
ENDROOT
BRANCH  15   2
ATOM      2  O   UNL     1      12.031  14.472  21.821  0.00  0.00    -0.391 OA
ATOM     38  H   UNL     1      12.212  15.143  21.141  0.00  0.00    +0.210 HD
ENDBRANCH  15   2
BRANCH  12  20
ATOM     20  C   UNL     1      14.411  14.125  23.327  0.00  0.00    +0.165 C 
BRANCH  20   3
ATOM      3  O   UNL     1      14.303  15.527  23.232  0.00  0.00    -0.394 OA
ATOM     39  H   UNL     1      13.376  15.733  23.024  0.00  0.00    +0.209 HD
ENDBRANCH  20   3
ENDBRANCH  12  20
BRANCH  13  23
ATOM     23  C   UNL     1      14.756   8.252  22.059  0.00  0.00    +0.106 C 
BRANCH  23  24
ATOM      4  O   UNL     1      15.071   6.325  20.630  0.00  0.00    -0.276 OA
ATOM      7  N   UNL     1      13.208   7.681  20.332  0.00  0.00    -0.311 N 
ATOM     24  C   UNL     1      14.393   7.300  20.943  0.00  0.00    +0.214 C 
ATOM     40  H   UNL     1      12.716   8.504  20.671  0.00  0.00    +0.149 HD
BRANCH   7  26
ATOM     26  C   UNL     1      12.618   6.956  19.229  0.00  0.00    +0.141 C 
BRANCH  26  29
ATOM      9  N   UNL     1      13.915   8.536  16.047  0.00  0.00    -0.263 NA
ATOM     29  C   UNL     1      12.654   7.746  17.954  0.00  0.00    -0.012 A 
ATOM     34  C   UNL     1      11.522   8.409  17.489  0.00  0.00    +0.008 A 
ATOM     35  C   UNL     1      13.814   7.840  17.203  0.00  0.00    +0.115 A 
ATOM     36  C   UNL     1      11.585   9.134  16.305  0.00  0.00    +0.020 A 
ATOM     37  C   UNL     1      12.795   9.166  15.628  0.00  0.00    +0.111 A 
ENDBRANCH  26  29
ENDBRANCH   7  26
ENDBRANCH  23  24
ENDBRANCH  13  23
BRANCH  27  28
ATOM     28  C   UNL     1      21.449   6.590  20.763  0.00  0.00    +0.102 C 
BRANCH  28  30
ATOM     30  C   UNL     1      21.941   5.706  21.934  0.00  0.00    -0.029 C 
ATOM     31  C   UNL     1      23.477   5.817  22.001  0.00  0.00    +0.011 C 
ATOM     32  C   UNL     1      21.570   4.230  21.709  0.00  0.00    +0.011 C 
ATOM     33  C   UNL     1      21.363   6.175  23.278  0.00  0.00    +0.011 C 
ENDBRANCH  28  30
ENDBRANCH  27  28
TORSDOF 9
ENDMDL
MODEL 9
REMARK VINA RESULT:      -6.0      4.198      7.453
REMARK  Name = 11867459
REMARK  14 active torsions:
REMARK  status: ('A' for Active; 'I' for Inactive)
REMARK    1  A    between atoms: O_2  and  C_15
REMARK    2  A    between atoms: O_3  and  C_20
REMARK    3  A    between atoms: N_7  and  C_26
REMARK    4  A    between atoms: C_10  and  C_18
REMARK    5  A    between atoms: C_12  and  C_20
REMARK    6  A    between atoms: C_12  and  C_21
REMARK    7  A    between atoms: C_13  and  C_23
REMARK    8  A    between atoms: C_23  and  C_24
REMARK    9  A    between atoms: C_26  and  C_29
REMARK   10  A    between atoms: C_27  and  C_28
REMARK   11  A    between atoms: C_28  and  C_30
REMARK   12  A    between atoms: C_30  and  C_31
REMARK   13  A    between atoms: C_30  and  C_32
REMARK   14  A    between atoms: C_30  and  C_33
REMARK                            x       y       z     vdW  Elec       q    Type
REMARK                         _______ _______ _______ _____ _____    ______ ____
ROOT
ATOM      1  S   UNL     1      24.065   6.919  20.869  0.00  0.00    -0.057 S 
ATOM      5  O   UNL     1      21.804   2.844  20.900  0.00  0.00    -0.275 OA
ATOM      6  N   UNL     1      21.730   5.808  20.940  0.00  0.00    -0.229 NA
ATOM      8  N   UNL     1      23.634   4.333  20.854  0.00  0.00    -0.265 N 
ATOM     10  C   UNL     1      20.217   9.320  21.440  0.00  0.00    -0.019 C 
ATOM     11  C   UNL     1      21.372  10.023  20.598  0.00  0.00    +0.011 C 
ATOM     12  C   UNL     1      21.358  11.599  20.541  0.00  0.00    +0.021 C 
ATOM     13  C   UNL     1      20.161   7.782  21.010  0.00  0.00    +0.054 C 
ATOM     14  C   UNL     1      18.855   9.975  21.093  0.00  0.00    +0.010 C 
ATOM     15  C   UNL     1      19.915  12.088  20.231  0.00  0.00    +0.123 C 
ATOM     16  C   UNL     1      22.768   9.419  20.934  0.00  0.00    +0.049 C 
ATOM     17  C   UNL     1      18.866  11.496  21.166  0.00  0.00    +0.032 C 
ATOM     18  C   UNL     1      20.442   9.418  22.968  0.00  0.00    +0.012 C 
ATOM     19  C   UNL     1      21.540   7.177  20.974  0.00  0.00    +0.058 A 
ATOM     21  C   UNL     1      22.268  12.072  19.372  0.00  0.00    +0.016 C 
ATOM     22  C   UNL     1      22.696   7.930  20.922  0.00  0.00    +0.015 A 
ATOM     25  C   UNL     1      23.020   5.556  20.892  0.00  0.00    +0.165 A 
ATOM     27  C   UNL     1      23.009   3.074  20.860  0.00  0.00    +0.219 C 
ATOM     41  H   UNL     1      24.650   4.365  20.822  0.00  0.00    +0.157 HD
ENDROOT
BRANCH  15   2
ATOM      2  O   UNL     1      19.840  13.511  20.300  0.00  0.00    -0.391 OA
ATOM     38  H   UNL     1      19.102  13.795  19.734  0.00  0.00    +0.210 HD
ENDBRANCH  15   2
BRANCH  12  20
ATOM     20  C   UNL     1      21.914  12.291  21.805  0.00  0.00    +0.165 C 
BRANCH  20   3
ATOM      3  O   UNL     1      22.574  13.469  21.399  0.00  0.00    -0.394 OA
ATOM     39  H   UNL     1      23.453  13.465  21.812  0.00  0.00    +0.209 HD
ENDBRANCH  20   3
ENDBRANCH  12  20
BRANCH  13  23
ATOM     23  C   UNL     1      19.192   6.924  21.835  0.00  0.00    +0.106 C 
BRANCH  23  24
ATOM      4  O   UNL     1      18.097   5.810  19.988  0.00  0.00    -0.276 OA
ATOM      7  N   UNL     1      16.816   6.895  21.594  0.00  0.00    -0.311 N 
ATOM     24  C   UNL     1      18.004   6.468  21.020  0.00  0.00    +0.214 C 
ATOM     40  H   UNL     1      16.846   7.430  22.458  0.00  0.00    +0.149 HD
BRANCH   7  26
ATOM     26  C   UNL     1      15.517   6.606  21.029  0.00  0.00    +0.141 C 
BRANCH  26  29
ATOM      9  N   UNL     1      14.094   8.075  17.848  0.00  0.00    -0.263 NA
ATOM     29  C   UNL     1      15.121   7.612  19.988  0.00  0.00    -0.012 A 
ATOM     34  C   UNL     1      15.391   8.966  20.160  0.00  0.00    +0.008 A 
ATOM     35  C   UNL     1      14.476   7.222  18.826  0.00  0.00    +0.115 A 
ATOM     36  C   UNL     1      15.014   9.874  19.178  0.00  0.00    +0.020 A 
ATOM     37  C   UNL     1      14.374   9.382  18.051  0.00  0.00    +0.111 A 
ENDBRANCH  26  29
ENDBRANCH   7  26
ENDBRANCH  23  24
ENDBRANCH  13  23
BRANCH  27  28
ATOM     28  C   UNL     1      24.006   1.922  20.818  0.00  0.00    +0.102 C 
BRANCH  28  30
ATOM     30  C   UNL     1      24.725   1.638  22.158  0.00  0.00    -0.029 C 
ATOM     31  C   UNL     1      25.325   0.219  22.086  0.00  0.00    +0.011 C 
ATOM     32  C   UNL     1      23.739   1.689  23.338  0.00  0.00    +0.011 C 
ATOM     33  C   UNL     1      25.868   2.634  22.409  0.00  0.00    +0.011 C 
ENDBRANCH  28  30
ENDBRANCH  27  28
TORSDOF 9
ENDMDL
MODEL 10
REMARK VINA RESULT:      -5.8     33.051     35.716
REMARK  Name = 11867459
REMARK  14 active torsions:
REMARK  status: ('A' for Active; 'I' for Inactive)
REMARK    1  A    between atoms: O_2  and  C_15
REMARK    2  A    between atoms: O_3  and  C_20
REMARK    3  A    between atoms: N_7  and  C_26
REMARK    4  A    between atoms: C_10  and  C_18
REMARK    5  A    between atoms: C_12  and  C_20
REMARK    6  A    between atoms: C_12  and  C_21
REMARK    7  A    between atoms: C_13  and  C_23
REMARK    8  A    between atoms: C_23  and  C_24
REMARK    9  A    between atoms: C_26  and  C_29
REMARK   10  A    between atoms: C_27  and  C_28
REMARK   11  A    between atoms: C_28  and  C_30
REMARK   12  A    between atoms: C_30  and  C_31
REMARK   13  A    between atoms: C_30  and  C_32
REMARK   14  A    between atoms: C_30  and  C_33
REMARK                            x       y       z     vdW  Elec       q    Type
REMARK                         _______ _______ _______ _____ _____    ______ ____
ROOT
ATOM      1  S   UNL     1      -5.700  -7.536  39.720  0.00  0.00    -0.057 S 
ATOM      5  O   UNL     1      -6.907 -11.956  38.867  0.00  0.00    -0.275 OA
ATOM      6  N   UNL     1      -7.696  -9.166  39.490  0.00  0.00    -0.229 NA
ATOM      8  N   UNL     1      -5.493 -10.094  39.180  0.00  0.00    -0.265 N 
ATOM     10  C   UNL     1     -10.006  -6.292  40.619  0.00  0.00    -0.019 C 
ATOM     11  C   UNL     1      -9.068  -5.179  39.973  0.00  0.00    +0.011 C 
ATOM     12  C   UNL     1      -9.464  -3.673  40.227  0.00  0.00    +0.021 C 
ATOM     13  C   UNL     1      -9.695  -7.681  39.892  0.00  0.00    +0.054 C 
ATOM     14  C   UNL     1     -11.491  -5.927  40.361  0.00  0.00    +0.010 C 
ATOM     15  C   UNL     1     -10.987  -3.494  39.970  0.00  0.00    +0.123 C 
ATOM     16  C   UNL     1      -7.563  -5.485  40.232  0.00  0.00    +0.049 C 
ATOM     17  C   UNL     1     -11.847  -4.495  40.733  0.00  0.00    +0.032 C 
ATOM     18  C   UNL     1      -9.790  -6.450  42.144  0.00  0.00    +0.012 C 
ATOM     19  C   UNL     1      -8.210  -7.917  39.786  0.00  0.00    +0.058 A 
ATOM     21  C   UNL     1      -8.712  -2.773  39.208  0.00  0.00    +0.016 C 
ATOM     22  C   UNL     1      -7.272  -6.915  39.924  0.00  0.00    +0.015 A 
ATOM     25  C   UNL     1      -6.384  -9.086  39.437  0.00  0.00    +0.165 A 
ATOM     27  C   UNL     1      -5.794 -11.440  38.916  0.00  0.00    +0.219 C 
ATOM     41  H   UNL     1      -4.516  -9.812  39.190  0.00  0.00    +0.157 HD
ENDROOT
BRANCH  15   2
ATOM      2  O   UNL     1     -11.402  -2.173  40.316  0.00  0.00    -0.391 OA
ATOM     38  H   UNL     1     -11.508  -1.672  39.489  0.00  0.00    +0.210 HD
ENDBRANCH  15   2
BRANCH  12  20
ATOM     20  C   UNL     1      -9.074  -3.136  41.622  0.00  0.00    +0.165 C 
BRANCH  20   3
ATOM      3  O   UNL     1      -8.672  -1.792  41.471  0.00  0.00    -0.394 OA
ATOM     39  H   UNL     1      -7.703  -1.772  41.528  0.00  0.00    +0.209 HD
ENDBRANCH  20   3
ENDBRANCH  12  20
BRANCH  13  23
ATOM     23  C   UNL     1     -10.415  -8.893  40.498  0.00  0.00    +0.106 C 
BRANCH  23  24
ATOM      4  O   UNL     1     -12.612  -9.652  39.827  0.00  0.00    -0.276 OA
ATOM      7  N   UNL     1     -10.842  -9.803  38.331  0.00  0.00    -0.311 N 
ATOM     24  C   UNL     1     -11.430  -9.483  39.546  0.00  0.00    +0.214 C 
ATOM     40  H   UNL     1      -9.852  -9.616  38.194  0.00  0.00    +0.149 HD
BRANCH   7  26
ATOM     26  C   UNL     1     -11.572 -10.387  37.229  0.00  0.00    +0.141 C 
BRANCH  26  29
ATOM      9  N   UNL     1     -10.904 -13.662  35.460  0.00  0.00    -0.263 NA
ATOM     29  C   UNL     1     -10.831 -11.535  36.608  0.00  0.00    -0.012 A 
ATOM     34  C   UNL     1      -9.441 -11.567  36.594  0.00  0.00    +0.008 A 
ATOM     35  C   UNL     1     -11.510 -12.597  36.033  0.00  0.00    +0.115 A 
ATOM     36  C   UNL     1      -8.781 -12.644  36.013  0.00  0.00    +0.020 A 
ATOM     37  C   UNL     1      -9.553 -13.657  35.465  0.00  0.00    +0.111 A 
ENDBRANCH  26  29
ENDBRANCH   7  26
ENDBRANCH  23  24
ENDBRANCH  13  23
BRANCH  27  28
ATOM     28  C   UNL     1      -4.548 -12.287  38.682  0.00  0.00    +0.102 C 
BRANCH  28  30
ATOM     30  C   UNL     1      -4.516 -13.030  37.325  0.00  0.00    -0.029 C 
ATOM     31  C   UNL     1      -3.040 -13.272  36.950  0.00  0.00    +0.011 C 
ATOM     32  C   UNL     1      -5.169 -12.188  36.216  0.00  0.00    +0.011 C 
ATOM     33  C   UNL     1      -5.223 -14.392  37.410  0.00  0.00    +0.011 C 
ENDBRANCH  28  30
ENDBRANCH  27  28
TORSDOF 9
ENDMDL
