REMARK  Name = 7142689
REMARK  7 active torsions:
REMARK  status: ('A' for Active; 'I' for Inactive)
REMARK    1  A    between atoms: O_4  and  C_28
REMARK    2  A    between atoms: O_4  and  C_34
REMARK    3  A    between atoms: O_5  and  C_36
REMARK    4  A    between atoms: N_9  and  C_20
REMARK    5  A    between atoms: C_19  and  C_22
REMARK    6  A    between atoms: C_25  and  C_29
REMARK    7  A    between atoms: C_32  and  C_36
REMARK                            x       y       z     vdW  Elec       q    Type
REMARK                         _______ _______ _______ _____ _____    ______ ____
ROOT
ATOM      1  O   UNL     1      -0.092   2.951   1.198  0.00  0.00    -0.266 OA
ATOM      2  O   UNL     1      -4.025  -0.119   2.566  0.00  0.00    -0.270 OA
ATOM      7  N   UNL     1      -4.419   0.607   0.376  0.00  0.00    -0.297 N 
ATOM      8  N   UNL     1      -1.807   2.294  -0.247  0.00  0.00    -0.310 N 
ATOM     10  C   UNL     1      -4.232   3.065   0.041  0.00  0.00    +0.027 C 
ATOM     11  C   UNL     1      -3.644   1.532  -1.794  0.00  0.00    +0.054 C 
ATOM     12  C   UNL     1      -4.327   2.859  -1.467  0.00  0.00    +0.018 C 
ATOM     13  C   UNL     1      -4.932   1.914   0.785  0.00  0.00    +0.113 C 
ATOM     14  C   UNL     1      -2.754   3.191   0.430  0.00  0.00    +0.130 C 
ATOM     15  C   UNL     1      -4.380   0.382  -1.078  0.00  0.00    +0.117 C 
ATOM     16  C   UNL     1      -2.188   1.550  -1.369  0.00  0.00    +0.027 A 
ATOM     17  C   UNL     1      -1.278   0.826  -2.042  0.00  0.00    +0.024 A 
ATOM     18  C   UNL     1      -0.479   2.300   0.227  0.00  0.00    +0.273 A 
ATOM     19  C   UNL     1      -3.995  -0.301   1.350  0.00  0.00    +0.247 C 
ATOM     20  C   UNL     1       0.499   1.459  -0.534  0.00  0.00    +0.099 A 
ATOM     21  C   UNL     1       0.092   0.781  -1.613  0.00  0.00    +0.030 A 
ENDROOT
BRANCH  19  22
ATOM     22  C   UNL     1      -3.445  -1.584   0.900  0.00  0.00    +0.037 A 
ATOM     23  C   UNL     1      -2.079  -1.705   0.658  0.00  0.00    +0.016 A 
ATOM     24  C   UNL     1      -4.291  -2.675   0.716  0.00  0.00    +0.016 A 
ATOM     26  C   UNL     1      -1.555  -2.925   0.230  0.00  0.00    +0.046 A 
ATOM     27  C   UNL     1      -3.767  -3.895   0.288  0.00  0.00    +0.046 A 
ATOM     28  C   UNL     1      -2.400  -4.020   0.045  0.00  0.00    +0.120 A 
BRANCH  28   4
ATOM      4  O   UNL     1      -1.889  -5.210  -0.374  0.00  0.00    -0.495 OA
ATOM     34  C   UNL     1      -0.482  -5.267  -0.606  0.00  0.00    +0.277 C 
ENDBRANCH  28   4
ENDBRANCH  19  22
BRANCH  20   9
ATOM      3  O   UNL     1       2.333  -0.701  -0.872  0.00  0.00    -0.270 OA
ATOM      9  N   UNL     1       1.790   1.424  -0.096  0.00  0.00    -0.277 N 
ATOM     25  C   UNL     1       2.635   0.340  -0.292  0.00  0.00    +0.248 C 
ATOM     37  H   UNL     1       2.057   2.185   0.517  0.00  0.00    +0.155 HD
BRANCH  25  29
ATOM     29  C   UNL     1       4.015   0.495   0.237  0.00  0.00    +0.038 A 
ATOM     30  C   UNL     1       5.040  -0.210  -0.359  0.00  0.00    +0.028 A 
ATOM     31  C   UNL     1       4.226   1.340   1.306  0.00  0.00    +0.013 A 
ATOM     32  C   UNL     1       6.335  -0.064   0.137  0.00  0.00    +0.060 A 
ATOM     33  C   UNL     1       5.521   1.487   1.802  0.00  0.00    +0.002 A 
ATOM     35  C   UNL     1       6.576   0.785   1.218  0.00  0.00    +0.015 A 
BRANCH  32  36
ATOM      6  O   UNL     1       7.336  -1.571  -1.428  0.00  0.00    -0.245 OA
ATOM     36  C   UNL     1       7.435  -0.796  -0.471  0.00  0.00    +0.337 C 
BRANCH  36   5
ATOM      5  O   UNL     1       8.628  -0.538   0.132  0.00  0.00    -0.477 OA
ATOM     38  H   UNL     1       9.363  -1.036  -0.285  0.00  0.00    +0.295 HD
ENDBRANCH  36   5
ENDBRANCH  32  36
ENDBRANCH  25  29
ENDBRANCH  20   9
TORSDOF 6
