MODEL 1
REMARK VINA RESULT:      -6.1      0.000      0.000
REMARK  Name = 75536695
REMARK  9 active torsions:
REMARK  status: ('A' for Active; 'I' for Inactive)
REMARK    1  A    between atoms: S_1  and  N_7
REMARK    2  A    between atoms: S_1  and  C_15
REMARK    3  A    between atoms: O_3  and  C_9
REMARK    4  A    between atoms: N_6  and  C_8
REMARK    5  A    between atoms: N_6  and  C_13
REMARK    6  A    between atoms: N_6  and  C_14
REMARK    7  A    between atoms: N_7  and  C_12
REMARK    8  A    between atoms: C_10  and  C_12
REMARK    9  A    between atoms: C_20  and  C_21
REMARK                            x       y       z     vdW  Elec       q    Type
REMARK                         _______ _______ _______ _____ _____    ______ ____
ROOT
ATOM      7  N   UNL     1      13.277   7.492  19.331  0.00  0.00    -0.187 NA
ATOM     22  H   UNL     1      12.880   6.604  19.661  0.00  0.00    +0.148 HD
ENDROOT
BRANCH   7   1
ATOM      1  S   UNL     1      12.211   8.722  18.837  0.00  0.00    +0.058 S 
ATOM      4  O   UNL     1      11.005   8.125  18.297  0.00  0.00    -0.153 OA
ATOM      5  O   UNL     1      12.949   9.703  18.064  0.00  0.00    -0.153 OA
BRANCH   1  15
ATOM     15  C   UNL     1      11.800   9.484  20.378  0.00  0.00    +0.105 A 
ATOM     16  C   UNL     1      12.279  10.760  20.675  0.00  0.00    +0.029 A 
ATOM     17  C   UNL     1      10.999   8.808  21.299  0.00  0.00    +0.029 A 
ATOM     18  C   UNL     1      11.956  11.360  21.892  0.00  0.00    +0.005 A 
ATOM     19  C   UNL     1      10.676   9.408  22.516  0.00  0.00    +0.005 A 
ATOM     20  C   UNL     1      11.155  10.685  22.813  0.00  0.00    -0.050 A 
ATOM     21  C   UNL     1      10.810  11.325  24.114  0.00  0.00    +0.044 C 
ENDBRANCH   1  15
ENDBRANCH   7   1
BRANCH   7  12
ATOM     12  C   UNL     1      14.632   7.411  18.752  0.00  0.00    +0.140 C 
BRANCH  12  10
ATOM      2  O   UNL     1      16.563   5.959  18.837  0.00  0.00    -0.371 OA
ATOM      8  C   UNL     1      17.404   6.418  21.011  0.00  0.00    +0.113 C 
ATOM      9  C   UNL     1      16.197   7.301  20.749  0.00  0.00    +0.164 C 
ATOM     10  C   UNL     1      15.511   6.535  19.628  0.00  0.00    +0.164 C 
ATOM     11  C   UNL     1      17.783   6.001  19.599  0.00  0.00    +0.181 C 
BRANCH   8   6
ATOM      6  N   UNL     1      18.483   7.095  21.710  0.00  0.00    -0.301 NA
ATOM     13  C   UNL     1      18.587   8.492  21.279  0.00  0.00    +0.105 C 
ATOM     14  C   UNL     1      19.758   6.405  21.493  0.00  0.00    +0.105 C 
ENDBRANCH   8   6
BRANCH   9   3
ATOM      3  O   UNL     1      15.363   7.436  21.884  0.00  0.00    -0.388 OA
ATOM     23  H   UNL     1      14.836   6.624  21.973  0.00  0.00    +0.210 HD
ENDBRANCH   9   3
ENDBRANCH  12  10
ENDBRANCH   7  12
TORSDOF 6
ENDMDL
MODEL 2
REMARK VINA RESULT:      -5.9      2.599      3.621
REMARK  Name = 75536695
REMARK  9 active torsions:
REMARK  status: ('A' for Active; 'I' for Inactive)
REMARK    1  A    between atoms: S_1  and  N_7
REMARK    2  A    between atoms: S_1  and  C_15
REMARK    3  A    between atoms: O_3  and  C_9
REMARK    4  A    between atoms: N_6  and  C_8
REMARK    5  A    between atoms: N_6  and  C_13
REMARK    6  A    between atoms: N_6  and  C_14
REMARK    7  A    between atoms: N_7  and  C_12
REMARK    8  A    between atoms: C_10  and  C_12
REMARK    9  A    between atoms: C_20  and  C_21
REMARK                            x       y       z     vdW  Elec       q    Type
REMARK                         _______ _______ _______ _____ _____    ______ ____
ROOT
ATOM      7  N   UNL     1      13.250   6.938  19.643  0.00  0.00    -0.187 NA
ATOM     22  H   UNL     1      12.719   6.060  19.586  0.00  0.00    +0.148 HD
ENDROOT
BRANCH   7   1
ATOM      1  S   UNL     1      12.389   8.394  19.829  0.00  0.00    +0.058 S 
ATOM      4  O   UNL     1      12.897   9.110  20.983  0.00  0.00    -0.153 OA
ATOM      5  O   UNL     1      10.969   8.120  19.708  0.00  0.00    -0.153 OA
BRANCH   1  15
ATOM     15  C   UNL     1      12.868   9.285  18.379  0.00  0.00    +0.105 A 
ATOM     16  C   UNL     1      13.718  10.386  18.486  0.00  0.00    +0.029 A 
ATOM     17  C   UNL     1      12.393   8.890  17.129  0.00  0.00    +0.029 A 
ATOM     18  C   UNL     1      14.093  11.090  17.343  0.00  0.00    +0.005 A 
ATOM     19  C   UNL     1      12.768   9.595  15.985  0.00  0.00    +0.005 A 
ATOM     20  C   UNL     1      13.619  10.696  16.092  0.00  0.00    -0.050 A 
ATOM     21  C   UNL     1      14.020  11.449  14.870  0.00  0.00    +0.044 C 
ENDBRANCH   1  15
ENDBRANCH   7   1
BRANCH   7  12
ATOM     12  C   UNL     1      14.564   6.938  18.973  0.00  0.00    +0.140 C 
BRANCH  12  10
ATOM      2  O   UNL     1      16.754   5.921  19.110  0.00  0.00    -0.371 OA
ATOM      8  C   UNL     1      17.466   6.622  21.264  0.00  0.00    +0.113 C 
ATOM      9  C   UNL     1      16.105   7.226  20.972  0.00  0.00    +0.164 C 
ATOM     10  C   UNL     1      15.599   6.295  19.879  0.00  0.00    +0.164 C 
ATOM     11  C   UNL     1      17.933   6.242  19.868  0.00  0.00    +0.181 C 
BRANCH   8   6
ATOM      6  N   UNL     1      18.377   7.533  21.937  0.00  0.00    -0.301 NA
ATOM     13  C   UNL     1      18.334   8.862  21.321  0.00  0.00    +0.105 C 
ATOM     14  C   UNL     1      19.747   7.012  21.914  0.00  0.00    +0.105 C 
ENDBRANCH   8   6
BRANCH   9   3
ATOM      3  O   UNL     1      15.253   7.227  22.101  0.00  0.00    -0.388 OA
ATOM     23  H   UNL     1      15.787   7.442  22.885  0.00  0.00    +0.210 HD
ENDBRANCH   9   3
ENDBRANCH  12  10
ENDBRANCH   7  12
TORSDOF 6
ENDMDL
MODEL 3
REMARK VINA RESULT:      -5.7     28.136     30.729
REMARK  Name = 75536695
REMARK  9 active torsions:
REMARK  status: ('A' for Active; 'I' for Inactive)
REMARK    1  A    between atoms: S_1  and  N_7
REMARK    2  A    between atoms: S_1  and  C_15
REMARK    3  A    between atoms: O_3  and  C_9
REMARK    4  A    between atoms: N_6  and  C_8
REMARK    5  A    between atoms: N_6  and  C_13
REMARK    6  A    between atoms: N_6  and  C_14
REMARK    7  A    between atoms: N_7  and  C_12
REMARK    8  A    between atoms: C_10  and  C_12
REMARK    9  A    between atoms: C_20  and  C_21
REMARK                            x       y       z     vdW  Elec       q    Type
REMARK                         _______ _______ _______ _____ _____    ______ ____
ROOT
ATOM      7  N   UNL     1      -8.487  -9.823  18.214  0.00  0.00    -0.187 NA
ATOM     22  H   UNL     1      -7.942  -9.011  17.898  0.00  0.00    +0.148 HD
ENDROOT
BRANCH   7   1
ATOM      1  S   UNL     1      -7.649 -11.200  18.757  0.00  0.00    +0.058 S 
ATOM      4  O   UNL     1      -8.297 -12.391  18.242  0.00  0.00    -0.153 OA
ATOM      5  O   UNL     1      -7.393 -11.066  20.179  0.00  0.00    -0.153 OA
BRANCH   1  15
ATOM     15  C   UNL     1      -6.094 -11.025  17.934  0.00  0.00    +0.105 A 
ATOM     16  C   UNL     1      -4.932 -11.522  18.525  0.00  0.00    +0.029 A 
ATOM     17  C   UNL     1      -6.028 -10.387  16.696  0.00  0.00    +0.029 A 
ATOM     18  C   UNL     1      -3.706 -11.381  17.877  0.00  0.00    +0.005 A 
ATOM     19  C   UNL     1      -4.801 -10.247  16.047  0.00  0.00    +0.005 A 
ATOM     20  C   UNL     1      -3.639 -10.744  16.638  0.00  0.00    -0.050 A 
ATOM     21  C   UNL     1      -2.328 -10.594  15.946  0.00  0.00    +0.044 C 
ENDBRANCH   1  15
ENDBRANCH   7   1
BRANCH   7  12
ATOM     12  C   UNL     1      -9.831  -9.961  17.621  0.00  0.00    +0.140 C 
BRANCH  12  10
ATOM      2  O   UNL     1     -12.143  -9.316  17.916  0.00  0.00    -0.371 OA
ATOM      8  C   UNL     1     -12.511  -9.904  20.188  0.00  0.00    +0.113 C 
ATOM      9  C   UNL     1     -11.098 -10.299  19.796  0.00  0.00    +0.164 C 
ATOM     10  C   UNL     1     -10.872  -9.412  18.581  0.00  0.00    +0.164 C 
ATOM     11  C   UNL     1     -13.168  -9.751  18.826  0.00  0.00    +0.181 C 
BRANCH   8   6
ATOM      6  N   UNL     1     -13.177 -10.882  21.031  0.00  0.00    -0.301 NA
ATOM     13  C   UNL     1     -12.920 -12.244  20.555  0.00  0.00    +0.105 C 
ATOM     14  C   UNL     1     -14.621 -10.630  21.079  0.00  0.00    +0.105 C 
ENDBRANCH   8   6
BRANCH   9   3
ATOM      3  O   UNL     1     -10.156 -10.043  20.820  0.00  0.00    -0.388 OA
ATOM     23  H   UNL     1      -9.353 -10.558  20.631  0.00  0.00    +0.210 HD
ENDBRANCH   9   3
ENDBRANCH  12  10
ENDBRANCH   7  12
TORSDOF 6
ENDMDL
MODEL 4
REMARK VINA RESULT:      -5.7     26.135     27.969
REMARK  Name = 75536695
REMARK  9 active torsions:
REMARK  status: ('A' for Active; 'I' for Inactive)
REMARK    1  A    between atoms: S_1  and  N_7
REMARK    2  A    between atoms: S_1  and  C_15
REMARK    3  A    between atoms: O_3  and  C_9
REMARK    4  A    between atoms: N_6  and  C_8
REMARK    5  A    between atoms: N_6  and  C_13
REMARK    6  A    between atoms: N_6  and  C_14
REMARK    7  A    between atoms: N_7  and  C_12
REMARK    8  A    between atoms: C_10  and  C_12
REMARK    9  A    between atoms: C_20  and  C_21
REMARK                            x       y       z     vdW  Elec       q    Type
REMARK                         _______ _______ _______ _____ _____    ______ ____
ROOT
ATOM      7  N   UNL     1      -5.188 -10.598  18.032  0.00  0.00    -0.187 NA
ATOM     22  H   UNL     1      -5.058  -9.582  18.107  0.00  0.00    +0.148 HD
ENDROOT
BRANCH   7   1
ATOM      1  S   UNL     1      -6.391 -11.332  18.986  0.00  0.00    +0.058 S 
ATOM      4  O   UNL     1      -6.151 -11.025  20.383  0.00  0.00    -0.153 OA
ATOM      5  O   UNL     1      -6.556 -12.709  18.560  0.00  0.00    -0.153 OA
BRANCH   1  15
ATOM     15  C   UNL     1      -7.840 -10.457  18.476  0.00  0.00    +0.105 A 
ATOM     16  C   UNL     1      -9.082 -10.787  19.021  0.00  0.00    +0.029 A 
ATOM     17  C   UNL     1      -7.743  -9.439  17.528  0.00  0.00    +0.029 A 
ATOM     18  C   UNL     1     -10.225 -10.099  18.616  0.00  0.00    +0.005 A 
ATOM     19  C   UNL     1      -8.887  -8.750  17.124  0.00  0.00    +0.005 A 
ATOM     20  C   UNL     1     -10.128  -9.080  17.668  0.00  0.00    -0.050 A 
ATOM     21  C   UNL     1     -11.351  -8.345  17.236  0.00  0.00    +0.044 C 
ENDBRANCH   1  15
ENDBRANCH   7   1
BRANCH   7  12
ATOM     12  C   UNL     1      -3.999 -11.369  17.622  0.00  0.00    +0.140 C 
BRANCH  12  10
ATOM      2  O   UNL     1      -1.867 -11.016  16.536  0.00  0.00    -0.371 OA
ATOM      8  C   UNL     1      -2.543 -10.564  14.304  0.00  0.00    +0.113 C 
ATOM      9  C   UNL     1      -3.771 -10.875  15.141  0.00  0.00    +0.164 C 
ATOM     10  C   UNL     1      -3.245 -10.609  16.544  0.00  0.00    +0.164 C 
ATOM     11  C   UNL     1      -1.436 -11.143  15.170  0.00  0.00    +0.181 C 
BRANCH   8   6
ATOM      6  N   UNL     1      -2.582 -11.144  12.972  0.00  0.00    -0.301 NA
ATOM     13  C   UNL     1      -2.023 -12.499  12.977  0.00  0.00    +0.105 C 
ATOM     14  C   UNL     1      -1.854 -10.303  12.017  0.00  0.00    +0.105 C 
ENDBRANCH   8   6
BRANCH   9   3
ATOM      3  O   UNL     1      -4.872 -10.046  14.823  0.00  0.00    -0.388 OA
ATOM     23  H   UNL     1      -5.575 -10.210  15.475  0.00  0.00    +0.210 HD
ENDBRANCH   9   3
ENDBRANCH  12  10
ENDBRANCH   7  12
TORSDOF 6
ENDMDL
MODEL 5
REMARK VINA RESULT:      -5.7     26.119     28.983
REMARK  Name = 75536695
REMARK  9 active torsions:
REMARK  status: ('A' for Active; 'I' for Inactive)
REMARK    1  A    between atoms: S_1  and  N_7
REMARK    2  A    between atoms: S_1  and  C_15
REMARK    3  A    between atoms: O_3  and  C_9
REMARK    4  A    between atoms: N_6  and  C_8
REMARK    5  A    between atoms: N_6  and  C_13
REMARK    6  A    between atoms: N_6  and  C_14
REMARK    7  A    between atoms: N_7  and  C_12
REMARK    8  A    between atoms: C_10  and  C_12
REMARK    9  A    between atoms: C_20  and  C_21
REMARK                            x       y       z     vdW  Elec       q    Type
REMARK                         _______ _______ _______ _____ _____    ______ ____
ROOT
ATOM      7  N   UNL     1     -14.382   6.854  20.502  0.00  0.00    -0.187 NA
ATOM     22  H   UNL     1     -14.516   5.991  19.961  0.00  0.00    +0.148 HD
ENDROOT
BRANCH   7   1
ATOM      1  S   UNL     1     -12.800   7.447  20.699  0.00  0.00    +0.058 S 
ATOM      4  O   UNL     1     -11.934   6.372  21.146  0.00  0.00    -0.153 OA
ATOM      5  O   UNL     1     -12.852   8.696  21.436  0.00  0.00    -0.153 OA
BRANCH   1  15
ATOM     15  C   UNL     1     -12.355   7.849  19.036  0.00  0.00    +0.105 A 
ATOM     16  C   UNL     1     -11.010   7.905  18.667  0.00  0.00    +0.029 A 
ATOM     17  C   UNL     1     -13.348   8.114  18.093  0.00  0.00    +0.029 A 
ATOM     18  C   UNL     1     -10.660   8.225  17.356  0.00  0.00    +0.005 A 
ATOM     19  C   UNL     1     -12.997   8.434  16.781  0.00  0.00    +0.005 A 
ATOM     20  C   UNL     1     -11.653   8.490  16.412  0.00  0.00    -0.050 A 
ATOM     21  C   UNL     1     -11.278   8.832  15.011  0.00  0.00    +0.044 C 
ENDBRANCH   1  15
ENDBRANCH   7   1
BRANCH   7  12
ATOM     12  C   UNL     1     -15.409   7.137  21.523  0.00  0.00    +0.140 C 
BRANCH  12  10
ATOM      2  O   UNL     1     -16.181   6.526  23.731  0.00  0.00    -0.371 OA
ATOM      8  C   UNL     1     -15.561   4.235  23.831  0.00  0.00    +0.113 C 
ATOM      9  C   UNL     1     -15.201   4.787  22.463  0.00  0.00    +0.164 C 
ATOM     10  C   UNL     1     -15.159   6.280  22.751  0.00  0.00    +0.164 C 
ATOM     11  C   UNL     1     -16.563   5.269  24.318  0.00  0.00    +0.181 C 
BRANCH   8   6
ATOM      6  N   UNL     1     -16.110   2.890  23.792  0.00  0.00    -0.301 NA
ATOM     13  C   UNL     1     -17.352   2.856  23.015  0.00  0.00    +0.105 C 
ATOM     14  C   UNL     1     -16.350   2.387  25.148  0.00  0.00    +0.105 C 
ENDBRANCH   8   6
BRANCH   9   3
ATOM      3  O   UNL     1     -13.958   4.305  21.990  0.00  0.00    -0.388 OA
ATOM     23  H   UNL     1     -14.131   3.658  21.284  0.00  0.00    +0.210 HD
ENDBRANCH   9   3
ENDBRANCH  12  10
ENDBRANCH   7  12
TORSDOF 6
ENDMDL
MODEL 6
REMARK VINA RESULT:      -5.7     25.964     28.259
REMARK  Name = 75536695
REMARK  9 active torsions:
REMARK  status: ('A' for Active; 'I' for Inactive)
REMARK    1  A    between atoms: S_1  and  N_7
REMARK    2  A    between atoms: S_1  and  C_15
REMARK    3  A    between atoms: O_3  and  C_9
REMARK    4  A    between atoms: N_6  and  C_8
REMARK    5  A    between atoms: N_6  and  C_13
REMARK    6  A    between atoms: N_6  and  C_14
REMARK    7  A    between atoms: N_7  and  C_12
REMARK    8  A    between atoms: C_10  and  C_12
REMARK    9  A    between atoms: C_20  and  C_21
REMARK                            x       y       z     vdW  Elec       q    Type
REMARK                         _______ _______ _______ _____ _____    ______ ____
ROOT
ATOM      7  N   UNL     1      -3.479 -10.396  15.690  0.00  0.00    -0.187 NA
ATOM     22  H   UNL     1      -4.143  -9.688  15.352  0.00  0.00    +0.148 HD
ENDROOT
BRANCH   7   1
ATOM      1  S   UNL     1      -2.137 -10.775  14.715  0.00  0.00    +0.058 S 
ATOM      4  O   UNL     1      -1.911 -12.208  14.744  0.00  0.00    -0.153 OA
ATOM      5  O   UNL     1      -1.054  -9.861  15.027  0.00  0.00    -0.153 OA
BRANCH   1  15
ATOM     15  C   UNL     1      -2.726 -10.347  13.105  0.00  0.00    +0.105 A 
ATOM     16  C   UNL     1      -4.095 -10.366  12.835  0.00  0.00    +0.029 A 
ATOM     17  C   UNL     1      -1.823  -9.994  12.102  0.00  0.00    +0.029 A 
ATOM     18  C   UNL     1      -4.559 -10.031  11.564  0.00  0.00    +0.005 A 
ATOM     19  C   UNL     1      -2.287  -9.659  10.831  0.00  0.00    +0.005 A 
ATOM     20  C   UNL     1      -3.656  -9.677  10.561  0.00  0.00    -0.050 A 
ATOM     21  C   UNL     1      -4.153  -9.320   9.202  0.00  0.00    +0.044 C 
ENDBRANCH   1  15
ENDBRANCH   7   1
BRANCH   7  12
ATOM     12  C   UNL     1      -4.031 -11.406  16.612  0.00  0.00    +0.140 C 
BRANCH  12  10
ATOM      2  O   UNL     1      -6.039 -12.662  17.099  0.00  0.00    -0.371 OA
ATOM      8  C   UNL     1      -7.648 -10.925  17.290  0.00  0.00    +0.113 C 
ATOM      9  C   UNL     1      -6.283 -10.311  17.038  0.00  0.00    +0.164 C 
ATOM     10  C   UNL     1      -5.537 -11.491  16.434  0.00  0.00    +0.164 C 
ATOM     11  C   UNL     1      -7.268 -12.318  17.764  0.00  0.00    +0.181 C 
BRANCH   8   6
ATOM      6  N   UNL     1      -8.447 -10.196  18.261  0.00  0.00    -0.301 NA
ATOM     13  C   UNL     1      -8.846 -11.068  19.369  0.00  0.00    +0.105 C 
ATOM     14  C   UNL     1      -9.633  -9.612  17.627  0.00  0.00    +0.105 C 
ENDBRANCH   8   6
BRANCH   9   3
ATOM      3  O   UNL     1      -6.335  -9.209  16.153  0.00  0.00    -0.388 OA
ATOM     23  H   UNL     1      -6.609  -8.424  16.658  0.00  0.00    +0.210 HD
ENDBRANCH   9   3
ENDBRANCH  12  10
ENDBRANCH   7  12
TORSDOF 6
ENDMDL
MODEL 7
REMARK VINA RESULT:      -5.6     26.278     28.167
REMARK  Name = 75536695
REMARK  9 active torsions:
REMARK  status: ('A' for Active; 'I' for Inactive)
REMARK    1  A    between atoms: S_1  and  N_7
REMARK    2  A    between atoms: S_1  and  C_15
REMARK    3  A    between atoms: O_3  and  C_9
REMARK    4  A    between atoms: N_6  and  C_8
REMARK    5  A    between atoms: N_6  and  C_13
REMARK    6  A    between atoms: N_6  and  C_14
REMARK    7  A    between atoms: N_7  and  C_12
REMARK    8  A    between atoms: C_10  and  C_12
REMARK    9  A    between atoms: C_20  and  C_21
REMARK                            x       y       z     vdW  Elec       q    Type
REMARK                         _______ _______ _______ _____ _____    ______ ____
ROOT
ATOM      7  N   UNL     1      -3.428 -10.375  15.844  0.00  0.00    -0.187 NA
ATOM     22  H   UNL     1      -3.834  -9.503  15.481  0.00  0.00    +0.148 HD
ENDROOT
BRANCH   7   1
ATOM      1  S   UNL     1      -2.512 -11.342  14.786  0.00  0.00    +0.058 S 
ATOM      4  O   UNL     1      -3.009 -12.705  14.828  0.00  0.00    -0.153 OA
ATOM      5  O   UNL     1      -1.102 -11.074  15.002  0.00  0.00    -0.153 OA
BRANCH   1  15
ATOM     15  C   UNL     1      -2.932 -10.656  13.212  0.00  0.00    +0.105 A 
ATOM     16  C   UNL     1      -1.927 -10.352  12.293  0.00  0.00    +0.029 A 
ATOM     17  C   UNL     1      -4.267 -10.415  12.890  0.00  0.00    +0.029 A 
ATOM     18  C   UNL     1      -2.258  -9.808  11.053  0.00  0.00    +0.005 A 
ATOM     19  C   UNL     1      -4.599  -9.871  11.649  0.00  0.00    +0.005 A 
ATOM     20  C   UNL     1      -3.594  -9.567  10.730  0.00  0.00    -0.050 A 
ATOM     21  C   UNL     1      -3.948  -8.986   9.404  0.00  0.00    +0.044 C 
ENDBRANCH   1  15
ENDBRANCH   7   1
BRANCH   7  12
ATOM     12  C   UNL     1      -4.142 -10.991  16.978  0.00  0.00    +0.140 C 
BRANCH  12  10
ATOM      2  O   UNL     1      -5.900  -9.468  16.319  0.00  0.00    -0.371 OA
ATOM      8  C   UNL     1      -7.513  -9.842  18.021  0.00  0.00    +0.113 C 
ATOM      9  C   UNL     1      -6.335 -10.775  18.240  0.00  0.00    +0.164 C 
ATOM     10  C   UNL     1      -5.246 -10.063  17.452  0.00  0.00    +0.164 C 
ATOM     11  C   UNL     1      -7.317  -9.447  16.567  0.00  0.00    +0.181 C 
BRANCH   8   6
ATOM      6  N   UNL     1      -8.803 -10.463  18.270  0.00  0.00    -0.301 NA
ATOM     13  C   UNL     1      -8.897 -11.760  17.594  0.00  0.00    +0.105 C 
ATOM     14  C   UNL     1      -9.895  -9.588  17.832  0.00  0.00    +0.105 C 
ENDBRANCH   8   6
BRANCH   9   3
ATOM      3  O   UNL     1      -5.995 -10.913  19.606  0.00  0.00    -0.388 OA
ATOM     23  H   UNL     1      -5.945 -10.025  19.999  0.00  0.00    +0.210 HD
ENDBRANCH   9   3
ENDBRANCH  12  10
ENDBRANCH   7  12
TORSDOF 6
ENDMDL
MODEL 8
REMARK VINA RESULT:      -5.6     26.455     28.356
REMARK  Name = 75536695
REMARK  9 active torsions:
REMARK  status: ('A' for Active; 'I' for Inactive)
REMARK    1  A    between atoms: S_1  and  N_7
REMARK    2  A    between atoms: S_1  and  C_15
REMARK    3  A    between atoms: O_3  and  C_9
REMARK    4  A    between atoms: N_6  and  C_8
REMARK    5  A    between atoms: N_6  and  C_13
REMARK    6  A    between atoms: N_6  and  C_14
REMARK    7  A    between atoms: N_7  and  C_12
REMARK    8  A    between atoms: C_10  and  C_12
REMARK    9  A    between atoms: C_20  and  C_21
REMARK                            x       y       z     vdW  Elec       q    Type
REMARK                         _______ _______ _______ _____ _____    ______ ____
ROOT
ATOM      7  N   UNL     1      -3.485 -11.879  15.673  0.00  0.00    -0.187 NA
ATOM     22  H   UNL     1      -4.032 -12.734  15.829  0.00  0.00    +0.148 HD
ENDROOT
BRANCH   7   1
ATOM      1  S   UNL     1      -2.142 -11.955  14.631  0.00  0.00    +0.058 S 
ATOM      4  O   UNL     1      -1.922 -13.332  14.230  0.00  0.00    -0.153 OA
ATOM      5  O   UNL     1      -1.057 -11.180  15.202  0.00  0.00    -0.153 OA
BRANCH   1  15
ATOM     15  C   UNL     1      -2.727 -11.063  13.222  0.00  0.00    +0.105 A 
ATOM     16  C   UNL     1      -1.829 -10.642  12.240  0.00  0.00    +0.029 A 
ATOM     17  C   UNL     1      -4.086 -10.776  13.091  0.00  0.00    +0.029 A 
ATOM     18  C   UNL     1      -2.290  -9.936  11.130  0.00  0.00    +0.005 A 
ATOM     19  C   UNL     1      -4.547 -10.070  11.981  0.00  0.00    +0.005 A 
ATOM     20  C   UNL     1      -3.649  -9.650  10.999  0.00  0.00    -0.050 A 
ATOM     21  C   UNL     1      -4.141  -8.894   9.812  0.00  0.00    +0.044 C 
ENDBRANCH   1  15
ENDBRANCH   7   1
BRANCH   7  12
ATOM     12  C   UNL     1      -3.516 -10.889  16.767  0.00  0.00    +0.140 C 
BRANCH  12  10
ATOM      2  O   UNL     1      -5.042 -10.449  18.591  0.00  0.00    -0.371 OA
ATOM      8  C   UNL     1      -6.201 -12.516  18.745  0.00  0.00    +0.113 C 
ATOM      9  C   UNL     1      -5.220 -12.584  17.589  0.00  0.00    +0.164 C 
ATOM     10  C   UNL     1      -4.251 -11.471  17.962  0.00  0.00    +0.164 C 
ATOM     11  C   UNL     1      -6.312 -11.016  18.958  0.00  0.00    +0.181 C 
BRANCH   8   6
ATOM      6  N   UNL     1      -7.481 -13.144  18.462  0.00  0.00    -0.301 NA
ATOM     13  C   UNL     1      -8.112 -12.533  17.288  0.00  0.00    +0.105 C 
ATOM     14  C   UNL     1      -8.375 -13.050  19.620  0.00  0.00    +0.105 C 
ENDBRANCH   8   6
BRANCH   9   3
ATOM      3  O   UNL     1      -4.572 -13.838  17.495  0.00  0.00    -0.388 OA
ATOM     23  H   UNL     1      -4.738 -14.329  18.318  0.00  0.00    +0.210 HD
ENDBRANCH   9   3
ENDBRANCH  12  10
ENDBRANCH   7  12
TORSDOF 6
ENDMDL
MODEL 9
REMARK VINA RESULT:      -5.5     26.993     28.232
REMARK  Name = 75536695
REMARK  9 active torsions:
REMARK  status: ('A' for Active; 'I' for Inactive)
REMARK    1  A    between atoms: S_1  and  N_7
REMARK    2  A    between atoms: S_1  and  C_15
REMARK    3  A    between atoms: O_3  and  C_9
REMARK    4  A    between atoms: N_6  and  C_8
REMARK    5  A    between atoms: N_6  and  C_13
REMARK    6  A    between atoms: N_6  and  C_14
REMARK    7  A    between atoms: N_7  and  C_12
REMARK    8  A    between atoms: C_10  and  C_12
REMARK    9  A    between atoms: C_20  and  C_21
REMARK                            x       y       z     vdW  Elec       q    Type
REMARK                         _______ _______ _______ _____ _____    ______ ____
ROOT
ATOM      7  N   UNL     1      -3.940 -11.687  13.849  0.00  0.00    -0.187 NA
ATOM     22  H   UNL     1      -3.818 -12.203  14.729  0.00  0.00    +0.148 HD
ENDROOT
BRANCH   7   1
ATOM      1  S   UNL     1      -2.561 -11.352  12.910  0.00  0.00    +0.058 S 
ATOM      4  O   UNL     1      -1.755 -12.553  12.794  0.00  0.00    -0.153 OA
ATOM      5  O   UNL     1      -1.963 -10.115  13.375  0.00  0.00    -0.153 OA
BRANCH   1  15
ATOM     15  C   UNL     1      -3.273 -11.018  11.328  0.00  0.00    +0.105 A 
ATOM     16  C   UNL     1      -3.279  -9.716  10.826  0.00  0.00    +0.029 A 
ATOM     17  C   UNL     1      -3.832 -12.055  10.581  0.00  0.00    +0.029 A 
ATOM     18  C   UNL     1      -3.844  -9.452   9.579  0.00  0.00    +0.005 A 
ATOM     19  C   UNL     1      -4.397 -11.791   9.333  0.00  0.00    +0.005 A 
ATOM     20  C   UNL     1      -4.403 -10.488   8.832  0.00  0.00    -0.050 A 
ATOM     21  C   UNL     1      -5.007 -10.206   7.499  0.00  0.00    +0.044 C 
ENDBRANCH   1  15
ENDBRANCH   7   1
BRANCH   7  12
ATOM     12  C   UNL     1      -5.111 -10.792  13.787  0.00  0.00    +0.140 C 
BRANCH  12  10
ATOM      2  O   UNL     1      -6.694 -10.437  15.580  0.00  0.00    -0.371 OA
ATOM      8  C   UNL     1      -5.267 -10.454  17.479  0.00  0.00    +0.113 C 
ATOM      9  C   UNL     1      -4.440 -10.727  16.236  0.00  0.00    +0.164 C 
ATOM     10  C   UNL     1      -5.349 -10.168  15.151  0.00  0.00    +0.164 C 
ATOM     11  C   UNL     1      -6.669 -10.763  16.981  0.00  0.00    +0.181 C 
BRANCH   8   6
ATOM      6  N   UNL     1      -4.883 -11.262  18.625  0.00  0.00    -0.301 NA
ATOM     13  C   UNL     1      -4.740 -12.670  18.246  0.00  0.00    +0.105 C 
ATOM     14  C   UNL     1      -5.863 -11.129  19.708  0.00  0.00    +0.105 C 
ENDBRANCH   8   6
BRANCH   9   3
ATOM      3  O   UNL     1      -3.185 -10.075  16.261  0.00  0.00    -0.388 OA
ATOM     23  H   UNL     1      -3.039  -9.662  15.393  0.00  0.00    +0.210 HD
ENDBRANCH   9   3
ENDBRANCH  12  10
ENDBRANCH   7  12
TORSDOF 6
ENDMDL
MODEL 10
REMARK VINA RESULT:      -5.5      3.277      4.565
REMARK  Name = 75536695
REMARK  9 active torsions:
REMARK  status: ('A' for Active; 'I' for Inactive)
REMARK    1  A    between atoms: S_1  and  N_7
REMARK    2  A    between atoms: S_1  and  C_15
REMARK    3  A    between atoms: O_3  and  C_9
REMARK    4  A    between atoms: N_6  and  C_8
REMARK    5  A    between atoms: N_6  and  C_13
REMARK    6  A    between atoms: N_6  and  C_14
REMARK    7  A    between atoms: N_7  and  C_12
REMARK    8  A    between atoms: C_10  and  C_12
REMARK    9  A    between atoms: C_20  and  C_21
REMARK                            x       y       z     vdW  Elec       q    Type
REMARK                         _______ _______ _______ _____ _____    ______ ____
ROOT
ATOM      7  N   UNL     1      13.115  10.548  17.683  0.00  0.00    -0.187 NA
ATOM     22  H   UNL     1      12.211  10.837  17.291  0.00  0.00    +0.148 HD
ENDROOT
BRANCH   7   1
ATOM      1  S   UNL     1      14.069  11.719  18.466  0.00  0.00    +0.058 S 
ATOM      4  O   UNL     1      14.405  12.772  17.526  0.00  0.00    -0.153 OA
ATOM      5  O   UNL     1      15.115  11.051  19.217  0.00  0.00    -0.153 OA
BRANCH   1  15
ATOM     15  C   UNL     1      12.932  12.383  19.645  0.00  0.00    +0.105 A 
ATOM     16  C   UNL     1      12.416  11.567  20.653  0.00  0.00    +0.029 A 
ATOM     17  C   UNL     1      12.548  13.722  19.566  0.00  0.00    +0.029 A 
ATOM     18  C   UNL     1      11.517  12.091  21.581  0.00  0.00    +0.005 A 
ATOM     19  C   UNL     1      11.649  14.245  20.495  0.00  0.00    +0.005 A 
ATOM     20  C   UNL     1      11.133  13.429  21.503  0.00  0.00    -0.050 A 
ATOM     21  C   UNL     1      10.171  13.988  22.495  0.00  0.00    +0.044 C 
ENDBRANCH   1  15
ENDBRANCH   7   1
BRANCH   7  12
ATOM     12  C   UNL     1      13.755   9.388  17.033  0.00  0.00    +0.140 C 
BRANCH  12  10
ATOM      2  O   UNL     1      14.364   7.522  18.445  0.00  0.00    -0.371 OA
ATOM      8  C   UNL     1      12.330   7.123  19.604  0.00  0.00    +0.113 C 
ATOM      9  C   UNL     1      12.154   8.324  18.694  0.00  0.00    +0.164 C 
ATOM     10  C   UNL     1      13.284   8.106  17.698  0.00  0.00    +0.164 C 
ATOM     11  C   UNL     1      13.844   7.033  19.694  0.00  0.00    +0.181 C 
BRANCH   8   6
ATOM      6  N   UNL     1      11.695   7.275  20.902  0.00  0.00    -0.301 NA
ATOM     13  C   UNL     1      12.558   8.023  21.821  0.00  0.00    +0.105 C 
ATOM     14  C   UNL     1      11.361   5.968  21.476  0.00  0.00    +0.105 C 
ENDBRANCH   8   6
BRANCH   9   3
ATOM      3  O   UNL     1      10.889   8.349  18.060  0.00  0.00    -0.388 OA
ATOM     23  H   UNL     1      11.029   8.289  17.099  0.00  0.00    +0.210 HD
ENDBRANCH   9   3
ENDBRANCH  12  10
ENDBRANCH   7  12
TORSDOF 6
ENDMDL
