REMARK  Name = 45784301
REMARK  6 active torsions:
REMARK  status: ('A' for Active; 'I' for Inactive)
REMARK    1  A    between atoms: O_1  and  C_18
REMARK    2  A    between atoms: O_1  and  C_24
REMARK    3  A    between atoms: N_2  and  C_10
REMARK    4  A    between atoms: C_5  and  C_9
REMARK    5  A    between atoms: C_10  and  C_11
REMARK    6  A    between atoms: C_22  and  C_23
REMARK                            x       y       z     vdW  Elec       q    Type
REMARK                         _______ _______ _______ _____ _____    ______ ____
ROOT
ATOM      2  N   UNL     1      -2.000  -0.230  -0.167  0.00  0.00    -0.297 NA
ATOM      5  C   UNL     1       0.206  -0.729   0.452  0.00  0.00    +0.070 C 
ATOM      6  C   UNL     1      -0.528  -0.083   1.640  0.00  0.00    +0.028 C 
ATOM      7  C   UNL     1      -0.677  -0.420  -0.764  0.00  0.00    +0.096 C 
ATOM      8  C   UNL     1      -1.760   0.574   1.032  0.00  0.00    +0.085 C 
ENDROOT
BRANCH   5   9
ATOM      3  N   UNL     1       2.674  -1.170   0.319  0.00  0.00    -0.341 N 
ATOM      4  N   UNL     1       2.055   0.948   0.056  0.00  0.00    -0.232 NA
ATOM      9  C   UNL     1       1.638  -0.279   0.270  0.00  0.00    +0.113 A 
ATOM     12  C   UNL     1       3.837  -0.471   0.122  0.00  0.00    +0.070 A 
ATOM     13  C   UNL     1       3.424   0.849  -0.039  0.00  0.00    +0.089 A 
ATOM     16  C   UNL     1       5.174  -0.867   0.073  0.00  0.00    +0.073 A 
ATOM     17  C   UNL     1       4.388   1.846  -0.263  0.00  0.00    +0.033 A 
ATOM     18  C   UNL     1       6.120   0.138  -0.151  0.00  0.00    +0.122 A 
ATOM     21  C   UNL     1       5.737   1.471  -0.316  0.00  0.00    +0.048 A 
ATOM     25  H   UNL     1       2.600  -2.167   0.471  0.00  0.00    +0.167 HD
BRANCH  18   1
ATOM      1  O   UNL     1       7.442  -0.192  -0.209  0.00  0.00    -0.495 OA
ATOM     24  C   UNL     1       7.774  -1.567  -0.033  0.00  0.00    +0.277 C 
ENDBRANCH  18   1
ENDBRANCH   5   9
BRANCH   2  10
ATOM     10  C   UNL     1      -2.937   0.405  -1.082  0.00  0.00    +0.119 C 
BRANCH  10  11
ATOM     11  C   UNL     1      -4.365   0.206  -0.649  0.00  0.00    -0.033 A 
ATOM     14  C   UNL     1      -4.991  -1.024  -0.854  0.00  0.00    +0.005 A 
ATOM     15  C   UNL     1      -5.064   1.252  -0.047  0.00  0.00    +0.005 A 
ATOM     19  C   UNL     1      -6.315  -1.207  -0.456  0.00  0.00    +0.003 A 
ATOM     20  C   UNL     1      -6.388   1.069   0.351  0.00  0.00    +0.003 A 
ATOM     22  C   UNL     1      -7.014  -0.161   0.146  0.00  0.00    -0.050 A 
ATOM     23  C   UNL     1      -8.430  -0.357   0.571  0.00  0.00    +0.044 C 
ENDBRANCH  10  11
ENDBRANCH   2  10
TORSDOF 4
