MODEL 1
REMARK VINA RESULT:      -6.5      0.000      0.000
REMARK  Name = 45361633
REMARK  12 active torsions:
REMARK  status: ('A' for Active; 'I' for Inactive)
REMARK    1  A    between atoms: O_1  and  C_12
REMARK    2  A    between atoms: O_4  and  C_29
REMARK    3  A    between atoms: O_4  and  C_31
REMARK    4  A    between atoms: N_5  and  C_16
REMARK    5  A    between atoms: N_6  and  C_26
REMARK    6  A    between atoms: C_9  and  C_19
REMARK    7  A    between atoms: C_11  and  C_21
REMARK    8  A    between atoms: C_15  and  C_20
REMARK    9  A    between atoms: C_20  and  C_22
REMARK   10  A    between atoms: C_20  and  C_23
REMARK   11  A    between atoms: C_24  and  C_25
REMARK   12  A    between atoms: C_26  and  C_29
REMARK                            x       y       z     vdW  Elec       q    Type
REMARK                         _______ _______ _______ _____ _____    ______ ____
ROOT
ATOM      9  C   UNL     1     -15.079   7.533  20.605  0.00  0.00    -0.027 C 
ATOM     10  C   UNL     1     -13.853   6.614  20.927  0.00  0.00    +0.028 C 
ATOM     11  C   UNL     1     -14.052   5.881  22.303  0.00  0.00    +0.012 C 
ATOM     12  C   UNL     1     -12.513   7.386  20.768  0.00  0.00    +0.122 C 
ATOM     13  C   UNL     1     -14.905   8.149  19.197  0.00  0.00    +0.007 C 
ATOM     14  C   UNL     1     -16.364   6.671  20.586  0.00  0.00    +0.009 C 
ATOM     15  C   UNL     1     -12.390   8.088  19.397  0.00  0.00    +0.029 C 
ATOM     16  C   UNL     1     -15.384   5.079  22.300  0.00  0.00    +0.076 C 
ATOM     17  C   UNL     1     -13.611   8.939  19.050  0.00  0.00    +0.007 C 
ATOM     18  C   UNL     1     -16.595   5.915  21.886  0.00  0.00    +0.023 C 
ATOM     19  C   UNL     1     -15.248   8.680  21.633  0.00  0.00    +0.011 C 
ATOM     21  C   UNL     1     -12.895   4.937  22.670  0.00  0.00    +0.010 C 
ENDROOT
BRANCH  16   5
ATOM      3  O   UNL     1     -16.451   2.459  22.792  0.00  0.00    -0.270 OA
ATOM      5  N   UNL     1     -15.656   4.485  23.591  0.00  0.00    -0.308 N 
ATOM     24  C   UNL     1     -16.173   3.208  23.725  0.00  0.00    +0.247 C 
ATOM     32  H   UNL     1     -15.547   5.081  24.406  0.00  0.00    +0.149 HD
BRANCH  24  25
ATOM      7  N   UNL     1     -17.097   1.033  26.660  0.00  0.00    -0.243 NA
ATOM      8  N   UNL     1     -16.440   3.201  27.483  0.00  0.00    -0.243 NA
ATOM     25  C   UNL     1     -16.421   2.754  25.118  0.00  0.00    +0.073 A 
ATOM     27  C   UNL     1     -16.861   1.479  25.408  0.00  0.00    +0.127 A 
ATOM     28  C   UNL     1     -16.225   3.580  26.206  0.00  0.00    +0.127 A 
ATOM     30  C   UNL     1     -16.868   1.934  27.635  0.00  0.00    +0.221 A 
ENDBRANCH  24  25
ENDBRANCH  16   5
BRANCH  12   1
ATOM      1  O   UNL     1     -11.422   6.469  20.858  0.00  0.00    -0.391 OA
ATOM     33  H   UNL     1     -10.691   6.815  20.318  0.00  0.00    +0.210 HD
ENDBRANCH  12   1
BRANCH  15  20
ATOM     20  C   UNL     1     -11.124   8.949  19.309  0.00  0.00    +0.077 C 
ATOM     22  C   UNL     1     -11.319  10.249  20.080  0.00  0.00    +0.017 C 
BRANCH  20  23
ATOM      2  O   UNL     1     -10.479  10.332  17.429  0.00  0.00    -0.276 OA
ATOM      6  N   UNL     1     -10.836   8.069  17.069  0.00  0.00    -0.313 N 
ATOM     23  C   UNL     1     -10.776   9.215  17.848  0.00  0.00    +0.216 C 
ATOM     34  H   UNL     1     -11.035   7.172  17.502  0.00  0.00    +0.149 HD
BRANCH   6  26
ATOM     26  C   UNL     1     -10.551   8.070  15.653  0.00  0.00    +0.132 C 
BRANCH  26  29
ATOM     29  C   UNL     1     -11.796   8.349  14.832  0.00  0.00    +0.178 C 
BRANCH  29   4
ATOM      4  O   UNL     1     -11.646   7.782  13.537  0.00  0.00    -0.381 OA
ATOM     31  C   UNL     1     -10.281   7.516  13.239  0.00  0.00    +0.194 C 
ENDBRANCH  29   4
ENDBRANCH  26  29
ENDBRANCH   6  26
ENDBRANCH  20  23
ENDBRANCH  15  20
TORSDOF 8
ENDMDL
MODEL 2
REMARK VINA RESULT:      -6.4     17.699     19.288
REMARK  Name = 45361633
REMARK  12 active torsions:
REMARK  status: ('A' for Active; 'I' for Inactive)
REMARK    1  A    between atoms: O_1  and  C_12
REMARK    2  A    between atoms: O_4  and  C_29
REMARK    3  A    between atoms: O_4  and  C_31
REMARK    4  A    between atoms: N_5  and  C_16
REMARK    5  A    between atoms: N_6  and  C_26
REMARK    6  A    between atoms: C_9  and  C_19
REMARK    7  A    between atoms: C_11  and  C_21
REMARK    8  A    between atoms: C_15  and  C_20
REMARK    9  A    between atoms: C_20  and  C_22
REMARK   10  A    between atoms: C_20  and  C_23
REMARK   11  A    between atoms: C_24  and  C_25
REMARK   12  A    between atoms: C_26  and  C_29
REMARK                            x       y       z     vdW  Elec       q    Type
REMARK                         _______ _______ _______ _____ _____    ______ ____
ROOT
ATOM      9  C   UNL     1      -4.765 -11.054  16.886  0.00  0.00    -0.027 C 
ATOM     10  C   UNL     1      -5.549 -10.408  15.694  0.00  0.00    +0.028 C 
ATOM     11  C   UNL     1      -7.100 -10.501  15.931  0.00  0.00    +0.012 C 
ATOM     12  C   UNL     1      -5.047 -10.955  14.328  0.00  0.00    +0.122 C 
ATOM     13  C   UNL     1      -3.247 -10.845  16.677  0.00  0.00    +0.007 C 
ATOM     14  C   UNL     1      -5.163 -10.337  18.198  0.00  0.00    +0.009 C 
ATOM     15  C   UNL     1      -3.514 -10.840  14.168  0.00  0.00    +0.029 C 
ATOM     16  C   UNL     1      -7.478  -9.844  17.288  0.00  0.00    +0.076 C 
ATOM     17  C   UNL     1      -2.744 -11.415  15.358  0.00  0.00    +0.007 C 
ATOM     18  C   UNL     1      -6.660 -10.371  18.467  0.00  0.00    +0.023 C 
ATOM     19  C   UNL     1      -5.045 -12.571  17.029  0.00  0.00    +0.011 C 
ATOM     21  C   UNL     1      -7.932  -9.859  14.809  0.00  0.00    +0.010 C 
ENDROOT
BRANCH  16   5
ATOM      3  O   UNL     1      -9.477  -7.784  17.362  0.00  0.00    -0.270 OA
ATOM      5  N   UNL     1      -8.883 -10.014  17.592  0.00  0.00    -0.308 N 
ATOM     24  C   UNL     1      -9.771  -8.952  17.602  0.00  0.00    +0.247 C 
ATOM     32  H   UNL     1      -9.182 -10.933  17.901  0.00  0.00    +0.149 HD
BRANCH  24  25
ATOM      7  N   UNL     1     -12.755 -10.314  19.458  0.00  0.00    -0.243 NA
ATOM      8  N   UNL     1     -13.528  -9.202  17.464  0.00  0.00    -0.243 NA
ATOM     25  C   UNL     1     -11.175  -9.288  17.960  0.00  0.00    +0.073 A 
ATOM     27  C   UNL     1     -11.494  -9.992  19.103  0.00  0.00    +0.127 A 
ATOM     28  C   UNL     1     -12.243  -8.915  17.170  0.00  0.00    +0.127 A 
ATOM     30  C   UNL     1     -13.710  -9.894  18.605  0.00  0.00    +0.221 A 
ENDBRANCH  24  25
ENDBRANCH  16   5
BRANCH  12   1
ATOM      1  O   UNL     1      -5.627 -10.195  13.268  0.00  0.00    -0.391 OA
ATOM     33  H   UNL     1      -5.115  -9.374  13.169  0.00  0.00    +0.210 HD
ENDBRANCH  12   1
BRANCH  15  20
ATOM     20  C   UNL     1      -3.025 -11.502  12.874  0.00  0.00    +0.077 C 
ATOM     22  C   UNL     1      -1.861 -12.440  13.171  0.00  0.00    +0.017 C 
BRANCH  20  23
ATOM      2  O   UNL     1      -1.520  -9.912  11.839  0.00  0.00    -0.276 OA
ATOM      6  N   UNL     1      -3.665 -10.128  10.983  0.00  0.00    -0.313 N 
ATOM     23  C   UNL     1      -2.633 -10.433  11.858  0.00  0.00    +0.216 C 
ATOM     34  H   UNL     1      -4.537 -10.643  11.029  0.00  0.00    +0.149 HD
BRANCH   6  26
ATOM     26  C   UNL     1      -3.534  -9.142   9.934  0.00  0.00    +0.132 C 
BRANCH  26  29
ATOM     29  C   UNL     1      -4.863  -8.484   9.617  0.00  0.00    +0.178 C 
BRANCH  29   4
ATOM      4  O   UNL     1      -5.776  -8.724  10.681  0.00  0.00    -0.381 OA
ATOM     31  C   UNL     1      -7.104  -8.884  10.203  0.00  0.00    +0.194 C 
ENDBRANCH  29   4
ENDBRANCH  26  29
ENDBRANCH   6  26
ENDBRANCH  20  23
ENDBRANCH  15  20
TORSDOF 8
ENDMDL
MODEL 3
REMARK VINA RESULT:      -6.3     29.316     32.808
REMARK  Name = 45361633
REMARK  12 active torsions:
REMARK  status: ('A' for Active; 'I' for Inactive)
REMARK    1  A    between atoms: O_1  and  C_12
REMARK    2  A    between atoms: O_4  and  C_29
REMARK    3  A    between atoms: O_4  and  C_31
REMARK    4  A    between atoms: N_5  and  C_16
REMARK    5  A    between atoms: N_6  and  C_26
REMARK    6  A    between atoms: C_9  and  C_19
REMARK    7  A    between atoms: C_11  and  C_21
REMARK    8  A    between atoms: C_15  and  C_20
REMARK    9  A    between atoms: C_20  and  C_22
REMARK   10  A    between atoms: C_20  and  C_23
REMARK   11  A    between atoms: C_24  and  C_25
REMARK   12  A    between atoms: C_26  and  C_29
REMARK                            x       y       z     vdW  Elec       q    Type
REMARK                         _______ _______ _______ _____ _____    ______ ____
ROOT
ATOM      9  C   UNL     1      18.107   8.464  21.428  0.00  0.00    -0.027 C 
ATOM     10  C   UNL     1      17.728   7.095  20.770  0.00  0.00    +0.028 C 
ATOM     11  C   UNL     1      19.008   6.361  20.231  0.00  0.00    +0.012 C 
ATOM     12  C   UNL     1      16.571   7.264  19.744  0.00  0.00    +0.122 C 
ATOM     13  C   UNL     1      16.844   9.106  22.047  0.00  0.00    +0.007 C 
ATOM     14  C   UNL     1      19.116   8.211  22.572  0.00  0.00    +0.009 C 
ATOM     15  C   UNL     1      15.350   8.001  20.340  0.00  0.00    +0.029 C 
ATOM     16  C   UNL     1      20.047   6.180  21.373  0.00  0.00    +0.076 C 
ATOM     17  C   UNL     1      15.723   9.310  21.037  0.00  0.00    +0.007 C 
ATOM     18  C   UNL     1      20.368   7.477  22.114  0.00  0.00    +0.023 C 
ATOM     19  C   UNL     1      18.725   9.460  20.413  0.00  0.00    +0.011 C 
ATOM     21  C   UNL     1      18.710   4.992  19.596  0.00  0.00    +0.010 C 
ENDROOT
BRANCH  16   5
ATOM      3  O   UNL     1      21.673   4.221  22.701  0.00  0.00    -0.270 OA
ATOM      5  N   UNL     1      21.285   5.610  20.886  0.00  0.00    -0.308 N 
ATOM     24  C   UNL     1      21.999   4.667  21.604  0.00  0.00    +0.247 C 
ATOM     32  H   UNL     1      21.671   6.004  20.034  0.00  0.00    +0.149 HD
BRANCH  24  25
ATOM      7  N   UNL     1      25.360   4.691  19.900  0.00  0.00    -0.243 NA
ATOM      8  N   UNL     1      24.717   2.404  20.305  0.00  0.00    -0.243 NA
ATOM     25  C   UNL     1      23.265   4.201  20.979  0.00  0.00    +0.073 A 
ATOM     27  C   UNL     1      24.202   5.078  20.474  0.00  0.00    +0.127 A 
ATOM     28  C   UNL     1      23.578   2.862  20.866  0.00  0.00    +0.127 A 
ATOM     30  C   UNL     1      25.550   3.358  19.849  0.00  0.00    +0.221 A 
ENDBRANCH  24  25
ENDBRANCH  16   5
BRANCH  12   1
ATOM      1  O   UNL     1      16.111   5.978  19.329  0.00  0.00    -0.391 OA
ATOM     33  H   UNL     1      16.270   5.351  20.055  0.00  0.00    +0.210 HD
ENDBRANCH  12   1
BRANCH  15  20
ATOM     20  C   UNL     1      14.276   8.274  19.280  0.00  0.00    +0.077 C 
ATOM     22  C   UNL     1      13.937   9.759  19.245  0.00  0.00    +0.017 C 
BRANCH  20  23
ATOM      2  O   UNL     1      12.344   6.948  18.669  0.00  0.00    -0.276 OA
ATOM      6  N   UNL     1      12.800   7.271  20.920  0.00  0.00    -0.313 N 
ATOM     23  C   UNL     1      13.039   7.427  19.562  0.00  0.00    +0.216 C 
ATOM     34  H   UNL     1      13.454   7.652  21.597  0.00  0.00    +0.149 HD
BRANCH   6  26
ATOM     26  C   UNL     1      11.683   6.512  21.435  0.00  0.00    +0.132 C 
BRANCH  26  29
ATOM     29  C   UNL     1      10.494   7.404  21.739  0.00  0.00    +0.178 C 
BRANCH  29   4
ATOM      4  O   UNL     1      10.803   8.240  22.848  0.00  0.00    -0.381 OA
ATOM     31  C   UNL     1      10.637   9.615  22.526  0.00  0.00    +0.194 C 
ENDBRANCH  29   4
ENDBRANCH  26  29
ENDBRANCH   6  26
ENDBRANCH  20  23
ENDBRANCH  15  20
TORSDOF 8
ENDMDL
MODEL 4
REMARK VINA RESULT:      -6.3     27.677     31.086
REMARK  Name = 45361633
REMARK  12 active torsions:
REMARK  status: ('A' for Active; 'I' for Inactive)
REMARK    1  A    between atoms: O_1  and  C_12
REMARK    2  A    between atoms: O_4  and  C_29
REMARK    3  A    between atoms: O_4  and  C_31
REMARK    4  A    between atoms: N_5  and  C_16
REMARK    5  A    between atoms: N_6  and  C_26
REMARK    6  A    between atoms: C_9  and  C_19
REMARK    7  A    between atoms: C_11  and  C_21
REMARK    8  A    between atoms: C_15  and  C_20
REMARK    9  A    between atoms: C_20  and  C_22
REMARK   10  A    between atoms: C_20  and  C_23
REMARK   11  A    between atoms: C_24  and  C_25
REMARK   12  A    between atoms: C_26  and  C_29
REMARK                            x       y       z     vdW  Elec       q    Type
REMARK                         _______ _______ _______ _____ _____    ______ ____
ROOT
ATOM      9  C   UNL     1      15.441   7.261  19.447  0.00  0.00    -0.027 C 
ATOM     10  C   UNL     1      16.115   8.577  19.961  0.00  0.00    +0.028 C 
ATOM     11  C   UNL     1      17.123   8.270  21.126  0.00  0.00    +0.012 C 
ATOM     12  C   UNL     1      15.053   9.673  20.266  0.00  0.00    +0.122 C 
ATOM     13  C   UNL     1      14.543   7.583  18.229  0.00  0.00    +0.007 C 
ATOM     14  C   UNL     1      16.541   6.282  18.975  0.00  0.00    +0.009 C 
ATOM     15  C   UNL     1      14.092   9.916  19.080  0.00  0.00    +0.029 C 
ATOM     16  C   UNL     1      18.180   7.228  20.664  0.00  0.00    +0.076 C 
ATOM     17  C   UNL     1      13.477   8.626  18.535  0.00  0.00    +0.007 C 
ATOM     18  C   UNL     1      17.565   5.967  20.057  0.00  0.00    +0.023 C 
ATOM     19  C   UNL     1      14.577   6.573  20.534  0.00  0.00    +0.011 C 
ATOM     21  C   UNL     1      17.844   9.519  21.661  0.00  0.00    +0.010 C 
ENDROOT
BRANCH  16   5
ATOM      3  O   UNL     1      20.993   6.683  20.485  0.00  0.00    -0.270 OA
ATOM      5  N   UNL     1      19.054   6.834  21.749  0.00  0.00    -0.308 N 
ATOM     24  C   UNL     1      20.404   6.594  21.560  0.00  0.00    +0.247 C 
ATOM     32  H   UNL     1      18.621   6.641  22.645  0.00  0.00    +0.149 HD
BRANCH  24  25
ATOM      7  N   UNL     1      21.916   6.610  25.011  0.00  0.00    -0.243 NA
ATOM      8  N   UNL     1      22.526   4.554  23.912  0.00  0.00    -0.243 NA
ATOM     25  C   UNL     1      21.161   6.172  22.768  0.00  0.00    +0.073 A 
ATOM     27  C   UNL     1      21.239   6.960  23.898  0.00  0.00    +0.127 A 
ATOM     28  C   UNL     1      21.830   4.968  22.833  0.00  0.00    +0.127 A 
ATOM     30  C   UNL     1      22.527   5.411  24.951  0.00  0.00    +0.221 A 
ENDBRANCH  24  25
ENDBRANCH  16   5
BRANCH  12   1
ATOM      1  O   UNL     1      15.710  10.914  20.522  0.00  0.00    -0.391 OA
ATOM     33  H   UNL     1      16.604  10.721  20.852  0.00  0.00    +0.210 HD
ENDBRANCH  12   1
BRANCH  15  20
ATOM     20  C   UNL     1      12.975  10.901  19.445  0.00  0.00    +0.077 C 
ATOM     22  C   UNL     1      13.425  12.331  19.169  0.00  0.00    +0.017 C 
BRANCH  20  23
ATOM      2  O   UNL     1      13.076  11.368  21.819  0.00  0.00    -0.276 OA
ATOM      6  N   UNL     1      11.601   9.743  21.070  0.00  0.00    -0.313 N 
ATOM     23  C   UNL     1      12.575  10.716  20.906  0.00  0.00    +0.216 C 
ATOM     34  H   UNL     1      11.197   9.287  20.258  0.00  0.00    +0.149 HD
BRANCH   6  26
ATOM     26  C   UNL     1      11.063   9.386  22.363  0.00  0.00    +0.132 C 
BRANCH  26  29
ATOM     29  C   UNL     1      10.533   7.965  22.376  0.00  0.00    +0.178 C 
BRANCH  29   4
ATOM      4  O   UNL     1      11.081   7.246  21.278  0.00  0.00    -0.381 OA
ATOM     31  C   UNL     1      11.159   5.854  21.552  0.00  0.00    +0.194 C 
ENDBRANCH  29   4
ENDBRANCH  26  29
ENDBRANCH   6  26
ENDBRANCH  20  23
ENDBRANCH  15  20
TORSDOF 8
ENDMDL
MODEL 5
REMARK VINA RESULT:      -6.3     30.635     33.723
REMARK  Name = 45361633
REMARK  12 active torsions:
REMARK  status: ('A' for Active; 'I' for Inactive)
REMARK    1  A    between atoms: O_1  and  C_12
REMARK    2  A    between atoms: O_4  and  C_29
REMARK    3  A    between atoms: O_4  and  C_31
REMARK    4  A    between atoms: N_5  and  C_16
REMARK    5  A    between atoms: N_6  and  C_26
REMARK    6  A    between atoms: C_9  and  C_19
REMARK    7  A    between atoms: C_11  and  C_21
REMARK    8  A    between atoms: C_15  and  C_20
REMARK    9  A    between atoms: C_20  and  C_22
REMARK   10  A    between atoms: C_20  and  C_23
REMARK   11  A    between atoms: C_24  and  C_25
REMARK   12  A    between atoms: C_26  and  C_29
REMARK                            x       y       z     vdW  Elec       q    Type
REMARK                         _______ _______ _______ _____ _____    ______ ____
ROOT
ATOM      9  C   UNL     1      19.956   8.160  21.691  0.00  0.00    -0.027 C 
ATOM     10  C   UNL     1      19.402   7.079  20.703  0.00  0.00    +0.028 C 
ATOM     11  C   UNL     1      17.846   6.926  20.859  0.00  0.00    +0.012 C 
ATOM     12  C   UNL     1      20.217   5.758  20.798  0.00  0.00    +0.122 C 
ATOM     13  C   UNL     1      21.467   8.367  21.434  0.00  0.00    +0.007 C 
ATOM     14  C   UNL     1      19.243   9.505  21.418  0.00  0.00    +0.009 C 
ATOM     15  C   UNL     1      21.738   5.985  20.645  0.00  0.00    +0.029 C 
ATOM     16  C   UNL     1      17.146   8.300  20.657  0.00  0.00    +0.076 C 
ATOM     17  C   UNL     1      22.274   7.082  21.565  0.00  0.00    +0.007 C 
ATOM     18  C   UNL     1      17.728   9.412  21.528  0.00  0.00    +0.023 C 
ATOM     19  C   UNL     1      19.753   7.767  23.176  0.00  0.00    +0.011 C 
ATOM     21  C   UNL     1      17.230   5.898  19.895  0.00  0.00    +0.010 C 
ENDROOT
BRANCH  16   5
ATOM      3  O   UNL     1      15.048   8.507  18.708  0.00  0.00    -0.270 OA
ATOM      5  N   UNL     1      15.723   8.218  20.907  0.00  0.00    -0.308 N 
ATOM     24  C   UNL     1      14.786   8.330  19.894  0.00  0.00    +0.247 C 
ATOM     32  H   UNL     1      15.426   8.175  21.876  0.00  0.00    +0.149 HD
BRANCH  24  25
ATOM      7  N   UNL     1      11.022   8.222  19.763  0.00  0.00    -0.243 NA
ATOM      8  N   UNL     1      11.718   8.061  22.065  0.00  0.00    -0.243 NA
ATOM     25  C   UNL     1      13.364   8.252  20.319  0.00  0.00    +0.073 A 
ATOM     27  C   UNL     1      12.323   8.291  19.414  0.00  0.00    +0.127 A 
ATOM     28  C   UNL     1      12.998   8.135  21.644  0.00  0.00    +0.127 A 
ATOM     30  C   UNL     1      10.795   8.110  21.086  0.00  0.00    +0.221 A 
ENDBRANCH  24  25
ENDBRANCH  16   5
BRANCH  12   1
ATOM      1  O   UNL     1      19.826   4.880  19.742  0.00  0.00    -0.391 OA
ATOM     33  H   UNL     1      18.976   4.476  19.984  0.00  0.00    +0.210 HD
ENDBRANCH  12   1
BRANCH  15  20
ATOM     20  C   UNL     1      22.533   4.693  20.872  0.00  0.00    +0.077 C 
ATOM     22  C   UNL     1      22.620   4.385  22.362  0.00  0.00    +0.017 C 
BRANCH  20  23
ATOM      2  O   UNL     1      24.545   5.876  20.227  0.00  0.00    -0.276 OA
ATOM      6  N   UNL     1      24.373   3.620  19.717  0.00  0.00    -0.313 N 
ATOM     23  C   UNL     1      23.919   4.818  20.248  0.00  0.00    +0.216 C 
ATOM     34  H   UNL     1      23.820   2.776  19.824  0.00  0.00    +0.149 HD
BRANCH   6  26
ATOM     26  C   UNL     1      25.658   3.489  19.069  0.00  0.00    +0.132 C 
BRANCH  26  29
ATOM     29  C   UNL     1      26.756   3.164  20.065  0.00  0.00    +0.178 C 
BRANCH  29   4
ATOM      4  O   UNL     1      26.201   2.450  21.163  0.00  0.00    -0.381 OA
ATOM     31  C   UNL     1      26.615   3.001  22.406  0.00  0.00    +0.194 C 
ENDBRANCH  29   4
ENDBRANCH  26  29
ENDBRANCH   6  26
ENDBRANCH  20  23
ENDBRANCH  15  20
TORSDOF 8
ENDMDL
MODEL 6
REMARK VINA RESULT:      -6.2     25.649     30.003
REMARK  Name = 45361633
REMARK  12 active torsions:
REMARK  status: ('A' for Active; 'I' for Inactive)
REMARK    1  A    between atoms: O_1  and  C_12
REMARK    2  A    between atoms: O_4  and  C_29
REMARK    3  A    between atoms: O_4  and  C_31
REMARK    4  A    between atoms: N_5  and  C_16
REMARK    5  A    between atoms: N_6  and  C_26
REMARK    6  A    between atoms: C_9  and  C_19
REMARK    7  A    between atoms: C_11  and  C_21
REMARK    8  A    between atoms: C_15  and  C_20
REMARK    9  A    between atoms: C_20  and  C_22
REMARK   10  A    between atoms: C_20  and  C_23
REMARK   11  A    between atoms: C_24  and  C_25
REMARK   12  A    between atoms: C_26  and  C_29
REMARK                            x       y       z     vdW  Elec       q    Type
REMARK                         _______ _______ _______ _____ _____    ______ ____
ROOT
ATOM      9  C   UNL     1      12.542   9.017  17.828  0.00  0.00    -0.027 C 
ATOM     10  C   UNL     1      13.132  10.310  18.484  0.00  0.00    +0.028 C 
ATOM     11  C   UNL     1      14.504  10.695  17.822  0.00  0.00    +0.012 C 
ATOM     12  C   UNL     1      13.145  10.199  20.036  0.00  0.00    +0.122 C 
ATOM     13  C   UNL     1      11.143   8.730  18.422  0.00  0.00    +0.007 C 
ATOM     14  C   UNL     1      12.370   9.255  16.310  0.00  0.00    +0.009 C 
ATOM     15  C   UNL     1      11.766   9.809  20.616  0.00  0.00    +0.029 C 
ATOM     16  C   UNL     1      14.335  10.858  16.286  0.00  0.00    +0.076 C 
ATOM     17  C   UNL     1      11.158   8.582  19.937  0.00  0.00    +0.007 C 
ATOM     18  C   UNL     1      13.664   9.659  15.618  0.00  0.00    +0.023 C 
ATOM     19  C   UNL     1      13.441   7.774  18.051  0.00  0.00    +0.011 C 
ATOM     21  C   UNL     1      15.128  11.976  18.402  0.00  0.00    +0.010 C 
ENDROOT
BRANCH  16   5
ATOM      3  O   UNL     1      14.802  12.593  14.046  0.00  0.00    -0.270 OA
ATOM      5  N   UNL     1      15.602  11.099  15.629  0.00  0.00    -0.308 N 
ATOM     24  C   UNL     1      15.725  11.959  14.551  0.00  0.00    +0.247 C 
ATOM     32  H   UNL     1      16.391  10.534  15.925  0.00  0.00    +0.149 HD
BRANCH  24  25
ATOM      7  N   UNL     1      18.529  12.668  12.136  0.00  0.00    -0.243 NA
ATOM      8  N   UNL     1      19.472  11.820  14.185  0.00  0.00    -0.243 NA
ATOM     25  C   UNL     1      17.089  12.078  13.972  0.00  0.00    +0.073 A 
ATOM     27  C   UNL     1      17.306  12.547  12.693  0.00  0.00    +0.127 A 
ATOM     28  C   UNL     1      18.220  11.725  14.679  0.00  0.00    +0.127 A 
ATOM     30  C   UNL     1      19.553  12.292  12.927  0.00  0.00    +0.221 A 
ENDBRANCH  24  25
ENDBRANCH  16   5
BRANCH  12   1
ATOM      1  O   UNL     1      13.484  11.466  20.601  0.00  0.00    -0.391 OA
ATOM     33  H   UNL     1      13.722  11.327  21.533  0.00  0.00    +0.210 HD
ENDBRANCH  12   1
BRANCH  15  20
ATOM     20  C   UNL     1      11.831   9.577  22.130  0.00  0.00    +0.077 C 
ATOM     22  C   UNL     1      11.012   8.349  22.509  0.00  0.00    +0.017 C 
BRANCH  20  23
ATOM      2  O   UNL     1      10.926  11.819  22.285  0.00  0.00    -0.276 OA
ATOM      6  N   UNL     1      11.429  10.688  24.246  0.00  0.00    -0.313 N 
ATOM     23  C   UNL     1      11.343  10.820  22.868  0.00  0.00    +0.216 C 
ATOM     34  H   UNL     1      11.733   9.810  24.653  0.00  0.00    +0.149 HD
BRANCH   6  26
ATOM     26  C   UNL     1      11.029  11.735  25.158  0.00  0.00    +0.132 C 
BRANCH  26  29
ATOM     29  C   UNL     1      12.170  12.694  25.444  0.00  0.00    +0.178 C 
BRANCH  29   4
ATOM      4  O   UNL     1      13.285  11.966  25.943  0.00  0.00    -0.381 OA
ATOM     31  C   UNL     1      14.176  12.807  26.663  0.00  0.00    +0.194 C 
ENDBRANCH  29   4
ENDBRANCH  26  29
ENDBRANCH   6  26
ENDBRANCH  20  23
ENDBRANCH  15  20
TORSDOF 8
ENDMDL
MODEL 7
REMARK VINA RESULT:      -6.2     31.176     34.230
REMARK  Name = 45361633
REMARK  12 active torsions:
REMARK  status: ('A' for Active; 'I' for Inactive)
REMARK    1  A    between atoms: O_1  and  C_12
REMARK    2  A    between atoms: O_4  and  C_29
REMARK    3  A    between atoms: O_4  and  C_31
REMARK    4  A    between atoms: N_5  and  C_16
REMARK    5  A    between atoms: N_6  and  C_26
REMARK    6  A    between atoms: C_9  and  C_19
REMARK    7  A    between atoms: C_11  and  C_21
REMARK    8  A    between atoms: C_15  and  C_20
REMARK    9  A    between atoms: C_20  and  C_22
REMARK   10  A    between atoms: C_20  and  C_23
REMARK   11  A    between atoms: C_24  and  C_25
REMARK   12  A    between atoms: C_26  and  C_29
REMARK                            x       y       z     vdW  Elec       q    Type
REMARK                         _______ _______ _______ _____ _____    ______ ____
ROOT
ATOM      9  C   UNL     1      20.572   7.657  22.076  0.00  0.00    -0.027 C 
ATOM     10  C   UNL     1      20.269   6.668  20.901  0.00  0.00    +0.028 C 
ATOM     11  C   UNL     1      18.743   6.294  20.865  0.00  0.00    +0.012 C 
ATOM     12  C   UNL     1      21.252   5.463  20.911  0.00  0.00    +0.122 C 
ATOM     13  C   UNL     1      22.054   8.092  22.014  0.00  0.00    +0.007 C 
ATOM     14  C   UNL     1      19.701   8.924  21.904  0.00  0.00    +0.009 C 
ATOM     15  C   UNL     1      22.733   5.905  20.956  0.00  0.00    +0.029 C 
ATOM     16  C   UNL     1      17.875   7.581  20.768  0.00  0.00    +0.076 C 
ATOM     17  C   UNL     1      23.021   6.917  22.064  0.00  0.00    +0.007 C 
ATOM     18  C   UNL     1      18.211   8.622  21.835  0.00  0.00    +0.023 C 
ATOM     19  C   UNL     1      20.293   7.031  23.466  0.00  0.00    +0.011 C 
ATOM     21  C   UNL     1      18.370   5.345  19.714  0.00  0.00    +0.010 C 
ENDROOT
BRANCH  16   5
ATOM      3  O   UNL     1      15.726   9.142  19.677  0.00  0.00    -0.270 OA
ATOM      5  N   UNL     1      16.461   7.281  20.849  0.00  0.00    -0.308 N 
ATOM     24  C   UNL     1      15.498   8.101  20.287  0.00  0.00    +0.247 C 
ATOM     32  H   UNL     1      16.189   6.491  21.425  0.00  0.00    +0.149 HD
BRANCH  24  25
ATOM      7  N   UNL     1      12.118   7.542  21.856  0.00  0.00    -0.243 NA
ATOM      8  N   UNL     1      12.112   6.578  19.647  0.00  0.00    -0.243 NA
ATOM     25  C   UNL     1      14.089   7.668  20.481  0.00  0.00    +0.073 A 
ATOM     27  C   UNL     1      13.396   7.920  21.646  0.00  0.00    +0.127 A 
ATOM     28  C   UNL     1      13.390   6.986  19.506  0.00  0.00    +0.127 A 
ATOM     30  C   UNL     1      11.545   6.885  20.829  0.00  0.00    +0.221 A 
ENDBRANCH  24  25
ENDBRANCH  16   5
BRANCH  12   1
ATOM      1  O   UNL     1      21.088   4.703  19.714  0.00  0.00    -0.391 OA
ATOM     33  H   UNL     1      21.923   4.240  19.532  0.00  0.00    +0.210 HD
ENDBRANCH  12   1
BRANCH  15  20
ATOM     20  C   UNL     1      23.680   4.707  21.098  0.00  0.00    +0.077 C 
ATOM     22  C   UNL     1      24.362   4.734  22.461  0.00  0.00    +0.017 C 
BRANCH  20  23
ATOM      2  O   UNL     1      24.829   3.778  19.179  0.00  0.00    -0.276 OA
ATOM      6  N   UNL     1      25.454   5.880  19.935  0.00  0.00    -0.313 N 
ATOM     23  C   UNL     1      24.702   4.714  19.965  0.00  0.00    +0.216 C 
ATOM     34  H   UNL     1      25.250   6.631  20.585  0.00  0.00    +0.149 HD
BRANCH   6  26
ATOM     26  C   UNL     1      26.488   6.117  18.954  0.00  0.00    +0.132 C 
BRANCH  26  29
ATOM     29  C   UNL     1      26.457   7.546  18.444  0.00  0.00    +0.178 C 
BRANCH  29   4
ATOM      4  O   UNL     1      25.616   8.329  19.282  0.00  0.00    -0.381 OA
ATOM     31  C   UNL     1      24.793   9.204  18.524  0.00  0.00    +0.194 C 
ENDBRANCH  29   4
ENDBRANCH  26  29
ENDBRANCH   6  26
ENDBRANCH  20  23
ENDBRANCH  15  20
TORSDOF 8
ENDMDL
MODEL 8
REMARK VINA RESULT:      -6.1     27.394     30.894
REMARK  Name = 45361633
REMARK  12 active torsions:
REMARK  status: ('A' for Active; 'I' for Inactive)
REMARK    1  A    between atoms: O_1  and  C_12
REMARK    2  A    between atoms: O_4  and  C_29
REMARK    3  A    between atoms: O_4  and  C_31
REMARK    4  A    between atoms: N_5  and  C_16
REMARK    5  A    between atoms: N_6  and  C_26
REMARK    6  A    between atoms: C_9  and  C_19
REMARK    7  A    between atoms: C_11  and  C_21
REMARK    8  A    between atoms: C_15  and  C_20
REMARK    9  A    between atoms: C_20  and  C_22
REMARK   10  A    between atoms: C_20  and  C_23
REMARK   11  A    between atoms: C_24  and  C_25
REMARK   12  A    between atoms: C_26  and  C_29
REMARK                            x       y       z     vdW  Elec       q    Type
REMARK                         _______ _______ _______ _____ _____    ______ ____
ROOT
ATOM      9  C   UNL     1      15.591  10.304  21.012  0.00  0.00    -0.027 C 
ATOM     10  C   UNL     1      15.350   8.853  21.548  0.00  0.00    +0.028 C 
ATOM     11  C   UNL     1      16.540   7.907  21.151  0.00  0.00    +0.012 C 
ATOM     12  C   UNL     1      13.932   8.340  21.168  0.00  0.00    +0.122 C 
ATOM     13  C   UNL     1      14.462  11.234  21.515  0.00  0.00    +0.007 C 
ATOM     14  C   UNL     1      16.928  10.836  21.581  0.00  0.00    +0.009 C 
ATOM     15  C   UNL     1      12.814   9.325  21.580  0.00  0.00    +0.029 C 
ATOM     16  C   UNL     1      17.887   8.490  21.663  0.00  0.00    +0.076 C 
ATOM     17  C   UNL     1      13.074  10.756  21.110  0.00  0.00    +0.007 C 
ATOM     18  C   UNL     1      18.116   9.943  21.251  0.00  0.00    +0.023 C 
ATOM     19  C   UNL     1      15.635  10.366  19.464  0.00  0.00    +0.011 C 
ATOM     21  C   UNL     1      16.381   6.468  21.672  0.00  0.00    +0.010 C 
ENDROOT
BRANCH  16   5
ATOM      3  O   UNL     1      20.004   7.445  23.298  0.00  0.00    -0.270 OA
ATOM      5  N   UNL     1      19.017   7.703  21.216  0.00  0.00    -0.308 N 
ATOM     24  C   UNL     1      19.990   7.243  22.086  0.00  0.00    +0.247 C 
ATOM     32  H   UNL     1      19.128   7.581  20.215  0.00  0.00    +0.149 HD
BRANCH  24  25
ATOM      7  N   UNL     1      21.968   4.399  20.606  0.00  0.00    -0.243 NA
ATOM      8  N   UNL     1      23.338   6.381  20.591  0.00  0.00    -0.243 NA
ATOM     25  C   UNL     1      21.099   6.472  21.467  0.00  0.00    +0.073 A 
ATOM     27  C   UNL     1      20.983   5.130  21.168  0.00  0.00    +0.127 A 
ATOM     28  C   UNL     1      22.311   7.051  21.153  0.00  0.00    +0.127 A 
ATOM     30  C   UNL     1      23.102   5.078  20.348  0.00  0.00    +0.221 A 
ENDBRANCH  24  25
ENDBRANCH  16   5
BRANCH  12   1
ATOM      1  O   UNL     1      13.670   7.114  21.850  0.00  0.00    -0.391 OA
ATOM     33  H   UNL     1      12.800   7.186  22.278  0.00  0.00    +0.210 HD
ENDBRANCH  12   1
BRANCH  15  20
ATOM     20  C   UNL     1      11.438   8.865  21.081  0.00  0.00    +0.077 C 
ATOM     22  C   UNL     1      10.704   8.111  22.184  0.00  0.00    +0.017 C 
BRANCH  20  23
ATOM      2  O   UNL     1      11.657   6.777  19.873  0.00  0.00    -0.276 OA
ATOM      6  N   UNL     1      11.672   8.761  18.671  0.00  0.00    -0.313 N 
ATOM     23  C   UNL     1      11.599   8.004  19.831  0.00  0.00    +0.216 C 
ATOM     34  H   UNL     1      11.560   9.768  18.715  0.00  0.00    +0.149 HD
BRANCH   6  26
ATOM     26  C   UNL     1      11.829   8.170  17.362  0.00  0.00    +0.132 C 
BRANCH  26  29
ATOM     29  C   UNL     1      11.732   9.212  16.263  0.00  0.00    +0.178 C 
BRANCH  29   4
ATOM      4  O   UNL     1      12.708   8.939  15.266  0.00  0.00    -0.381 OA
ATOM     31  C   UNL     1      14.016   8.879  15.819  0.00  0.00    +0.194 C 
ENDBRANCH  29   4
ENDBRANCH  26  29
ENDBRANCH   6  26
ENDBRANCH  20  23
ENDBRANCH  15  20
TORSDOF 8
ENDMDL
MODEL 9
REMARK VINA RESULT:      -6.1     26.593     29.806
REMARK  Name = 45361633
REMARK  12 active torsions:
REMARK  status: ('A' for Active; 'I' for Inactive)
REMARK    1  A    between atoms: O_1  and  C_12
REMARK    2  A    between atoms: O_4  and  C_29
REMARK    3  A    between atoms: O_4  and  C_31
REMARK    4  A    between atoms: N_5  and  C_16
REMARK    5  A    between atoms: N_6  and  C_26
REMARK    6  A    between atoms: C_9  and  C_19
REMARK    7  A    between atoms: C_11  and  C_21
REMARK    8  A    between atoms: C_15  and  C_20
REMARK    9  A    between atoms: C_20  and  C_22
REMARK   10  A    between atoms: C_20  and  C_23
REMARK   11  A    between atoms: C_24  and  C_25
REMARK   12  A    between atoms: C_26  and  C_29
REMARK                            x       y       z     vdW  Elec       q    Type
REMARK                         _______ _______ _______ _____ _____    ______ ____
ROOT
ATOM      9  C   UNL     1      13.618   8.024  20.810  0.00  0.00    -0.027 C 
ATOM     10  C   UNL     1      14.613   8.725  21.794  0.00  0.00    +0.028 C 
ATOM     11  C   UNL     1      14.099  10.159  22.179  0.00  0.00    +0.012 C 
ATOM     12  C   UNL     1      16.073   8.659  21.262  0.00  0.00    +0.122 C 
ATOM     13  C   UNL     1      14.094   6.577  20.541  0.00  0.00    +0.007 C 
ATOM     14  C   UNL     1      12.223   7.945  21.474  0.00  0.00    +0.009 C 
ATOM     15  C   UNL     1      16.507   7.222  20.895  0.00  0.00    +0.029 C 
ATOM     16  C   UNL     1      12.665  10.076  22.776  0.00  0.00    +0.076 C 
ATOM     17  C   UNL     1      15.508   6.510  19.982  0.00  0.00    +0.007 C 
ATOM     18  C   UNL     1      11.684   9.305  21.894  0.00  0.00    +0.023 C 
ATOM     19  C   UNL     1      13.497   8.768  19.456  0.00  0.00    +0.011 C 
ATOM     21  C   UNL     1      15.017  10.896  23.169  0.00  0.00    +0.010 C 
ENDROOT
BRANCH  16   5
ATOM      3  O   UNL     1      11.216  10.896  25.115  0.00  0.00    -0.270 OA
ATOM      5  N   UNL     1      12.115  11.389  23.035  0.00  0.00    -0.308 N 
ATOM     24  C   UNL     1      11.429  11.687  24.200  0.00  0.00    +0.247 C 
ATOM     32  H   UNL     1      12.163  12.067  22.282  0.00  0.00    +0.149 HD
BRANCH  24  25
ATOM      7  N   UNL     1      10.894  15.224  25.385  0.00  0.00    -0.243 NA
ATOM      8  N   UNL     1       9.438  14.811  23.510  0.00  0.00    -0.243 NA
ATOM     25  C   UNL     1      10.904  13.074  24.303  0.00  0.00    +0.073 A 
ATOM     27  C   UNL     1      11.349  13.959  25.263  0.00  0.00    +0.127 A 
ATOM     28  C   UNL     1       9.938  13.559  23.445  0.00  0.00    +0.127 A 
ATOM     30  C   UNL     1       9.953  15.578  24.489  0.00  0.00    +0.221 A 
ENDBRANCH  24  25
ENDBRANCH  16   5
BRANCH  12   1
ATOM      1  O   UNL     1      16.970   9.112  22.275  0.00  0.00    -0.391 OA
ATOM     33  H   UNL     1      16.601   9.922  22.666  0.00  0.00    +0.210 HD
ENDBRANCH  12   1
BRANCH  15  20
ATOM     20  C   UNL     1      17.899   7.194  20.251  0.00  0.00    +0.077 C 
ATOM     22  C   UNL     1      18.164   5.827  19.630  0.00  0.00    +0.017 C 
BRANCH  20  23
ATOM      2  O   UNL     1      19.606   8.593  21.246  0.00  0.00    -0.276 OA
ATOM      6  N   UNL     1      19.101   6.570  22.260  0.00  0.00    -0.313 N 
ATOM     23  C   UNL     1      18.959   7.549  21.289  0.00  0.00    +0.216 C 
ATOM     34  H   UNL     1      18.490   5.760  22.257  0.00  0.00    +0.149 HD
BRANCH   6  26
ATOM     26  C   UNL     1      20.047   6.679  23.347  0.00  0.00    +0.132 C 
BRANCH  26  29
ATOM     29  C   UNL     1      21.456   6.336  22.900  0.00  0.00    +0.178 C 
BRANCH  29   4
ATOM      4  O   UNL     1      21.815   5.057  23.409  0.00  0.00    -0.381 OA
ATOM     31  C   UNL     1      21.996   4.111  22.364  0.00  0.00    +0.194 C 
ENDBRANCH  29   4
ENDBRANCH  26  29
ENDBRANCH   6  26
ENDBRANCH  20  23
ENDBRANCH  15  20
TORSDOF 8
ENDMDL
MODEL 10
REMARK VINA RESULT:      -6.0     19.123     22.476
REMARK  Name = 45361633
REMARK  12 active torsions:
REMARK  status: ('A' for Active; 'I' for Inactive)
REMARK    1  A    between atoms: O_1  and  C_12
REMARK    2  A    between atoms: O_4  and  C_29
REMARK    3  A    between atoms: O_4  and  C_31
REMARK    4  A    between atoms: N_5  and  C_16
REMARK    5  A    between atoms: N_6  and  C_26
REMARK    6  A    between atoms: C_9  and  C_19
REMARK    7  A    between atoms: C_11  and  C_21
REMARK    8  A    between atoms: C_15  and  C_20
REMARK    9  A    between atoms: C_20  and  C_22
REMARK   10  A    between atoms: C_20  and  C_23
REMARK   11  A    between atoms: C_24  and  C_25
REMARK   12  A    between atoms: C_26  and  C_29
REMARK                            x       y       z     vdW  Elec       q    Type
REMARK                         _______ _______ _______ _____ _____    ______ ____
ROOT
ATOM      9  C   UNL     1      -3.231 -11.392  11.775  0.00  0.00    -0.027 C 
ATOM     10  C   UNL     1      -4.558 -10.871  12.422  0.00  0.00    +0.028 C 
ATOM     11  C   UNL     1      -5.323  -9.917  11.436  0.00  0.00    +0.012 C 
ATOM     12  C   UNL     1      -4.302 -10.296  13.845  0.00  0.00    +0.122 C 
ATOM     13  C   UNL     1      -2.561 -12.414  12.723  0.00  0.00    +0.007 C 
ATOM     14  C   UNL     1      -3.569 -12.126  10.455  0.00  0.00    +0.009 C 
ATOM     15  C   UNL     1      -3.538 -11.284  14.757  0.00  0.00    +0.029 C 
ATOM     16  C   UNL     1      -5.591 -10.640  10.086  0.00  0.00    +0.076 C 
ATOM     17  C   UNL     1      -2.273 -11.843  14.105  0.00  0.00    +0.007 C 
ATOM     18  C   UNL     1      -4.337 -11.258   9.469  0.00  0.00    +0.023 C 
ATOM     19  C   UNL     1      -2.225 -10.251  11.481  0.00  0.00    +0.011 C 
ATOM     21  C   UNL     1      -6.654  -9.390  12.000  0.00  0.00    +0.010 C 
ENDROOT
BRANCH  16   5
ATOM      3  O   UNL     1      -7.676 -11.298   8.225  0.00  0.00    -0.270 OA
ATOM      5  N   UNL     1      -6.192  -9.753   9.113  0.00  0.00    -0.308 N 
ATOM     24  C   UNL     1      -7.197 -10.167   8.256  0.00  0.00    +0.247 C 
ATOM     32  H   UNL     1      -5.779  -8.832   9.009  0.00  0.00    +0.149 HD
BRANCH  24  25
ATOM      7  N   UNL     1      -8.504  -6.922   6.857  0.00  0.00    -0.243 NA
ATOM      8  N   UNL     1      -8.263  -8.499   5.050  0.00  0.00    -0.243 NA
ATOM     25  C   UNL     1      -7.691  -9.144   7.297  0.00  0.00    +0.073 A 
ATOM     27  C   UNL     1      -8.052  -7.874   7.699  0.00  0.00    +0.127 A 
ATOM     28  C   UNL     1      -7.819  -9.403   5.948  0.00  0.00    +0.127 A 
ATOM     30  C   UNL     1      -8.583  -7.297   5.565  0.00  0.00    +0.221 A 
ENDBRANCH  24  25
ENDBRANCH  16   5
BRANCH  12   1
ATOM      1  O   UNL     1      -5.551 -10.032  14.484  0.00  0.00    -0.391 OA
ATOM     33  H   UNL     1      -6.249 -10.067  13.808  0.00  0.00    +0.210 HD
ENDBRANCH  12   1
BRANCH  15  20
ATOM     20  C   UNL     1      -3.181 -10.652  16.107  0.00  0.00    +0.077 C 
ATOM     22  C   UNL     1      -1.676 -10.720  16.339  0.00  0.00    +0.017 C 
BRANCH  20  23
ATOM      2  O   UNL     1      -3.518 -11.430  18.376  0.00  0.00    -0.276 OA
ATOM      6  N   UNL     1      -5.160 -11.869  16.797  0.00  0.00    -0.313 N 
ATOM     23  C   UNL     1      -3.948 -11.349  17.227  0.00  0.00    +0.216 C 
ATOM     34  H   UNL     1      -5.470 -11.712  15.844  0.00  0.00    +0.149 HD
BRANCH   6  26
ATOM     26  C   UNL     1      -6.062 -12.577  17.676  0.00  0.00    +0.132 C 
BRANCH  26  29
ATOM     29  C   UNL     1      -7.367 -11.826  17.861  0.00  0.00    +0.178 C 
BRANCH  29   4
ATOM      4  O   UNL     1      -7.467 -10.803  16.878  0.00  0.00    -0.381 OA
ATOM     31  C   UNL     1      -7.780  -9.547  17.463  0.00  0.00    +0.194 C 
ENDBRANCH  29   4
ENDBRANCH  26  29
ENDBRANCH   6  26
ENDBRANCH  20  23
ENDBRANCH  15  20
TORSDOF 8
ENDMDL
