MODEL 1
REMARK VINA RESULT:      -6.3      0.000      0.000
REMARK  Name = 51137771
REMARK  5 active torsions:
REMARK  status: ('A' for Active; 'I' for Inactive)
REMARK    1  A    between atoms: C_6  and  C_10
REMARK    2  A    between atoms: C_11  and  C_12
REMARK    3  A    between atoms: C_13  and  C_14
REMARK    4  A    between atoms: C_14  and  C_15
REMARK    5  A    between atoms: C_15  and  C_18
REMARK                            x       y       z     vdW  Elec       q    Type
REMARK                         _______ _______ _______ _____ _____    ______ ____
ROOT
ATOM      2  O   UNL     1      13.660  11.000  19.542  0.00  0.00    -0.270 OA
ATOM      3  N   UNL     1      13.863   8.747  20.066  0.00  0.00    -0.297 N 
ATOM      6  C   UNL     1      14.699   6.611  20.699  0.00  0.00    +0.095 C 
ATOM      7  C   UNL     1      14.744   7.561  21.905  0.00  0.00    +0.033 C 
ATOM      8  C   UNL     1      13.704   7.321  19.771  0.00  0.00    +0.121 C 
ATOM      9  C   UNL     1      14.632   8.947  21.284  0.00  0.00    +0.109 C 
ATOM     11  C   UNL     1      13.441   9.817  19.293  0.00  0.00    +0.247 C 
ENDROOT
BRANCH  11  12
ATOM     12  C   UNL     1      12.681   9.514  18.069  0.00  0.00    +0.037 A 
ATOM     16  C   UNL     1      13.184   9.891  16.824  0.00  0.00    +0.013 A 
ATOM     17  C   UNL     1      11.459   8.847  18.156  0.00  0.00    +0.013 A 
ATOM     19  C   UNL     1      12.464   9.602  15.664  0.00  0.00    +0.001 A 
ATOM     20  C   UNL     1      10.739   8.558  16.995  0.00  0.00    +0.001 A 
ATOM     21  C   UNL     1      11.242   8.935  15.751  0.00  0.00    +0.000 A 
ENDBRANCH  11  12
BRANCH   6  10
ATOM      1  O   UNL     1      17.141   6.690  20.928  0.00  0.00    -0.424 OA
ATOM      4  N   UNL     1      16.438   5.842  18.981  0.00  0.00    -0.112 NA
ATOM      5  N   UNL     1      17.821   5.828  18.978  0.00  0.00    -0.112 NA
ATOM     10  C   UNL     1      16.086   6.353  20.137  0.00  0.00    +0.222 A 
ATOM     13  C   UNL     1      18.188   6.331  20.134  0.00  0.00    +0.217 A 
BRANCH  13  14
ATOM     14  C   UNL     1      19.535   6.552  20.672  0.00  0.00    +0.097 C 
BRANCH  14  15
ATOM     15  C   UNL     1      19.608   6.386  22.205  0.00  0.00    +0.006 C 
ATOM     18  C   UNL     1      20.036   7.661  22.915  0.00  0.00    +0.004 C 
ENDBRANCH  14  15
ENDBRANCH  13  14
ENDBRANCH   6  10
TORSDOF 4
ENDMDL
MODEL 2
REMARK VINA RESULT:      -6.2      3.271      6.910
REMARK  Name = 51137771
REMARK  5 active torsions:
REMARK  status: ('A' for Active; 'I' for Inactive)
REMARK    1  A    between atoms: C_6  and  C_10
REMARK    2  A    between atoms: C_11  and  C_12
REMARK    3  A    between atoms: C_13  and  C_14
REMARK    4  A    between atoms: C_14  and  C_15
REMARK    5  A    between atoms: C_15  and  C_18
REMARK                            x       y       z     vdW  Elec       q    Type
REMARK                         _______ _______ _______ _____ _____    ______ ____
ROOT
ATOM      2  O   UNL     1      15.052   7.044  18.108  0.00  0.00    -0.270 OA
ATOM      3  N   UNL     1      13.939   7.157  20.142  0.00  0.00    -0.297 N 
ATOM      6  C   UNL     1      12.414   7.690  21.890  0.00  0.00    +0.095 C 
ATOM      7  C   UNL     1      11.689   6.886  20.800  0.00  0.00    +0.033 C 
ATOM      8  C   UNL     1      13.887   7.379  21.589  0.00  0.00    +0.121 C 
ATOM      9  C   UNL     1      12.602   7.006  19.588  0.00  0.00    +0.109 C 
ATOM     11  C   UNL     1      15.062   7.162  19.331  0.00  0.00    +0.247 C 
ENDROOT
BRANCH  11  12
ATOM     12  C   UNL     1      16.370   7.336  19.982  0.00  0.00    +0.037 A 
ATOM     16  C   UNL     1      16.693   8.551  20.586  0.00  0.00    +0.013 A 
ATOM     17  C   UNL     1      17.286   6.283  19.997  0.00  0.00    +0.013 A 
ATOM     19  C   UNL     1      17.933   8.714  21.204  0.00  0.00    +0.001 A 
ATOM     20  C   UNL     1      18.526   6.447  20.616  0.00  0.00    +0.001 A 
ATOM     21  C   UNL     1      18.849   7.662  21.219  0.00  0.00    +0.000 A 
ENDBRANCH  11  12
BRANCH   6  10
ATOM      1  O   UNL     1      11.350   9.625  22.960  0.00  0.00    -0.424 OA
ATOM      4  N   UNL     1      12.206  10.061  20.939  0.00  0.00    -0.112 NA
ATOM      5  N   UNL     1      11.642  11.227  21.425  0.00  0.00    -0.112 NA
ATOM     10  C   UNL     1      12.011   9.154  21.868  0.00  0.00    +0.222 A 
ATOM     13  C   UNL     1      11.156  10.926  22.607  0.00  0.00    +0.217 A 
BRANCH  13  14
ATOM     14  C   UNL     1      10.452  11.778  23.572  0.00  0.00    +0.097 C 
BRANCH  14  15
ATOM     15  C   UNL     1      11.259  12.019  24.866  0.00  0.00    +0.006 C 
ATOM     18  C   UNL     1      10.746  13.206  25.666  0.00  0.00    +0.004 C 
ENDBRANCH  14  15
ENDBRANCH  13  14
ENDBRANCH   6  10
TORSDOF 4
ENDMDL
MODEL 3
REMARK VINA RESULT:      -6.0      3.781      5.920
REMARK  Name = 51137771
REMARK  5 active torsions:
REMARK  status: ('A' for Active; 'I' for Inactive)
REMARK    1  A    between atoms: C_6  and  C_10
REMARK    2  A    between atoms: C_11  and  C_12
REMARK    3  A    between atoms: C_13  and  C_14
REMARK    4  A    between atoms: C_14  and  C_15
REMARK    5  A    between atoms: C_15  and  C_18
REMARK                            x       y       z     vdW  Elec       q    Type
REMARK                         _______ _______ _______ _____ _____    ______ ____
ROOT
ATOM      2  O   UNL     1      14.113  10.425  23.048  0.00  0.00    -0.270 OA
ATOM      3  N   UNL     1      12.564   9.215  21.811  0.00  0.00    -0.297 N 
ATOM      6  C   UNL     1      11.508   7.852  20.171  0.00  0.00    +0.095 C 
ATOM      7  C   UNL     1      12.476   6.999  21.005  0.00  0.00    +0.033 C 
ATOM      8  C   UNL     1      11.307   9.079  21.072  0.00  0.00    +0.121 C 
ATOM      9  C   UNL     1      13.386   8.024  21.670  0.00  0.00    +0.109 C 
ATOM     11  C   UNL     1      13.016  10.328  22.503  0.00  0.00    +0.247 C 
ENDROOT
BRANCH  11  12
ATOM     12  C   UNL     1      12.118  11.492  22.578  0.00  0.00    +0.037 A 
ATOM     16  C   UNL     1      11.360  11.714  23.727  0.00  0.00    +0.013 A 
ATOM     17  C   UNL     1      12.028  12.373  21.501  0.00  0.00    +0.013 A 
ATOM     19  C   UNL     1      10.510  12.818  23.799  0.00  0.00    +0.001 A 
ATOM     20  C   UNL     1      11.178  13.478  21.572  0.00  0.00    +0.001 A 
ATOM     21  C   UNL     1      10.420  13.700  22.721  0.00  0.00    +0.000 A 
ENDBRANCH  11  12
BRANCH   6  10
ATOM      1  O   UNL     1      12.662   9.312  18.573  0.00  0.00    -0.424 OA
ATOM      4  N   UNL     1      12.022   7.349  17.711  0.00  0.00    -0.112 NA
ATOM      5  N   UNL     1      12.654   8.068  16.713  0.00  0.00    -0.112 NA
ATOM     10  C   UNL     1      12.050   8.114  18.777  0.00  0.00    +0.222 A 
ATOM     13  C   UNL     1      13.012   9.206  17.261  0.00  0.00    +0.217 A 
BRANCH  13  14
ATOM     14  C   UNL     1      13.720  10.347  16.668  0.00  0.00    +0.097 C 
BRANCH  14  15
ATOM     15  C   UNL     1      14.532  11.157  17.701  0.00  0.00    +0.006 C 
ATOM     18  C   UNL     1      13.927  12.523  17.986  0.00  0.00    +0.004 C 
ENDBRANCH  14  15
ENDBRANCH  13  14
ENDBRANCH   6  10
TORSDOF 4
ENDMDL
MODEL 4
REMARK VINA RESULT:      -5.8     26.435     27.966
REMARK  Name = 51137771
REMARK  5 active torsions:
REMARK  status: ('A' for Active; 'I' for Inactive)
REMARK    1  A    between atoms: C_6  and  C_10
REMARK    2  A    between atoms: C_11  and  C_12
REMARK    3  A    between atoms: C_13  and  C_14
REMARK    4  A    between atoms: C_14  and  C_15
REMARK    5  A    between atoms: C_15  and  C_18
REMARK                            x       y       z     vdW  Elec       q    Type
REMARK                         _______ _______ _______ _____ _____    ______ ____
ROOT
ATOM      2  O   UNL     1      -1.729 -10.392  16.282  0.00  0.00    -0.270 OA
ATOM      3  N   UNL     1      -2.641 -12.028  14.910  0.00  0.00    -0.297 N 
ATOM      6  C   UNL     1      -3.234 -13.379  13.043  0.00  0.00    +0.095 C 
ATOM      7  C   UNL     1      -1.741 -13.558  13.356  0.00  0.00    +0.033 C 
ATOM      8  C   UNL     1      -3.766 -12.784  14.354  0.00  0.00    +0.121 C 
ATOM      9  C   UNL     1      -1.402 -12.352  14.222  0.00  0.00    +0.109 C 
ATOM     11  C   UNL     1      -2.688 -11.056  15.897  0.00  0.00    +0.247 C 
ENDROOT
BRANCH  11  12
ATOM     12  C   UNL     1      -3.992 -10.787  16.525  0.00  0.00    +0.037 A 
ATOM     16  C   UNL     1      -4.283 -11.315  17.782  0.00  0.00    +0.013 A 
ATOM     17  C   UNL     1      -4.935 -10.002  15.862  0.00  0.00    +0.013 A 
ATOM     19  C   UNL     1      -5.519 -11.059  18.377  0.00  0.00    +0.001 A 
ATOM     20  C   UNL     1      -6.171  -9.746  16.457  0.00  0.00    +0.001 A 
ATOM     21  C   UNL     1      -6.462 -10.274  17.714  0.00  0.00    +0.000 A 
ENDBRANCH  11  12
BRANCH   6  10
ATOM      1  O   UNL     1      -3.115 -11.235  11.855  0.00  0.00    -0.424 OA
ATOM      4  N   UNL     1      -3.914 -12.917  10.615  0.00  0.00    -0.112 NA
ATOM      5  N   UNL     1      -3.900 -11.778   9.831  0.00  0.00    -0.112 NA
ATOM     10  C   UNL     1      -3.448 -12.553  11.787  0.00  0.00    +0.222 A 
ATOM     13  C   UNL     1      -3.426 -10.822  10.596  0.00  0.00    +0.217 A 
BRANCH  13  14
ATOM     14  C   UNL     1      -3.190  -9.407  10.285  0.00  0.00    +0.097 C 
BRANCH  14  15
ATOM     15  C   UNL     1      -4.492  -8.622  10.017  0.00  0.00    +0.006 C 
ATOM     18  C   UNL     1      -5.488  -8.727  11.161  0.00  0.00    +0.004 C 
ENDBRANCH  14  15
ENDBRANCH  13  14
ENDBRANCH   6  10
TORSDOF 4
ENDMDL
MODEL 5
REMARK VINA RESULT:      -5.8     31.086     32.941
REMARK  Name = 51137771
REMARK  5 active torsions:
REMARK  status: ('A' for Active; 'I' for Inactive)
REMARK    1  A    between atoms: C_6  and  C_10
REMARK    2  A    between atoms: C_11  and  C_12
REMARK    3  A    between atoms: C_13  and  C_14
REMARK    4  A    between atoms: C_14  and  C_15
REMARK    5  A    between atoms: C_15  and  C_18
REMARK                            x       y       z     vdW  Elec       q    Type
REMARK                         _______ _______ _______ _____ _____    ______ ____
ROOT
ATOM      2  O   UNL     1     -12.400   3.549  31.466  0.00  0.00    -0.270 OA
ATOM      3  N   UNL     1     -14.256   2.228  31.019  0.00  0.00    -0.297 N 
ATOM      6  C   UNL     1     -15.900   0.876  29.955  0.00  0.00    +0.095 C 
ATOM      7  C   UNL     1     -14.566   0.117  30.010  0.00  0.00    +0.033 C 
ATOM      8  C   UNL     1     -15.696   1.959  31.023  0.00  0.00    +0.121 C 
ATOM      9  C   UNL     1     -13.536   1.208  30.274  0.00  0.00    +0.109 C 
ATOM     11  C   UNL     1     -13.605   3.327  31.557  0.00  0.00    +0.247 C 
ENDROOT
BRANCH  11  12
ATOM     12  C   UNL     1     -14.422   4.314  32.281  0.00  0.00    +0.037 A 
ATOM     16  C   UNL     1     -15.050   5.345  31.585  0.00  0.00    +0.013 A 
ATOM     17  C   UNL     1     -14.568   4.215  33.665  0.00  0.00    +0.013 A 
ATOM     19  C   UNL     1     -15.825   6.280  32.272  0.00  0.00    +0.001 A 
ATOM     20  C   UNL     1     -15.344   5.149  34.353  0.00  0.00    +0.001 A 
ATOM     21  C   UNL     1     -15.972   6.181  33.656  0.00  0.00    +0.000 A 
ENDBRANCH  11  12
BRANCH   6  10
ATOM      1  O   UNL     1     -16.184   2.704  28.342  0.00  0.00    -0.424 OA
ATOM      4  N   UNL     1     -16.509   0.669  27.474  0.00  0.00    -0.112 NA
ATOM      5  N   UNL     1     -16.699   1.598  26.467  0.00  0.00    -0.112 NA
ATOM     10  C   UNL     1     -16.212   1.359  28.549  0.00  0.00    +0.222 A 
ATOM     13  C   UNL     1     -16.498   2.772  27.020  0.00  0.00    +0.217 A 
BRANCH  13  14
ATOM     14  C   UNL     1     -16.562   4.110  26.420  0.00  0.00    +0.097 C 
BRANCH  14  15
ATOM     15  C   UNL     1     -16.607   4.080  24.877  0.00  0.00    +0.006 C 
ATOM     18  C   UNL     1     -15.224   4.140  24.248  0.00  0.00    +0.004 C 
ENDBRANCH  14  15
ENDBRANCH  13  14
ENDBRANCH   6  10
TORSDOF 4
ENDMDL
MODEL 6
REMARK VINA RESULT:      -5.8     26.612     27.896
REMARK  Name = 51137771
REMARK  5 active torsions:
REMARK  status: ('A' for Active; 'I' for Inactive)
REMARK    1  A    between atoms: C_6  and  C_10
REMARK    2  A    between atoms: C_11  and  C_12
REMARK    3  A    between atoms: C_13  and  C_14
REMARK    4  A    between atoms: C_14  and  C_15
REMARK    5  A    between atoms: C_15  and  C_18
REMARK                            x       y       z     vdW  Elec       q    Type
REMARK                         _______ _______ _______ _____ _____    ______ ____
ROOT
ATOM      2  O   UNL     1      -4.596 -12.879  11.288  0.00  0.00    -0.270 OA
ATOM      3  N   UNL     1      -3.443 -11.667  12.899  0.00  0.00    -0.297 N 
ATOM      6  C   UNL     1      -2.609 -10.812  14.957  0.00  0.00    +0.095 C 
ATOM      7  C   UNL     1      -2.122 -12.256  14.763  0.00  0.00    +0.033 C 
ATOM      8  C   UNL     1      -3.013 -10.418  13.529  0.00  0.00    +0.121 C 
ATOM      9  C   UNL     1      -3.057 -12.818  13.700  0.00  0.00    +0.109 C 
ATOM     11  C   UNL     1      -4.193 -11.810  11.742  0.00  0.00    +0.247 C 
ENDROOT
BRANCH  11  12
ATOM     12  C   UNL     1      -4.549 -10.586  11.007  0.00  0.00    +0.037 A 
ATOM     16  C   UNL     1      -3.672 -10.065  10.056  0.00  0.00    +0.013 A 
ATOM     17  C   UNL     1      -5.764  -9.949  11.260  0.00  0.00    +0.013 A 
ATOM     19  C   UNL     1      -4.010  -8.904   9.358  0.00  0.00    +0.001 A 
ATOM     20  C   UNL     1      -6.101  -8.789  10.562  0.00  0.00    +0.001 A 
ATOM     21  C   UNL     1      -5.225  -8.267   9.612  0.00  0.00    +0.000 A 
ENDBRANCH  11  12
BRANCH   6  10
ATOM      1  O   UNL     1      -3.494 -11.440  17.157  0.00  0.00    -0.424 OA
ATOM      4  N   UNL     1      -4.816 -10.046  16.010  0.00  0.00    -0.112 NA
ATOM      5  N   UNL     1      -5.428 -10.317  17.221  0.00  0.00    -0.112 NA
ATOM     10  C   UNL     1      -3.692 -10.723  16.017  0.00  0.00    +0.222 A 
ATOM     13  C   UNL     1      -4.621 -11.133  17.857  0.00  0.00    +0.217 A 
BRANCH  13  14
ATOM     14  C   UNL     1      -4.764 -11.741  19.185  0.00  0.00    +0.097 C 
BRANCH  14  15
ATOM     15  C   UNL     1      -6.031 -11.272  19.932  0.00  0.00    +0.006 C 
ATOM     18  C   UNL     1      -7.222 -12.188  19.701  0.00  0.00    +0.004 C 
ENDBRANCH  14  15
ENDBRANCH  13  14
ENDBRANCH   6  10
TORSDOF 4
ENDMDL
MODEL 7
REMARK VINA RESULT:      -5.7      2.241      6.542
REMARK  Name = 51137771
REMARK  5 active torsions:
REMARK  status: ('A' for Active; 'I' for Inactive)
REMARK    1  A    between atoms: C_6  and  C_10
REMARK    2  A    between atoms: C_11  and  C_12
REMARK    3  A    between atoms: C_13  and  C_14
REMARK    4  A    between atoms: C_14  and  C_15
REMARK    5  A    between atoms: C_15  and  C_18
REMARK                            x       y       z     vdW  Elec       q    Type
REMARK                         _______ _______ _______ _____ _____    ______ ____
ROOT
ATOM      2  O   UNL     1      15.666   6.407  18.559  0.00  0.00    -0.270 OA
ATOM      3  N   UNL     1      14.475   7.048  20.446  0.00  0.00    -0.297 N 
ATOM      6  C   UNL     1      12.888   8.018  21.931  0.00  0.00    +0.095 C 
ATOM      7  C   UNL     1      12.199   6.955  21.062  0.00  0.00    +0.033 C 
ATOM      8  C   UNL     1      14.369   7.641  21.781  0.00  0.00    +0.121 C 
ATOM      9  C   UNL     1      13.160   6.755  19.898  0.00  0.00    +0.109 C 
ATOM     11  C   UNL     1      15.630   6.841  19.708  0.00  0.00    +0.247 C 
ENDROOT
BRANCH  11  12
ATOM     12  C   UNL     1      16.913   7.182  20.343  0.00  0.00    +0.037 A 
ATOM     16  C   UNL     1      17.859   6.186  20.580  0.00  0.00    +0.013 A 
ATOM     17  C   UNL     1      17.181   8.501  20.706  0.00  0.00    +0.013 A 
ATOM     19  C   UNL     1      19.077   6.510  21.181  0.00  0.00    +0.001 A 
ATOM     20  C   UNL     1      18.398   8.825  21.308  0.00  0.00    +0.001 A 
ATOM     21  C   UNL     1      19.345   7.829  21.544  0.00  0.00    +0.000 A 
ENDBRANCH  11  12
BRANCH   6  10
ATOM      1  O   UNL     1      13.333  10.056  20.639  0.00  0.00    -0.424 OA
ATOM      4  N   UNL     1      11.462  10.146  21.861  0.00  0.00    -0.112 NA
ATOM      5  N   UNL     1      11.591  11.348  21.188  0.00  0.00    -0.112 NA
ATOM     10  C   UNL     1      12.500   9.425  21.510  0.00  0.00    +0.222 A 
ATOM     13  C   UNL     1      12.697  11.250  20.487  0.00  0.00    +0.217 A 
BRANCH  13  14
ATOM     14  C   UNL     1      13.321  12.225  19.585  0.00  0.00    +0.097 C 
BRANCH  14  15
ATOM     15  C   UNL     1      14.434  11.612  18.709  0.00  0.00    +0.006 C 
ATOM     18  C   UNL     1      13.919  11.107  17.371  0.00  0.00    +0.004 C 
ENDBRANCH  14  15
ENDBRANCH  13  14
ENDBRANCH   6  10
TORSDOF 4
ENDMDL
MODEL 8
REMARK VINA RESULT:      -5.7     26.851     28.747
REMARK  Name = 51137771
REMARK  5 active torsions:
REMARK  status: ('A' for Active; 'I' for Inactive)
REMARK    1  A    between atoms: C_6  and  C_10
REMARK    2  A    between atoms: C_11  and  C_12
REMARK    3  A    between atoms: C_13  and  C_14
REMARK    4  A    between atoms: C_14  and  C_15
REMARK    5  A    between atoms: C_15  and  C_18
REMARK                            x       y       z     vdW  Elec       q    Type
REMARK                         _______ _______ _______ _____ _____    ______ ____
ROOT
ATOM      2  O   UNL     1      -4.117 -13.846  15.193  0.00  0.00    -0.270 OA
ATOM      3  N   UNL     1      -4.384 -11.963  16.525  0.00  0.00    -0.297 N 
ATOM      6  C   UNL     1      -5.222 -10.336  18.047  0.00  0.00    +0.095 C 
ATOM      7  C   UNL     1      -4.867 -11.622  18.809  0.00  0.00    +0.033 C 
ATOM      8  C   UNL     1      -4.438 -10.515  16.739  0.00  0.00    +0.121 C 
ATOM      9  C   UNL     1      -4.791 -12.684  17.721  0.00  0.00    +0.109 C 
ATOM     11  C   UNL     1      -4.079 -12.628  15.348  0.00  0.00    +0.247 C 
ENDROOT
BRANCH  11  12
ATOM     12  C   UNL     1      -3.692 -11.811  14.187  0.00  0.00    +0.037 A 
ATOM     16  C   UNL     1      -2.348 -11.526  13.951  0.00  0.00    +0.013 A 
ATOM     17  C   UNL     1      -4.672 -11.324  13.320  0.00  0.00    +0.013 A 
ATOM     19  C   UNL     1      -1.982 -10.752  12.849  0.00  0.00    +0.001 A 
ATOM     20  C   UNL     1      -4.305 -10.550  12.218  0.00  0.00    +0.001 A 
ATOM     21  C   UNL     1      -2.961 -10.265  11.983  0.00  0.00    +0.000 A 
ENDBRANCH  11  12
BRANCH   6  10
ATOM      1  O   UNL     1      -7.157  -9.202  17.052  0.00  0.00    -0.424 OA
ATOM      4  N   UNL     1      -7.697 -10.794  18.527  0.00  0.00    -0.112 NA
ATOM      5  N   UNL     1      -8.870 -10.241  18.047  0.00  0.00    -0.112 NA
ATOM     10  C   UNL     1      -6.724 -10.157  17.919  0.00  0.00    +0.222 A 
ATOM     13  C   UNL     1      -8.506  -9.317  17.188  0.00  0.00    +0.217 A 
BRANCH  13  14
ATOM     14  C   UNL     1      -9.335  -8.417  16.377  0.00  0.00    +0.097 C 
BRANCH  14  15
ATOM     15  C   UNL     1     -10.419  -7.688  17.199  0.00  0.00    +0.006 C 
ATOM     18  C   UNL     1     -11.091  -6.566  16.423  0.00  0.00    +0.004 C 
ENDBRANCH  14  15
ENDBRANCH  13  14
ENDBRANCH   6  10
TORSDOF 4
ENDMDL
MODEL 9
REMARK VINA RESULT:      -5.7     29.916     32.842
REMARK  Name = 51137771
REMARK  5 active torsions:
REMARK  status: ('A' for Active; 'I' for Inactive)
REMARK    1  A    between atoms: C_6  and  C_10
REMARK    2  A    between atoms: C_11  and  C_12
REMARK    3  A    between atoms: C_13  and  C_14
REMARK    4  A    between atoms: C_14  and  C_15
REMARK    5  A    between atoms: C_15  and  C_18
REMARK                            x       y       z     vdW  Elec       q    Type
REMARK                         _______ _______ _______ _____ _____    ______ ____
ROOT
ATOM      2  O   UNL     1     -15.779  -0.178  30.065  0.00  0.00    -0.270 OA
ATOM      3  N   UNL     1     -16.778   1.652  29.043  0.00  0.00    -0.297 N 
ATOM      6  C   UNL     1     -17.685   3.172  27.453  0.00  0.00    +0.095 C 
ATOM      7  C   UNL     1     -18.560   1.911  27.519  0.00  0.00    +0.033 C 
ATOM      8  C   UNL     1     -16.901   3.085  28.770  0.00  0.00    +0.121 C 
ATOM      9  C   UNL     1     -17.663   0.878  28.188  0.00  0.00    +0.109 C 
ATOM     11  C   UNL     1     -15.899   1.036  29.921  0.00  0.00    +0.247 C 
ENDROOT
BRANCH  11  12
ATOM     12  C   UNL     1     -15.032   1.903  30.735  0.00  0.00    +0.037 A 
ATOM     16  C   UNL     1     -15.449   2.318  31.999  0.00  0.00    +0.013 A 
ATOM     17  C   UNL     1     -13.792   2.308  30.241  0.00  0.00    +0.013 A 
ATOM     19  C   UNL     1     -14.626   3.140  32.770  0.00  0.00    +0.001 A 
ATOM     20  C   UNL     1     -12.968   3.129  31.012  0.00  0.00    +0.001 A 
ATOM     21  C   UNL     1     -13.386   3.544  32.276  0.00  0.00    +0.000 A 
ENDBRANCH  11  12
BRANCH   6  10
ATOM      1  O   UNL     1     -16.513   4.449  25.716  0.00  0.00    -0.424 OA
ATOM      4  N   UNL     1     -16.425   2.233  25.428  0.00  0.00    -0.112 NA
ATOM      5  N   UNL     1     -15.732   2.826  24.389  0.00  0.00    -0.112 NA
ATOM     10  C   UNL     1     -16.864   3.218  26.176  0.00  0.00    +0.222 A 
ATOM     13  C   UNL     1     -15.809   4.120  24.598  0.00  0.00    +0.217 A 
BRANCH  13  14
ATOM     14  C   UNL     1     -15.252   5.229  23.814  0.00  0.00    +0.097 C 
BRANCH  14  15
ATOM     15  C   UNL     1     -14.029   4.816  22.968  0.00  0.00    +0.006 C 
ATOM     18  C   UNL     1     -13.723   5.804  21.853  0.00  0.00    +0.004 C 
ENDBRANCH  14  15
ENDBRANCH  13  14
ENDBRANCH   6  10
TORSDOF 4
ENDMDL
MODEL 10
REMARK VINA RESULT:      -5.6     16.053     19.344
REMARK  Name = 51137771
REMARK  5 active torsions:
REMARK  status: ('A' for Active; 'I' for Inactive)
REMARK    1  A    between atoms: C_6  and  C_10
REMARK    2  A    between atoms: C_11  and  C_12
REMARK    3  A    between atoms: C_13  and  C_14
REMARK    4  A    between atoms: C_14  and  C_15
REMARK    5  A    between atoms: C_15  and  C_18
REMARK                            x       y       z     vdW  Elec       q    Type
REMARK                         _______ _______ _______ _____ _____    ______ ____
ROOT
ATOM      2  O   UNL     1      12.510   7.626   3.826  0.00  0.00    -0.270 OA
ATOM      3  N   UNL     1      12.034   5.513   2.990  0.00  0.00    -0.297 N 
ATOM      6  C   UNL     1      11.683   3.642   1.562  0.00  0.00    +0.095 C 
ATOM      7  C   UNL     1      13.173   4.014   1.567  0.00  0.00    +0.033 C 
ATOM      8  C   UNL     1      11.176   4.336   2.834  0.00  0.00    +0.121 C 
ATOM      9  C   UNL     1      13.194   5.435   2.116  0.00  0.00    +0.109 C 
ATOM     11  C   UNL     1      11.797   6.627   3.780  0.00  0.00    +0.247 C 
ENDROOT
BRANCH  11  12
ATOM     12  C   UNL     1      10.589   6.619   4.621  0.00  0.00    +0.037 A 
ATOM     16  C   UNL     1       9.407   7.188   4.148  0.00  0.00    +0.013 A 
ATOM     17  C   UNL     1      10.627   6.040   5.890  0.00  0.00    +0.013 A 
ATOM     19  C   UNL     1       8.262   7.180   4.946  0.00  0.00    +0.001 A 
ATOM     20  C   UNL     1       9.482   6.032   6.687  0.00  0.00    +0.001 A 
ATOM     21  C   UNL     1       8.300   6.601   6.214  0.00  0.00    +0.000 A 
ENDBRANCH  11  12
BRANCH   6  10
ATOM      1  O   UNL     1      11.710   3.809  -0.887  0.00  0.00    -0.424 OA
ATOM      4  N   UNL     1       9.834   4.582   0.056  0.00  0.00    -0.112 NA
ATOM      5  N   UNL     1       9.717   4.734  -1.314  0.00  0.00    -0.112 NA
ATOM     10  C   UNL     1      11.011   4.039   0.259  0.00  0.00    +0.222 A 
ATOM     13  C   UNL     1      10.835   4.269  -1.823  0.00  0.00    +0.217 A 
BRANCH  13  14
ATOM     14  C   UNL     1      11.256   4.178  -3.226  0.00  0.00    +0.097 C 
BRANCH  14  15
ATOM     15  C   UNL     1      10.896   2.826  -3.879  0.00  0.00    +0.006 C 
ATOM     18  C   UNL     1       9.419   2.713  -4.221  0.00  0.00    +0.004 C 
ENDBRANCH  14  15
ENDBRANCH  13  14
ENDBRANCH   6  10
TORSDOF 4
ENDMDL
