REMARK  Name = 75537069
REMARK  4 active torsions:
REMARK  status: ('A' for Active; 'I' for Inactive)
REMARK    1  A    between atoms: N_3  and  C_12
REMARK    2  A    between atoms: N_4  and  C_13
REMARK    3  A    between atoms: C_12  and  C_14
REMARK    4  A    between atoms: C_13  and  C_15
REMARK                            x       y       z     vdW  Elec       q    Type
REMARK                         _______ _______ _______ _____ _____    ______ ____
ROOT
ATOM      1  O   UNL     1       2.073  -2.567  -0.778  0.00  0.00    -0.252 OA
ATOM      2  N   UNL     1       0.302  -1.335   0.154  0.00  0.00    -0.278 N 
ATOM      3  N   UNL     1      -2.043   0.213   0.269  0.00  0.00    -0.295 NA
ATOM      4  N   UNL     1       2.374  -0.986   0.947  0.00  0.00    -0.278 N 
ATOM      6  C   UNL     1       0.118  -0.421   1.262  0.00  0.00    +0.109 C 
ATOM      7  C   UNL     1      -0.791   0.737   0.851  0.00  0.00    +0.109 C 
ATOM      8  C   UNL     1       1.542  -0.018   1.639  0.00  0.00    +0.133 C 
ATOM      9  C   UNL     1      -0.855  -1.797  -0.585  0.00  0.00    +0.125 C 
ATOM     10  C   UNL     1      -1.765  -0.614  -0.923  0.00  0.00    +0.104 C 
ATOM     11  C   UNL     1       1.637  -1.738   0.010  0.00  0.00    +0.306 C 
ENDROOT
BRANCH   3  12
ATOM     12  C   UNL     1      -2.945   1.312  -0.072  0.00  0.00    +0.119 C 
BRANCH  12  14
ATOM     14  C   UNL     1      -4.380   0.861  -0.135  0.00  0.00    -0.033 A 
ATOM     16  C   UNL     1      -4.914   0.396  -1.336  0.00  0.00    +0.005 A 
ATOM     17  C   UNL     1      -5.176   0.909   1.010  0.00  0.00    +0.005 A 
ATOM     19  C   UNL     1      -6.244  -0.021  -1.394  0.00  0.00    +0.000 A 
ATOM     20  C   UNL     1      -6.506   0.491   0.953  0.00  0.00    +0.000 A 
ATOM     22  C   UNL     1      -7.040   0.026  -0.249  0.00  0.00    +0.000 A 
ENDBRANCH  12  14
ENDBRANCH   3  12
BRANCH   4  13
ATOM     13  C   UNL     1       3.809  -1.029   1.124  0.00  0.00    +0.164 C 
BRANCH  13  15
ATOM      5  N   UNL     1       4.958   1.106   0.922  0.00  0.00    -0.258 NA
ATOM     15  C   UNL     1       4.509   0.004   0.281  0.00  0.00    +0.059 A 
ATOM     18  C   UNL     1       4.657  -0.218  -1.078  0.00  0.00    +0.025 A 
ATOM     21  C   UNL     1       5.309   0.755  -1.828  0.00  0.00    +0.003 A 
ATOM     23  C   UNL     1       5.586   2.030   0.160  0.00  0.00    +0.111 A 
ATOM     24  C   UNL     1       5.786   1.903  -1.205  0.00  0.00    +0.020 A 
ENDBRANCH  13  15
ENDBRANCH   4  13
TORSDOF 4
