REMARK  Name = 71693345
REMARK  13 active torsions:
REMARK  status: ('A' for Active; 'I' for Inactive)
REMARK    1  A    between atoms: S_1  and  N_8
REMARK    2  A    between atoms: S_1  and  C_24
REMARK    3  A    between atoms: O_3  and  C_13
REMARK    4  A    between atoms: N_7  and  C_11
REMARK    5  A    between atoms: N_8  and  C_21
REMARK    6  A    between atoms: C_9  and  C_13
REMARK    7  A    between atoms: C_10  and  C_14
REMARK    8  A    between atoms: C_11  and  C_12
REMARK    9  A    between atoms: C_12  and  C_17
REMARK   10  A    between atoms: C_12  and  C_18
REMARK   11  A    between atoms: C_24  and  C_25
REMARK   12  A    between atoms: C_25  and  C_26
REMARK   13  A    between atoms: C_25  and  C_27
REMARK                            x       y       z     vdW  Elec       q    Type
REMARK                         _______ _______ _______ _____ _____    ______ ____
ROOT
ATOM     14  C   UNL     1       0.283   1.328   0.029  0.00  0.00    -0.017 A 
ATOM     19  C   UNL     1      -0.216   0.730   1.186  0.00  0.00    +0.008 A 
ATOM     20  C   UNL     1      -0.583   1.978  -0.850  0.00  0.00    +0.008 A 
ATOM     21  C   UNL     1      -2.449   1.433   0.585  0.00  0.00    +0.048 A 
ATOM     22  C   UNL     1      -1.582   0.783   1.464  0.00  0.00    +0.025 A 
ATOM     23  C   UNL     1      -1.949   2.030  -0.572  0.00  0.00    +0.025 A 
ENDROOT
BRANCH  14  10
ATOM      2  O   UNL     1       2.433   1.983   0.771  0.00  0.00    -0.361 OA
ATOM      4  O   UNL     1       5.803   0.976   0.205  0.00  0.00    -0.273 OA
ATOM      7  N   UNL     1       3.831  -0.126  -0.370  0.00  0.00    -0.291 N 
ATOM      9  C   UNL     1       2.349  -0.154  -0.324  0.00  0.00    +0.135 C 
ATOM     10  C   UNL     1       1.766   1.272  -0.273  0.00  0.00    +0.171 C 
ATOM     15  C   UNL     1       4.574   0.957   0.104  0.00  0.00    +0.242 C 
ATOM     16  C   UNL     1       3.783   2.204   0.443  0.00  0.00    +0.256 C 
BRANCH   7  11
ATOM     11  C   UNL     1       4.532  -1.365  -0.697  0.00  0.00    +0.111 C 
BRANCH  11  12
ATOM     12  C   UNL     1       4.598  -2.329   0.493  0.00  0.00    +0.000 C 
ATOM     17  C   UNL     1       5.337  -1.672   1.659  0.00  0.00    +0.009 C 
ATOM     18  C   UNL     1       5.284  -3.644   0.116  0.00  0.00    +0.009 C 
ENDBRANCH  11  12
ENDBRANCH   7  11
BRANCH   9  13
ATOM     13  C   UNL     1       1.739  -0.945  -1.490  0.00  0.00    +0.181 C 
BRANCH  13   3
ATOM      3  O   UNL     1       2.035  -0.261  -2.690  0.00  0.00    -0.393 OA
ATOM     28  H   UNL     1       1.625  -0.761  -3.415  0.00  0.00    +0.209 HD
ENDBRANCH  13   3
ENDBRANCH   9  13
ENDBRANCH  14  10
BRANCH  21   8
ATOM      8  N   UNL     1      -3.846   1.487   0.870  0.00  0.00    -0.221 N 
ATOM     29  H   UNL     1      -4.068   1.496   1.875  0.00  0.00    +0.173 HD
BRANCH   8   1
ATOM      1  S   UNL     1      -4.913   0.552  -0.107  0.00  0.00    +0.043 S 
ATOM      5  O   UNL     1      -6.276   0.955   0.186  0.00  0.00    -0.155 OA
ATOM      6  O   UNL     1      -4.441   0.490  -1.476  0.00  0.00    -0.155 OA
BRANCH   1  24
ATOM     24  C   UNL     1      -4.682  -1.054   0.623  0.00  0.00    +0.191 C 
BRANCH  24  25
ATOM     25  C   UNL     1      -5.828  -2.019   0.316  0.00  0.00    +0.006 C 
ATOM     26  C   UNL     1      -5.632  -3.375   0.996  0.00  0.00    +0.009 C 
ATOM     27  C   UNL     1      -5.949  -2.214  -1.197  0.00  0.00    +0.009 C 
ENDBRANCH  24  25
ENDBRANCH   1  24
ENDBRANCH   8   1
ENDBRANCH  21   8
TORSDOF 9
