MODEL 1
REMARK VINA RESULT:      -7.4      0.000      0.000
REMARK  Name = 25389946
REMARK  7 active torsions:
REMARK  status: ('A' for Active; 'I' for Inactive)
REMARK    1  A    between atoms: O_2  and  C_19
REMARK    2  A    between atoms: O_2  and  C_31
REMARK    3  A    between atoms: N_6  and  C_10
REMARK    4  A    between atoms: N_6  and  C_22
REMARK    5  A    between atoms: C_8  and  C_16
REMARK    6  A    between atoms: C_11  and  C_19
REMARK    7  A    between atoms: C_22  and  C_30
REMARK                            x       y       z     vdW  Elec       q    Type
REMARK                         _______ _______ _______ _____ _____    ______ ____
ROOT
ATOM      4  N   UNL     1      13.672   9.997  20.461  0.00  0.00    -0.274 NA
ATOM      5  N   UNL     1      11.308  12.772  21.367  0.00  0.00    -0.356 N 
ATOM      7  C   UNL     1      12.600  10.970  20.086  0.00  0.00    +0.106 C 
ATOM      8  C   UNL     1      14.203   9.273  19.278  0.00  0.00    +0.090 C 
ATOM      9  C   UNL     1      13.125  11.991  19.065  0.00  0.00    +0.044 C 
ATOM     10  C   UNL     1      13.636  11.279  17.812  0.00  0.00    +0.058 C 
ATOM     11  C   UNL     1      13.289   9.126  21.605  0.00  0.00    +0.172 C 
ATOM     12  C   UNL     1      14.708  10.263  18.200  0.00  0.00    +0.042 C 
ATOM     13  C   UNL     1      12.076  11.642  21.321  0.00  0.00    +0.038 A 
ATOM     14  C   UNL     1      12.999   9.934  22.897  0.00  0.00    +0.068 C 
ATOM     15  C   UNL     1      12.232  11.176  22.608  0.00  0.00    -0.016 A 
ATOM     17  C   UNL     1      11.562  12.076  23.480  0.00  0.00    +0.003 A 
ATOM     18  C   UNL     1      10.992  13.069  22.676  0.00  0.00    +0.047 A 
ATOM     23  C   UNL     1      11.378  12.146  24.875  0.00  0.00    +0.010 A 
ATOM     24  C   UNL     1      10.247  14.130  23.203  0.00  0.00    +0.026 A 
ATOM     25  C   UNL     1      10.637  13.203  25.415  0.00  0.00    +0.001 A 
ATOM     28  C   UNL     1      10.081  14.179  24.590  0.00  0.00    +0.002 A 
ATOM     33  H   UNL     1      11.014  13.315  20.567  0.00  0.00    +0.166 HD
ENDROOT
BRANCH   8  16
ATOM      1  F   UNL     1      18.440   5.715  20.449  0.00  0.00    -0.205 F 
ATOM     16  C   UNL     1      15.346   8.313  19.595  0.00  0.00    -0.030 A 
ATOM     20  C   UNL     1      16.387   8.719  20.430  0.00  0.00    +0.008 A 
ATOM     21  C   UNL     1      15.351   7.029  19.047  0.00  0.00    +0.008 A 
ATOM     26  C   UNL     1      17.432   7.841  20.719  0.00  0.00    +0.038 A 
ATOM     27  C   UNL     1      16.396   6.152  19.336  0.00  0.00    +0.038 A 
ATOM     29  C   UNL     1      17.437   6.558  20.172  0.00  0.00    +0.123 A 
ENDBRANCH   8  16
BRANCH  11  19
ATOM      3  O   UNL     1      11.038   8.695  20.857  0.00  0.00    -0.249 OA
ATOM     19  C   UNL     1      12.116   8.261  21.240  0.00  0.00    +0.325 C 
BRANCH  19   2
ATOM      2  O   UNL     1      12.449   6.949  21.404  0.00  0.00    -0.467 OA
ATOM     31  C   UNL     1      11.345   6.040  21.476  0.00  0.00    +0.280 C 
ENDBRANCH  19   2
ENDBRANCH  11  19
BRANCH  10   6
ATOM      6  N   UNL     1      14.163  12.255  16.860  0.00  0.00    -0.303 NA
ATOM     34  H   UNL     1      13.538  13.061  16.822  0.00  0.00    +0.123 HD
BRANCH   6  22
ATOM     22  C   UNL     1      14.259  11.677  15.528  0.00  0.00    +0.170 C 
BRANCH  22  30
ATOM     30  C   UNL     1      15.648  11.670  15.059  0.00  0.00    -0.090 C 
ATOM     32  C   UNL     1      16.785  11.659  14.672  0.00  0.00    +0.005 C 
ENDBRANCH  22  30
ENDBRANCH   6  22
ENDBRANCH  10   6
TORSDOF 6
ENDMDL
MODEL 2
REMARK VINA RESULT:      -7.3      3.132      7.202
REMARK  Name = 25389946
REMARK  7 active torsions:
REMARK  status: ('A' for Active; 'I' for Inactive)
REMARK    1  A    between atoms: O_2  and  C_19
REMARK    2  A    between atoms: O_2  and  C_31
REMARK    3  A    between atoms: N_6  and  C_10
REMARK    4  A    between atoms: N_6  and  C_22
REMARK    5  A    between atoms: C_8  and  C_16
REMARK    6  A    between atoms: C_11  and  C_19
REMARK    7  A    between atoms: C_22  and  C_30
REMARK                            x       y       z     vdW  Elec       q    Type
REMARK                         _______ _______ _______ _____ _____    ______ ____
ROOT
ATOM      4  N   UNL     1      15.262   8.838  19.614  0.00  0.00    -0.274 NA
ATOM      5  N   UNL     1      18.529   8.362  21.407  0.00  0.00    -0.356 N 
ATOM      7  C   UNL     1      16.200   9.182  20.727  0.00  0.00    +0.106 C 
ATOM      8  C   UNL     1      14.085   9.742  19.580  0.00  0.00    +0.090 C 
ATOM      9  C   UNL     1      16.685  10.634  20.601  0.00  0.00    +0.044 C 
ATOM     10  C   UNL     1      15.497  11.597  20.612  0.00  0.00    +0.058 C 
ATOM     11  C   UNL     1      14.936   7.387  19.559  0.00  0.00    +0.172 C 
ATOM     12  C   UNL     1      14.525  11.225  19.494  0.00  0.00    +0.042 C 
ATOM     13  C   UNL     1      17.346   8.214  20.736  0.00  0.00    +0.038 A 
ATOM     14  C   UNL     1      16.188   6.503  19.327  0.00  0.00    +0.068 C 
ATOM     15  C   UNL     1      17.353   6.982  20.120  0.00  0.00    -0.016 A 
ATOM     17  C   UNL     1      18.604   6.366  20.396  0.00  0.00    +0.003 A 
ATOM     18  C   UNL     1      19.323   7.253  21.203  0.00  0.00    +0.047 A 
ATOM     23  C   UNL     1      19.199   5.138  20.042  0.00  0.00    +0.010 A 
ATOM     24  C   UNL     1      20.610   6.970  21.674  0.00  0.00    +0.026 A 
ATOM     25  C   UNL     1      20.486   4.843  20.505  0.00  0.00    +0.001 A 
ATOM     28  C   UNL     1      21.180   5.747  21.308  0.00  0.00    +0.002 A 
ATOM     33  H   UNL     1      18.790   9.161  21.967  0.00  0.00    +0.166 HD
ENDROOT
BRANCH   8  16
ATOM      1  F   UNL     1      10.533   8.763  15.291  0.00  0.00    -0.205 F 
ATOM     16  C   UNL     1      13.127   9.477  18.422  0.00  0.00    -0.030 A 
ATOM     20  C   UNL     1      13.518   9.762  17.114  0.00  0.00    +0.008 A 
ATOM     21  C   UNL     1      11.859   8.951  18.672  0.00  0.00    +0.008 A 
ATOM     26  C   UNL     1      12.641   9.521  16.056  0.00  0.00    +0.038 A 
ATOM     27  C   UNL     1      10.983   8.710  17.615  0.00  0.00    +0.038 A 
ATOM     29  C   UNL     1      11.374   8.995  16.306  0.00  0.00    +0.123 A 
ENDBRANCH   8  16
BRANCH  11  19
ATOM      3  O   UNL     1      14.627   7.136  21.938  0.00  0.00    -0.249 OA
ATOM     19  C   UNL     1      14.205   6.964  20.801  0.00  0.00    +0.325 C 
BRANCH  19   2
ATOM      2  O   UNL     1      13.025   6.373  20.458  0.00  0.00    -0.467 OA
ATOM     31  C   UNL     1      11.951   6.560  21.386  0.00  0.00    +0.280 C 
ENDBRANCH  19   2
ENDBRANCH  11  19
BRANCH  10   6
ATOM      6  N   UNL     1      15.965  12.973  20.458  0.00  0.00    -0.303 NA
ATOM     34  H   UNL     1      16.905  12.968  20.061  0.00  0.00    +0.123 HD
BRANCH   6  22
ATOM     22  C   UNL     1      16.008  13.650  21.745  0.00  0.00    +0.170 C 
BRANCH  22  30
ATOM     30  C   UNL     1      14.678  13.686  22.362  0.00  0.00    -0.090 C 
ATOM     32  C   UNL     1      13.592  13.714  22.872  0.00  0.00    +0.005 C 
ENDBRANCH  22  30
ENDBRANCH   6  22
ENDBRANCH  10   6
TORSDOF 6
ENDMDL
MODEL 3
REMARK VINA RESULT:      -7.2     13.350     16.658
REMARK  Name = 25389946
REMARK  7 active torsions:
REMARK  status: ('A' for Active; 'I' for Inactive)
REMARK    1  A    between atoms: O_2  and  C_19
REMARK    2  A    between atoms: O_2  and  C_31
REMARK    3  A    between atoms: N_6  and  C_10
REMARK    4  A    between atoms: N_6  and  C_22
REMARK    5  A    between atoms: C_8  and  C_16
REMARK    6  A    between atoms: C_11  and  C_19
REMARK    7  A    between atoms: C_22  and  C_30
REMARK                            x       y       z     vdW  Elec       q    Type
REMARK                         _______ _______ _______ _____ _____    ______ ____
ROOT
ATOM      4  N   UNL     1      12.025   6.746   5.649  0.00  0.00    -0.274 NA
ATOM      5  N   UNL     1      14.824   7.744   3.351  0.00  0.00    -0.356 N 
ATOM      7  C   UNL     1      12.513   7.200   4.310  0.00  0.00    +0.106 C 
ATOM      8  C   UNL     1      10.578   6.411   5.629  0.00  0.00    +0.090 C 
ATOM      9  C   UNL     1      12.260   6.122   3.245  0.00  0.00    +0.044 C 
ATOM     10  C   UNL     1      10.771   5.788   3.165  0.00  0.00    +0.058 C 
ATOM     11  C   UNL     1      12.440   7.653   6.754  0.00  0.00    +0.172 C 
ATOM     12  C   UNL     1      10.267   5.355   4.540  0.00  0.00    +0.042 C 
ATOM     13  C   UNL     1      13.966   7.560   4.400  0.00  0.00    +0.038 A 
ATOM     14  C   UNL     1      13.980   7.755   6.893  0.00  0.00    +0.068 C 
ATOM     15  C   UNL     1      14.648   7.835   5.565  0.00  0.00    -0.016 A 
ATOM     17  C   UNL     1      15.986   8.165   5.218  0.00  0.00    +0.003 A 
ATOM     18  C   UNL     1      16.070   8.098   3.823  0.00  0.00    +0.047 A 
ATOM     23  C   UNL     1      17.137   8.518   5.950  0.00  0.00    +0.010 A 
ATOM     24  C   UNL     1      17.253   8.368   3.125  0.00  0.00    +0.026 A 
ATOM     25  C   UNL     1      18.327   8.789   5.264  0.00  0.00    +0.001 A 
ATOM     28  C   UNL     1      18.382   8.714   3.873  0.00  0.00    +0.002 A 
ATOM     33  H   UNL     1      14.588   7.635   2.374  0.00  0.00    +0.166 HD
ENDROOT
BRANCH   8  16
ATOM      1  F   UNL     1       8.586   4.442  10.541  0.00  0.00    -0.205 F 
ATOM     16  C   UNL     1      10.042   5.880   6.955  0.00  0.00    -0.030 A 
ATOM     20  C   UNL     1      10.223   4.538   7.293  0.00  0.00    +0.008 A 
ATOM     21  C   UNL     1       9.368   6.735   7.828  0.00  0.00    +0.008 A 
ATOM     26  C   UNL     1       9.731   4.053   8.505  0.00  0.00    +0.038 A 
ATOM     27  C   UNL     1       8.876   6.248   9.039  0.00  0.00    +0.038 A 
ATOM     29  C   UNL     1       9.058   4.907   9.377  0.00  0.00    +0.123 A 
ENDBRANCH   8  16
BRANCH  11  19
ATOM      3  O   UNL     1      10.885   9.249   5.832  0.00  0.00    -0.249 OA
ATOM     19  C   UNL     1      11.826   9.012   6.579  0.00  0.00    +0.325 C 
BRANCH  19   2
ATOM      2  O   UNL     1      12.477   9.912   7.371  0.00  0.00    -0.467 OA
ATOM     31  C   UNL     1      11.640  10.686   8.238  0.00  0.00    +0.280 C 
ENDBRANCH  19   2
ENDBRANCH  11  19
BRANCH  10   6
ATOM      6  N   UNL     1      10.544   4.738   2.173  0.00  0.00    -0.303 NA
ATOM     34  H   UNL     1       9.557   4.481   2.172  0.00  0.00    +0.123 HD
BRANCH   6  22
ATOM     22  C   UNL     1      11.334   3.556   2.483  0.00  0.00    +0.170 C 
BRANCH  22  30
ATOM     30  C   UNL     1      12.423   3.385   1.517  0.00  0.00    -0.090 C 
ATOM     32  C   UNL     1      13.316   3.250   0.726  0.00  0.00    +0.005 C 
ENDBRANCH  22  30
ENDBRANCH   6  22
ENDBRANCH  10   6
TORSDOF 6
ENDMDL
MODEL 4
REMARK VINA RESULT:      -6.8     14.476     18.173
REMARK  Name = 25389946
REMARK  7 active torsions:
REMARK  status: ('A' for Active; 'I' for Inactive)
REMARK    1  A    between atoms: O_2  and  C_19
REMARK    2  A    between atoms: O_2  and  C_31
REMARK    3  A    between atoms: N_6  and  C_10
REMARK    4  A    between atoms: N_6  and  C_22
REMARK    5  A    between atoms: C_8  and  C_16
REMARK    6  A    between atoms: C_11  and  C_19
REMARK    7  A    between atoms: C_22  and  C_30
REMARK                            x       y       z     vdW  Elec       q    Type
REMARK                         _______ _______ _______ _____ _____    ______ ____
ROOT
ATOM      4  N   UNL     1       9.805   7.528   3.791  0.00  0.00    -0.274 NA
ATOM      5  N   UNL     1       7.141   9.940   4.885  0.00  0.00    -0.356 N 
ATOM      7  C   UNL     1       9.305   8.579   4.730  0.00  0.00    +0.106 C 
ATOM      8  C   UNL     1      11.085   6.935   4.253  0.00  0.00    +0.090 C 
ATOM      9  C   UNL     1       9.111   8.001   6.140  0.00  0.00    +0.044 C 
ATOM     10  C   UNL     1      10.426   7.424   6.666  0.00  0.00    +0.058 C 
ATOM     11  C   UNL     1       9.800   7.971   2.370  0.00  0.00    +0.172 C 
ATOM     12  C   UNL     1      10.951   6.374   5.690  0.00  0.00    +0.042 C 
ATOM     13  C   UNL     1       8.034   9.169   4.194  0.00  0.00    +0.038 A 
ATOM     14  C   UNL     1       8.380   8.329   1.863  0.00  0.00    +0.068 C 
ATOM     15  C   UNL     1       7.605   9.081   2.888  0.00  0.00    -0.016 A 
ATOM     17  C   UNL     1       6.381   9.798   2.784  0.00  0.00    +0.003 A 
ATOM     18  C   UNL     1       6.112  10.325   4.051  0.00  0.00    +0.047 A 
ATOM     23  C   UNL     1       5.474  10.056   1.737  0.00  0.00    +0.010 A 
ATOM     24  C   UNL     1       4.977  11.098   4.321  0.00  0.00    +0.026 A 
ATOM     25  C   UNL     1       4.334  10.826   1.993  0.00  0.00    +0.001 A 
ATOM     28  C   UNL     1       4.091  11.338   3.267  0.00  0.00    +0.002 A 
ATOM     33  H   UNL     1       7.215  10.191   5.861  0.00  0.00    +0.166 HD
ENDROOT
BRANCH   8  16
ATOM      1  F   UNL     1      13.022   2.764   0.962  0.00  0.00    -0.205 F 
ATOM     16  C   UNL     1      11.609   5.809   3.365  0.00  0.00    -0.030 A 
ATOM     20  C   UNL     1      12.770   5.995   2.615  0.00  0.00    +0.008 A 
ATOM     21  C   UNL     1      10.925   4.594   3.303  0.00  0.00    +0.008 A 
ATOM     26  C   UNL     1      13.247   4.966   1.803  0.00  0.00    +0.038 A 
ATOM     27  C   UNL     1      11.402   3.566   2.491  0.00  0.00    +0.038 A 
ATOM     29  C   UNL     1      12.564   3.752   1.741  0.00  0.00    +0.123 A 
ENDBRANCH   8  16
BRANCH  11  19
ATOM      3  O   UNL     1      11.692   9.365   2.911  0.00  0.00    -0.249 OA
ATOM     19  C   UNL     1      10.746   9.121   2.173  0.00  0.00    +0.325 C 
BRANCH  19   2
ATOM      2  O   UNL     1      10.381   9.828   1.065  0.00  0.00    -0.467 OA
ATOM     31  C   UNL     1      11.307   9.782  -0.025  0.00  0.00    +0.280 C 
ENDBRANCH  19   2
ENDBRANCH  11  19
BRANCH  10   6
ATOM      6  N   UNL     1      10.224   6.848   7.994  0.00  0.00    -0.303 NA
ATOM     34  H   UNL     1      11.085   6.937   8.535  0.00  0.00    +0.123 HD
BRANCH   6  22
ATOM     22  C   UNL     1       9.878   5.438   7.898  0.00  0.00    +0.170 C 
BRANCH  22  30
ATOM     30  C   UNL     1       9.393   4.928   9.184  0.00  0.00    -0.090 C 
ATOM     32  C   UNL     1       8.999   4.507  10.237  0.00  0.00    +0.005 C 
ENDBRANCH  22  30
ENDBRANCH   6  22
ENDBRANCH  10   6
TORSDOF 6
ENDMDL
MODEL 5
REMARK VINA RESULT:      -6.7     28.383     30.540
REMARK  Name = 25389946
REMARK  7 active torsions:
REMARK  status: ('A' for Active; 'I' for Inactive)
REMARK    1  A    between atoms: O_2  and  C_19
REMARK    2  A    between atoms: O_2  and  C_31
REMARK    3  A    between atoms: N_6  and  C_10
REMARK    4  A    between atoms: N_6  and  C_22
REMARK    5  A    between atoms: C_8  and  C_16
REMARK    6  A    between atoms: C_11  and  C_19
REMARK    7  A    between atoms: C_22  and  C_30
REMARK                            x       y       z     vdW  Elec       q    Type
REMARK                         _______ _______ _______ _____ _____    ______ ____
ROOT
ATOM      4  N   UNL     1      -8.029  -9.545  15.155  0.00  0.00    -0.274 NA
ATOM      5  N   UNL     1      -4.600 -10.715  14.162  0.00  0.00    -0.356 N 
ATOM      7  C   UNL     1      -6.853 -10.448  15.350  0.00  0.00    +0.106 C 
ATOM      8  C   UNL     1      -9.029  -9.694  16.242  0.00  0.00    +0.090 C 
ATOM      9  C   UNL     1      -6.174 -10.174  16.700  0.00  0.00    +0.044 C 
ATOM     10  C   UNL     1      -7.166 -10.366  17.847  0.00  0.00    +0.058 C 
ATOM     11  C   UNL     1      -8.589  -9.613  13.778  0.00  0.00    +0.172 C 
ATOM     12  C   UNL     1      -8.381  -9.466  17.630  0.00  0.00    +0.042 C 
ATOM     13  C   UNL     1      -5.897 -10.283  14.206  0.00  0.00    +0.038 A 
ATOM     14  C   UNL     1      -7.563  -9.187  12.697  0.00  0.00    +0.068 C 
ATOM     15  C   UNL     1      -6.206  -9.728  12.983  0.00  0.00    -0.016 A 
ATOM     17  C   UNL     1      -5.042  -9.790  12.171  0.00  0.00    +0.003 A 
ATOM     18  C   UNL     1      -4.049 -10.412  12.934  0.00  0.00    +0.047 A 
ATOM     23  C   UNL     1      -4.732  -9.383  10.858  0.00  0.00    +0.010 A 
ATOM     24  C   UNL     1      -2.758 -10.645  12.447  0.00  0.00    +0.026 A 
ATOM     25  C   UNL     1      -3.444  -9.609  10.358  0.00  0.00    +0.001 A 
ATOM     28  C   UNL     1      -2.473 -10.231  11.142  0.00  0.00    +0.002 A 
ATOM     33  H   UNL     1      -4.112 -11.183  14.912  0.00  0.00    +0.166 HD
ENDROOT
BRANCH   8  16
ATOM      1  F   UNL     1     -13.446  -6.188  15.823  0.00  0.00    -0.205 F 
ATOM     16  C   UNL     1     -10.221  -8.748  16.128  0.00  0.00    -0.030 A 
ATOM     20  C   UNL     1     -10.023  -7.368  16.175  0.00  0.00    +0.008 A 
ATOM     21  C   UNL     1     -11.510  -9.263  15.979  0.00  0.00    +0.008 A 
ATOM     26  C   UNL     1     -11.113  -6.503  16.073  0.00  0.00    +0.038 A 
ATOM     27  C   UNL     1     -12.598  -8.398  15.876  0.00  0.00    +0.038 A 
ATOM     29  C   UNL     1     -12.400  -7.018  15.923  0.00  0.00    +0.123 A 
ENDBRANCH   8  16
BRANCH  11  19
ATOM      3  O   UNL     1      -9.603 -11.725  14.347  0.00  0.00    -0.249 OA
ATOM     19  C   UNL     1      -9.128 -10.986  13.495  0.00  0.00    +0.325 C 
BRANCH  19   2
ATOM      2  O   UNL     1      -9.001 -11.261  12.165  0.00  0.00    -0.467 OA
ATOM     31  C   UNL     1      -8.744 -12.632  11.843  0.00  0.00    +0.280 C 
ENDBRANCH  19   2
ENDBRANCH  11  19
BRANCH  10   6
ATOM      6  N   UNL     1      -6.521 -10.071  19.125  0.00  0.00    -0.303 NA
ATOM     34  H   UNL     1      -5.654  -9.559  18.955  0.00  0.00    +0.123 HD
BRANCH   6  22
ATOM     22  C   UNL     1      -6.205 -11.299  19.838  0.00  0.00    +0.170 C 
BRANCH  22  30
ATOM     30  C   UNL     1      -4.840 -11.742  19.539  0.00  0.00    -0.090 C 
ATOM     32  C   UNL     1      -3.723 -12.111  19.295  0.00  0.00    +0.005 C 
ENDBRANCH  22  30
ENDBRANCH   6  22
ENDBRANCH  10   6
TORSDOF 6
ENDMDL
MODEL 6
REMARK VINA RESULT:      -6.6     15.325     19.194
REMARK  Name = 25389946
REMARK  7 active torsions:
REMARK  status: ('A' for Active; 'I' for Inactive)
REMARK    1  A    between atoms: O_2  and  C_19
REMARK    2  A    between atoms: O_2  and  C_31
REMARK    3  A    between atoms: N_6  and  C_10
REMARK    4  A    between atoms: N_6  and  C_22
REMARK    5  A    between atoms: C_8  and  C_16
REMARK    6  A    between atoms: C_11  and  C_19
REMARK    7  A    between atoms: C_22  and  C_30
REMARK                            x       y       z     vdW  Elec       q    Type
REMARK                         _______ _______ _______ _____ _____    ______ ____
ROOT
ATOM      4  N   UNL     1      16.831  -7.422  25.870  0.00  0.00    -0.274 NA
ATOM      5  N   UNL     1      17.514  -3.755  26.313  0.00  0.00    -0.356 N 
ATOM      7  C   UNL     1      17.340  -6.281  26.692  0.00  0.00    +0.106 C 
ATOM      8  C   UNL     1      16.806  -8.693  26.638  0.00  0.00    +0.090 C 
ATOM      9  C   UNL     1      16.479  -6.092  27.950  0.00  0.00    +0.044 C 
ATOM     10  C   UNL     1      16.471  -7.369  28.790  0.00  0.00    +0.058 C 
ATOM     11  C   UNL     1      17.486  -7.512  24.536  0.00  0.00    +0.172 C 
ATOM     12  C   UNL     1      15.982  -8.540  27.940  0.00  0.00    +0.042 C 
ATOM     13  C   UNL     1      17.380  -5.037  25.856  0.00  0.00    +0.038 A 
ATOM     14  C   UNL     1      17.251  -6.247  23.671  0.00  0.00    +0.068 C 
ATOM     15  C   UNL     1      17.359  -5.002  24.479  0.00  0.00    -0.016 A 
ATOM     17  C   UNL     1      17.448  -3.641  24.078  0.00  0.00    +0.003 A 
ATOM     18  C   UNL     1      17.542  -2.880  25.247  0.00  0.00    +0.047 A 
ATOM     23  C   UNL     1      17.462  -2.977  22.835  0.00  0.00    +0.010 A 
ATOM     24  C   UNL     1      17.649  -1.485  25.232  0.00  0.00    +0.026 A 
ATOM     25  C   UNL     1      17.567  -1.582  22.806  0.00  0.00    +0.001 A 
ATOM     28  C   UNL     1      17.659  -0.849  23.988  0.00  0.00    +0.002 A 
ATOM     33  H   UNL     1      17.580  -3.482  27.283  0.00  0.00    +0.166 HD
ENDROOT
BRANCH   8  16
ATOM      1  F   UNL     1      14.683 -13.087  23.780  0.00  0.00    -0.205 F 
ATOM     16  C   UNL     1      16.233  -9.878  25.866  0.00  0.00    -0.030 A 
ATOM     20  C   UNL     1      14.920  -9.835  25.394  0.00  0.00    +0.008 A 
ATOM     21  C   UNL     1      17.021 -11.006  25.633  0.00  0.00    +0.008 A 
ATOM     26  C   UNL     1      14.397 -10.920  24.690  0.00  0.00    +0.038 A 
ATOM     27  C   UNL     1      16.497 -12.089  24.928  0.00  0.00    +0.038 A 
ATOM     29  C   UNL     1      15.185 -12.046  24.457  0.00  0.00    +0.123 A 
ENDBRANCH   8  16
BRANCH  11  19
ATOM      3  O   UNL     1      19.440  -8.411  25.626  0.00  0.00    -0.249 OA
ATOM     19  C   UNL     1      18.954  -7.793  24.688  0.00  0.00    +0.325 C 
BRANCH  19   2
ATOM      2  O   UNL     1      19.632  -7.257  23.633  0.00  0.00    -0.467 OA
ATOM     31  C   UNL     1      20.977  -7.720  23.469  0.00  0.00    +0.280 C 
ENDBRANCH  19   2
ENDBRANCH  11  19
BRANCH  10   6
ATOM      6  N   UNL     1      15.624  -7.191  29.968  0.00  0.00    -0.303 NA
ATOM     34  H   UNL     1      15.108  -8.053  30.147  0.00  0.00    +0.123 HD
BRANCH   6  22
ATOM     22  C   UNL     1      14.671  -6.112  29.759  0.00  0.00    +0.170 C 
BRANCH  22  30
ATOM     30  C   UNL     1      13.335  -6.496  30.222  0.00  0.00    -0.090 C 
ATOM     32  C   UNL     1      12.238  -6.808  30.597  0.00  0.00    +0.005 C 
ENDBRANCH  22  30
ENDBRANCH   6  22
ENDBRANCH  10   6
TORSDOF 6
ENDMDL
MODEL 7
REMARK VINA RESULT:      -6.5     28.436     31.626
REMARK  Name = 25389946
REMARK  7 active torsions:
REMARK  status: ('A' for Active; 'I' for Inactive)
REMARK    1  A    between atoms: O_2  and  C_19
REMARK    2  A    between atoms: O_2  and  C_31
REMARK    3  A    between atoms: N_6  and  C_10
REMARK    4  A    between atoms: N_6  and  C_22
REMARK    5  A    between atoms: C_8  and  C_16
REMARK    6  A    between atoms: C_11  and  C_19
REMARK    7  A    between atoms: C_22  and  C_30
REMARK                            x       y       z     vdW  Elec       q    Type
REMARK                         _______ _______ _______ _____ _____    ______ ____
ROOT
ATOM      4  N   UNL     1      -9.800  -9.556  17.291  0.00  0.00    -0.274 NA
ATOM      5  N   UNL     1      -7.273 -11.631  19.141  0.00  0.00    -0.356 N 
ATOM      7  C   UNL     1      -9.461 -10.707  18.184  0.00  0.00    +0.106 C 
ATOM      8  C   UNL     1     -11.266  -9.357  17.174  0.00  0.00    +0.090 C 
ATOM      9  C   UNL     1     -10.055 -10.502  19.586  0.00  0.00    +0.044 C 
ATOM     10  C   UNL     1     -11.574 -10.342  19.505  0.00  0.00    +0.058 C 
ATOM     11  C   UNL     1      -9.069  -9.594  15.995  0.00  0.00    +0.172 C 
ATOM     12  C   UNL     1     -11.918  -9.186  18.568  0.00  0.00    +0.042 C 
ATOM     13  C   UNL     1      -7.973 -10.884  18.234  0.00  0.00    +0.038 A 
ATOM     14  C   UNL     1      -7.531  -9.533  16.177  0.00  0.00    +0.068 C 
ATOM     15  C   UNL     1      -7.079 -10.373  17.319  0.00  0.00    -0.016 A 
ATOM     17  C   UNL     1      -5.776 -10.794  17.702  0.00  0.00    +0.003 A 
ATOM     18  C   UNL     1      -5.927 -11.581  18.849  0.00  0.00    +0.047 A 
ATOM     23  C   UNL     1      -4.481 -10.589  17.186  0.00  0.00    +0.010 A 
ATOM     24  C   UNL     1      -4.841 -12.172  19.505  0.00  0.00    +0.026 A 
ATOM     25  C   UNL     1      -3.387 -11.173  17.834  0.00  0.00    +0.001 A 
ATOM     28  C   UNL     1      -3.566 -11.952  18.976  0.00  0.00    +0.002 A 
ATOM     33  H   UNL     1      -7.675 -12.144  19.913  0.00  0.00    +0.166 HD
ENDROOT
BRANCH   8  16
ATOM      1  F   UNL     1     -12.750  -4.897  14.030  0.00  0.00    -0.205 F 
ATOM     16  C   UNL     1     -11.667  -8.153  16.326  0.00  0.00    -0.030 A 
ATOM     20  C   UNL     1     -12.574  -8.310  15.277  0.00  0.00    +0.008 A 
ATOM     21  C   UNL     1     -11.126  -6.896  16.598  0.00  0.00    +0.008 A 
ATOM     26  C   UNL     1     -12.940  -7.209  14.501  0.00  0.00    +0.038 A 
ATOM     27  C   UNL     1     -11.492  -5.797  15.823  0.00  0.00    +0.038 A 
ATOM     29  C   UNL     1     -12.399  -5.953  14.774  0.00  0.00    +0.123 A 
ENDBRANCH   8  16
BRANCH  11  19
ATOM      3  O   UNL     1      -9.193 -11.955  15.521  0.00  0.00    -0.249 OA
ATOM     19  C   UNL     1      -9.467 -10.805  15.201  0.00  0.00    +0.325 C 
BRANCH  19   2
ATOM      2  O   UNL     1     -10.167 -10.418  14.096  0.00  0.00    -0.467 OA
ATOM     31  C   UNL     1      -9.373  -9.962  12.995  0.00  0.00    +0.280 C 
ENDBRANCH  19   2
ENDBRANCH  11  19
BRANCH  10   6
ATOM      6  N   UNL     1     -12.126 -10.114  20.839  0.00  0.00    -0.303 NA
ATOM     34  H   UNL     1     -11.521 -10.552  21.534  0.00  0.00    +0.123 HD
BRANCH   6  22
ATOM     22  C   UNL     1     -13.457 -10.691  20.951  0.00  0.00    +0.170 C 
BRANCH  22  30
ATOM     30  C   UNL     1     -14.487  -9.649  20.891  0.00  0.00    -0.090 C 
ATOM     32  C   UNL     1     -15.332  -8.798  20.839  0.00  0.00    +0.005 C 
ENDBRANCH  22  30
ENDBRANCH   6  22
ENDBRANCH  10   6
TORSDOF 6
ENDMDL
MODEL 8
REMARK VINA RESULT:      -6.5     18.915     21.463
REMARK  Name = 25389946
REMARK  7 active torsions:
REMARK  status: ('A' for Active; 'I' for Inactive)
REMARK    1  A    between atoms: O_2  and  C_19
REMARK    2  A    between atoms: O_2  and  C_31
REMARK    3  A    between atoms: N_6  and  C_10
REMARK    4  A    between atoms: N_6  and  C_22
REMARK    5  A    between atoms: C_8  and  C_16
REMARK    6  A    between atoms: C_11  and  C_19
REMARK    7  A    between atoms: C_22  and  C_30
REMARK                            x       y       z     vdW  Elec       q    Type
REMARK                         _______ _______ _______ _____ _____    ______ ____
ROOT
ATOM      4  N   UNL     1      -0.722  10.901   4.705  0.00  0.00    -0.274 NA
ATOM      5  N   UNL     1       2.443  12.830   5.317  0.00  0.00    -0.356 N 
ATOM      7  C   UNL     1       0.344  11.839   4.235  0.00  0.00    +0.106 C 
ATOM      8  C   UNL     1      -1.642  10.512   3.607  0.00  0.00    +0.090 C 
ATOM      9  C   UNL     1       1.159  11.209   3.095  0.00  0.00    +0.044 C 
ATOM     10  C   UNL     1       0.245  10.841   1.926  0.00  0.00    +0.058 C 
ATOM     11  C   UNL     1      -1.395  11.366   5.948  0.00  0.00    +0.172 C 
ATOM     12  C   UNL     1      -0.862   9.908   2.414  0.00  0.00    +0.042 C 
ATOM     13  C   UNL     1       1.218  12.227   5.391  0.00  0.00    +0.038 A 
ATOM     14  C   UNL     1      -0.414  11.501   7.141  0.00  0.00    +0.068 C 
ATOM     15  C   UNL     1       0.883  12.097   6.721  0.00  0.00    -0.016 A 
ATOM     17  C   UNL     1       1.961  12.609   7.492  0.00  0.00    +0.003 A 
ATOM     18  C   UNL     1       2.927  13.061   6.588  0.00  0.00    +0.047 A 
ATOM     23  C   UNL     1       2.213  12.739   8.873  0.00  0.00    +0.010 A 
ATOM     24  C   UNL     1       4.136  13.635   6.998  0.00  0.00    +0.026 A 
ATOM     25  C   UNL     1       3.419  13.310   9.297  0.00  0.00    +0.001 A 
ATOM     28  C   UNL     1       4.364  13.751   8.373  0.00  0.00    +0.002 A 
ATOM     33  H   UNL     1       2.928  13.070   4.464  0.00  0.00    +0.166 HD
ENDROOT
BRANCH   8  16
ATOM      1  F   UNL     1      -5.606   6.774   5.120  0.00  0.00    -0.205 F 
ATOM     16  C   UNL     1      -2.712   9.504   4.016  0.00  0.00    -0.030 A 
ATOM     20  C   UNL     1      -2.398   8.475   4.905  0.00  0.00    +0.008 A 
ATOM     21  C   UNL     1      -4.005   9.609   3.500  0.00  0.00    +0.008 A 
ATOM     26  C   UNL     1      -3.376   7.553   5.277  0.00  0.00    +0.038 A 
ATOM     27  C   UNL     1      -4.981   8.687   3.873  0.00  0.00    +0.038 A 
ATOM     29  C   UNL     1      -4.667   7.658   4.762  0.00  0.00    +0.123 A 
ENDBRANCH   8  16
BRANCH  11  19
ATOM      3  O   UNL     1      -1.574  13.750   5.634  0.00  0.00    -0.249 OA
ATOM     19  C   UNL     1      -2.122  12.657   5.703  0.00  0.00    +0.325 C 
BRANCH  19   2
ATOM      2  O   UNL     1      -3.457  12.412   5.574  0.00  0.00    -0.467 OA
ATOM     31  C   UNL     1      -4.060  11.703   6.662  0.00  0.00    +0.280 C 
ENDBRANCH  19   2
ENDBRANCH  11  19
BRANCH  10   6
ATOM      6  N   UNL     1       1.023  10.213   0.859  0.00  0.00    -0.303 NA
ATOM     34  H   UNL     1       1.204   9.239   1.102  0.00  0.00    +0.123 HD
BRANCH   6  22
ATOM     22  C   UNL     1       2.297  10.894   0.681  0.00  0.00    +0.170 C 
BRANCH  22  30
ATOM     30  C   UNL     1       3.347   9.947   0.292  0.00  0.00    -0.090 C 
ATOM     32  C   UNL     1       4.203   9.169  -0.027  0.00  0.00    +0.005 C 
ENDBRANCH  22  30
ENDBRANCH   6  22
ENDBRANCH  10   6
TORSDOF 6
ENDMDL
MODEL 9
REMARK VINA RESULT:      -6.4     14.341     18.476
REMARK  Name = 25389946
REMARK  7 active torsions:
REMARK  status: ('A' for Active; 'I' for Inactive)
REMARK    1  A    between atoms: O_2  and  C_19
REMARK    2  A    between atoms: O_2  and  C_31
REMARK    3  A    between atoms: N_6  and  C_10
REMARK    4  A    between atoms: N_6  and  C_22
REMARK    5  A    between atoms: C_8  and  C_16
REMARK    6  A    between atoms: C_11  and  C_19
REMARK    7  A    between atoms: C_22  and  C_30
REMARK                            x       y       z     vdW  Elec       q    Type
REMARK                         _______ _______ _______ _____ _____    ______ ____
ROOT
ATOM      4  N   UNL     1       9.672   6.565   4.346  0.00  0.00    -0.274 NA
ATOM      5  N   UNL     1       9.656   7.089   0.626  0.00  0.00    -0.356 N 
ATOM      7  C   UNL     1       9.589   7.469   3.157  0.00  0.00    +0.106 C 
ATOM      8  C   UNL     1       9.410   7.289   5.614  0.00  0.00    +0.090 C 
ATOM      9  C   UNL     1       8.208   8.139   3.079  0.00  0.00    +0.044 C 
ATOM     10  C   UNL     1       7.927   8.935   4.353  0.00  0.00    +0.058 C 
ATOM     11  C   UNL     1      10.900   5.724   4.349  0.00  0.00    +0.172 C 
ATOM     12  C   UNL     1       8.043   8.017   5.568  0.00  0.00    +0.042 C 
ATOM     13  C   UNL     1       9.899   6.693   1.912  0.00  0.00    +0.038 A 
ATOM     14  C   UNL     1      10.985   4.789   3.116  0.00  0.00    +0.068 C 
ATOM     15  C   UNL     1      10.551   5.480   1.871  0.00  0.00    -0.016 A 
ATOM     17  C   UNL     1      10.679   5.101   0.507  0.00  0.00    +0.003 A 
ATOM     18  C   UNL     1      10.108   6.127  -0.253  0.00  0.00    +0.047 A 
ATOM     23  C   UNL     1      11.228   3.989  -0.161  0.00  0.00    +0.010 A 
ATOM     24  C   UNL     1      10.059   6.093  -1.651  0.00  0.00    +0.026 A 
ATOM     25  C   UNL     1      11.184   3.941  -1.559  0.00  0.00    +0.001 A 
ATOM     28  C   UNL     1      10.608   4.978  -2.291  0.00  0.00    +0.002 A 
ATOM     33  H   UNL     1       9.209   7.954   0.353  0.00  0.00    +0.166 HD
ENDROOT
BRANCH   8  16
ATOM      1  F   UNL     1       9.439   3.994  10.210  0.00  0.00    -0.205 F 
ATOM     16  C   UNL     1       9.417   6.400   6.855  0.00  0.00    -0.030 A 
ATOM     20  C   UNL     1       9.130   6.946   8.106  0.00  0.00    +0.008 A 
ATOM     21  C   UNL     1       9.713   5.041   6.738  0.00  0.00    +0.008 A 
ATOM     26  C   UNL     1       9.137   6.133   9.240  0.00  0.00    +0.038 A 
ATOM     27  C   UNL     1       9.720   4.229   7.871  0.00  0.00    +0.038 A 
ATOM     29  C   UNL     1       9.433   4.775   9.123  0.00  0.00    +0.123 A 
ENDBRANCH   8  16
BRANCH  11  19
ATOM      3  O   UNL     1      12.692   7.093   3.495  0.00  0.00    -0.249 OA
ATOM     19  C   UNL     1      12.127   6.585   4.454  0.00  0.00    +0.325 C 
BRANCH  19   2
ATOM      2  O   UNL     1      12.492   6.700   5.763  0.00  0.00    -0.467 OA
ATOM     31  C   UNL     1      13.165   7.916   6.109  0.00  0.00    +0.280 C 
ENDBRANCH  19   2
ENDBRANCH  11  19
BRANCH  10   6
ATOM      6  N   UNL     1       6.599   9.542   4.283  0.00  0.00    -0.303 NA
ATOM     34  H   UNL     1       6.061   9.092   3.542  0.00  0.00    +0.123 HD
BRANCH   6  22
ATOM     22  C   UNL     1       6.696  10.964   3.992  0.00  0.00    +0.170 C 
BRANCH  22  30
ATOM     30  C   UNL     1       7.521  11.649   4.993  0.00  0.00    -0.090 C 
ATOM     32  C   UNL     1       8.194  12.214   5.810  0.00  0.00    +0.005 C 
ENDBRANCH  22  30
ENDBRANCH   6  22
ENDBRANCH  10   6
TORSDOF 6
ENDMDL
MODEL 10
REMARK VINA RESULT:      -6.4     28.946     31.632
REMARK  Name = 25389946
REMARK  7 active torsions:
REMARK  status: ('A' for Active; 'I' for Inactive)
REMARK    1  A    between atoms: O_2  and  C_19
REMARK    2  A    between atoms: O_2  and  C_31
REMARK    3  A    between atoms: N_6  and  C_10
REMARK    4  A    between atoms: N_6  and  C_22
REMARK    5  A    between atoms: C_8  and  C_16
REMARK    6  A    between atoms: C_11  and  C_19
REMARK    7  A    between atoms: C_22  and  C_30
REMARK                            x       y       z     vdW  Elec       q    Type
REMARK                         _______ _______ _______ _____ _____    ______ ____
ROOT
ATOM      4  N   UNL     1      -9.708 -10.505  18.415  0.00  0.00    -0.274 NA
ATOM      5  N   UNL     1     -13.342  -9.696  18.913  0.00  0.00    -0.356 N 
ATOM      7  C   UNL     1     -11.022 -10.029  17.883  0.00  0.00    +0.106 C 
ATOM      8  C   UNL     1      -8.617 -10.349  17.421  0.00  0.00    +0.090 C 
ATOM      9  C   UNL     1     -10.935  -8.555  17.459  0.00  0.00    +0.044 C 
ATOM     10  C   UNL     1      -9.850  -8.367  16.397  0.00  0.00    +0.058 C 
ATOM     11  C   UNL     1      -9.792 -11.852  19.043  0.00  0.00    +0.172 C 
ATOM     12  C   UNL     1      -8.516  -8.883  16.931  0.00  0.00    +0.042 C 
ATOM     13  C   UNL     1     -12.091 -10.246  18.912  0.00  0.00    +0.038 A 
ATOM     14  C   UNL     1     -10.760 -11.885  20.253  0.00  0.00    +0.068 C 
ATOM     15  C   UNL     1     -11.997 -11.101  19.988  0.00  0.00    -0.016 A 
ATOM     17  C   UNL     1     -13.229 -11.044  20.696  0.00  0.00    +0.003 A 
ATOM     18  C   UNL     1     -14.054 -10.154  20.002  0.00  0.00    +0.047 A 
ATOM     23  C   UNL     1     -13.728 -11.665  21.859  0.00  0.00    +0.010 A 
ATOM     24  C   UNL     1     -15.356  -9.854  20.416  0.00  0.00    +0.026 A 
ATOM     25  C   UNL     1     -15.029 -11.371  22.285  0.00  0.00    +0.001 A 
ATOM     28  C   UNL     1     -15.829 -10.479  21.573  0.00  0.00    +0.002 A 
ATOM     33  H   UNL     1     -13.699  -9.047  18.225  0.00  0.00    +0.166 HD
ENDROOT
BRANCH   8  16
ATOM      1  F   UNL     1      -3.513 -11.867  19.325  0.00  0.00    -0.205 F 
ATOM     16  C   UNL     1      -7.240 -10.759  17.936  0.00  0.00    -0.030 A 
ATOM     20  C   UNL     1      -6.874 -10.478  19.252  0.00  0.00    +0.008 A 
ATOM     21  C   UNL     1      -6.345 -11.415  17.088  0.00  0.00    +0.008 A 
ATOM     26  C   UNL     1      -5.615 -10.852  19.722  0.00  0.00    +0.038 A 
ATOM     27  C   UNL     1      -5.087 -11.789  17.558  0.00  0.00    +0.038 A 
ATOM     29  C   UNL     1      -4.721 -11.507  18.875  0.00  0.00    +0.123 A 
ENDBRANCH   8  16
BRANCH  11  19
ATOM      3  O   UNL     1     -11.291 -12.987  17.534  0.00  0.00    -0.249 OA
ATOM     19  C   UNL     1     -10.173 -12.886  18.023  0.00  0.00    +0.325 C 
BRANCH  19   2
ATOM      2  O   UNL     1      -9.093 -13.670  17.742  0.00  0.00    -0.467 OA
ATOM     31  C   UNL     1      -8.948 -14.047  16.368  0.00  0.00    +0.280 C 
ENDBRANCH  19   2
ENDBRANCH  11  19
BRANCH  10   6
ATOM      6  N   UNL     1      -9.752  -6.957  16.024  0.00  0.00    -0.303 NA
ATOM     34  H   UNL     1      -9.006  -6.516  16.563  0.00  0.00    +0.123 HD
BRANCH   6  22
ATOM     22  C   UNL     1     -11.000  -6.262  16.301  0.00  0.00    +0.170 C 
BRANCH  22  30
ATOM     30  C   UNL     1     -11.639  -5.818  15.058  0.00  0.00    -0.090 C 
ATOM     32  C   UNL     1     -12.162  -5.459  14.039  0.00  0.00    +0.005 C 
ENDBRANCH  22  30
ENDBRANCH   6  22
ENDBRANCH  10   6
TORSDOF 6
ENDMDL
