MODEL 1
REMARK VINA RESULT:      -6.0      0.000      0.000
REMARK  Name = 75536648
REMARK  8 active torsions:
REMARK  status: ('A' for Active; 'I' for Inactive)
REMARK    1  A    between atoms: O_3  and  C_9
REMARK    2  A    between atoms: N_5  and  C_8
REMARK    3  A    between atoms: N_5  and  C_13
REMARK    4  A    between atoms: N_6  and  C_12
REMARK    5  A    between atoms: C_10  and  C_12
REMARK    6  A    between atoms: C_13  and  C_14
REMARK    7  A    between atoms: C_15  and  C_18
REMARK    8  A    between atoms: C_19  and  C_27
REMARK                            x       y       z     vdW  Elec       q    Type
REMARK                         _______ _______ _______ _____ _____    ______ ____
ROOT
ATOM      2  O   UNL     1      12.088  11.089  24.648  0.00  0.00    -0.371 OA
ATOM      8  C   UNL     1      12.369  12.717  22.951  0.00  0.00    +0.111 C 
ATOM      9  C   UNL     1      10.946  12.192  22.866  0.00  0.00    +0.164 C 
ATOM     10  C   UNL     1      10.907  11.007  23.829  0.00  0.00    +0.165 C 
ATOM     11  C   UNL     1      12.762  12.322  24.366  0.00  0.00    +0.181 C 
ENDROOT
BRANCH   9   3
ATOM      3  O   UNL     1      10.075  13.217  23.350  0.00  0.00    -0.388 OA
ATOM     29  H   UNL     1      10.182  13.257  24.315  0.00  0.00    +0.210 HD
ENDBRANCH   9   3
BRANCH   8   5
ATOM      5  N   UNL     1      13.241  12.070  21.973  0.00  0.00    -0.305 NA
ATOM     28  H   UNL     1      14.171  12.486  22.025  0.00  0.00    +0.123 HD
BRANCH   5  13
ATOM     13  C   UNL     1      12.731  12.245  20.619  0.00  0.00    +0.116 C 
BRANCH  13  14
ATOM     14  C   UNL     1      13.314  11.236  19.665  0.00  0.00    -0.032 A 
ATOM     16  C   UNL     1      12.501  10.251  19.106  0.00  0.00    +0.023 A 
ATOM     17  C   UNL     1      14.670  11.289  19.339  0.00  0.00    +0.005 A 
ATOM     19  C   UNL     1      13.043   9.317  18.222  0.00  0.00    +0.052 A 
ATOM     20  C   UNL     1      15.211  10.356  18.455  0.00  0.00    +0.002 A 
ATOM     21  C   UNL     1      14.398   9.371  17.896  0.00  0.00    +0.019 A 
BRANCH  19  27
ATOM      7  N   UNL     1      11.533   7.489  17.183  0.00  0.00    -0.191 NA
ATOM     27  C   UNL     1      12.209   8.308  17.648  0.00  0.00    +0.099 C 
ENDBRANCH  19  27
ENDBRANCH  13  14
ENDBRANCH   5  13
ENDBRANCH   8   5
BRANCH  10  12
ATOM     12  C   UNL     1      10.902   9.656  23.132  0.00  0.00    +0.138 C 
BRANCH  12   6
ATOM      4  O   UNL     1      11.657   7.228  21.799  0.00  0.00    -0.270 OA
ATOM      6  N   UNL     1      12.204   9.323  22.629  0.00  0.00    -0.309 N 
ATOM     15  C   UNL     1      12.481   8.117  21.993  0.00  0.00    +0.244 C 
ATOM     30  H   UNL     1      12.950   9.980  22.830  0.00  0.00    +0.149 HD
BRANCH  15  18
ATOM      1  F   UNL     1      17.789   7.350  20.334  0.00  0.00    -0.205 F 
ATOM     18  C   UNL     1      13.885   7.915  21.554  0.00  0.00    +0.037 A 
ATOM     22  C   UNL     1      14.199   6.876  20.677  0.00  0.00    +0.016 A 
ATOM     23  C   UNL     1      14.891   8.762  22.020  0.00  0.00    +0.016 A 
ATOM     24  C   UNL     1      15.518   6.686  20.264  0.00  0.00    +0.039 A 
ATOM     25  C   UNL     1      16.210   8.572  21.607  0.00  0.00    +0.039 A 
ATOM     26  C   UNL     1      16.524   7.534  20.729  0.00  0.00    +0.123 A 
ENDBRANCH  15  18
ENDBRANCH  12   6
ENDBRANCH  10  12
TORSDOF 8
ENDMDL
MODEL 2
REMARK VINA RESULT:      -5.6      2.172      3.545
REMARK  Name = 75536648
REMARK  8 active torsions:
REMARK  status: ('A' for Active; 'I' for Inactive)
REMARK    1  A    between atoms: O_3  and  C_9
REMARK    2  A    between atoms: N_5  and  C_8
REMARK    3  A    between atoms: N_5  and  C_13
REMARK    4  A    between atoms: N_6  and  C_12
REMARK    5  A    between atoms: C_10  and  C_12
REMARK    6  A    between atoms: C_13  and  C_14
REMARK    7  A    between atoms: C_15  and  C_18
REMARK    8  A    between atoms: C_19  and  C_27
REMARK                            x       y       z     vdW  Elec       q    Type
REMARK                         _______ _______ _______ _____ _____    ______ ____
ROOT
ATOM      2  O   UNL     1      12.467  13.348  23.891  0.00  0.00    -0.371 OA
ATOM      8  C   UNL     1      10.670  11.848  23.537  0.00  0.00    +0.111 C 
ATOM      9  C   UNL     1      11.384  11.430  24.810  0.00  0.00    +0.164 C 
ATOM     10  C   UNL     1      12.644  12.292  24.854  0.00  0.00    +0.165 C 
ATOM     11  C   UNL     1      11.129  13.288  23.380  0.00  0.00    +0.181 C 
ENDROOT
BRANCH   9   3
ATOM      3  O   UNL     1      10.543  11.775  25.913  0.00  0.00    -0.388 OA
ATOM     29  H   UNL     1      10.741  11.155  26.635  0.00  0.00    +0.210 HD
ENDBRANCH   9   3
BRANCH   8   5
ATOM      5  N   UNL     1      11.093  11.043  22.393  0.00  0.00    -0.305 NA
ATOM     28  H   UNL     1      10.619  11.377  21.554  0.00  0.00    +0.123 HD
BRANCH   5  13
ATOM     13  C   UNL     1      10.756   9.638  22.587  0.00  0.00    +0.116 C 
BRANCH  13  14
ATOM     14  C   UNL     1      11.425   8.755  21.567  0.00  0.00    -0.032 A 
ATOM     16  C   UNL     1      11.047   8.825  20.226  0.00  0.00    +0.023 A 
ATOM     17  C   UNL     1      12.424   7.865  21.964  0.00  0.00    +0.005 A 
ATOM     19  C   UNL     1      11.667   8.007  19.282  0.00  0.00    +0.052 A 
ATOM     20  C   UNL     1      13.045   7.048  21.020  0.00  0.00    +0.002 A 
ATOM     21  C   UNL     1      12.667   7.119  19.679  0.00  0.00    +0.019 A 
BRANCH  19  27
ATOM      7  N   UNL     1      10.967   8.138  16.793  0.00  0.00    -0.191 NA
ATOM     27  C   UNL     1      11.281   8.079  17.908  0.00  0.00    +0.099 C 
ENDBRANCH  19  27
ENDBRANCH  13  14
ENDBRANCH   5  13
ENDBRANCH   8   5
BRANCH  10  12
ATOM     12  C   UNL     1      13.913  11.532  24.501  0.00  0.00    +0.138 C 
BRANCH  12   6
ATOM      4  O   UNL     1      15.598  12.483  22.380  0.00  0.00    -0.270 OA
ATOM      6  N   UNL     1      13.899  11.097  23.135  0.00  0.00    -0.309 N 
ATOM     15  C   UNL     1      14.756  11.615  22.169  0.00  0.00    +0.244 C 
ATOM     30  H   UNL     1      13.170  10.441  22.875  0.00  0.00    +0.149 HD
BRANCH  15  18
ATOM      1  F   UNL     1      14.153   9.581  16.971  0.00  0.00    -0.205 F 
ATOM     18  C   UNL     1      14.597  11.077  20.794  0.00  0.00    +0.037 A 
ATOM     22  C   UNL     1      13.693  11.671  19.913  0.00  0.00    +0.016 A 
ATOM     23  C   UNL     1      15.350   9.977  20.384  0.00  0.00    +0.016 A 
ATOM     24  C   UNL     1      13.544  11.167  18.621  0.00  0.00    +0.039 A 
ATOM     25  C   UNL     1      15.200   9.472  19.091  0.00  0.00    +0.039 A 
ATOM     26  C   UNL     1      14.297  10.067  18.210  0.00  0.00    +0.123 A 
ENDBRANCH  15  18
ENDBRANCH  12   6
ENDBRANCH  10  12
TORSDOF 8
ENDMDL
MODEL 3
REMARK VINA RESULT:      -5.5      3.877      6.239
REMARK  Name = 75536648
REMARK  8 active torsions:
REMARK  status: ('A' for Active; 'I' for Inactive)
REMARK    1  A    between atoms: O_3  and  C_9
REMARK    2  A    between atoms: N_5  and  C_8
REMARK    3  A    between atoms: N_5  and  C_13
REMARK    4  A    between atoms: N_6  and  C_12
REMARK    5  A    between atoms: C_10  and  C_12
REMARK    6  A    between atoms: C_13  and  C_14
REMARK    7  A    between atoms: C_15  and  C_18
REMARK    8  A    between atoms: C_19  and  C_27
REMARK                            x       y       z     vdW  Elec       q    Type
REMARK                         _______ _______ _______ _____ _____    ______ ____
ROOT
ATOM      2  O   UNL     1      20.598   7.424  20.563  0.00  0.00    -0.371 OA
ATOM      8  C   UNL     1      19.135   8.559  22.040  0.00  0.00    +0.111 C 
ATOM      9  C   UNL     1      18.941   7.066  22.245  0.00  0.00    +0.164 C 
ATOM     10  C   UNL     1      19.741   6.410  21.121  0.00  0.00    +0.165 C 
ATOM     11  C   UNL     1      20.497   8.607  21.367  0.00  0.00    +0.181 C 
ENDROOT
BRANCH   9   3
ATOM      3  O   UNL     1      19.529   6.720  23.501  0.00  0.00    -0.388 OA
ATOM     29  H   UNL     1      19.150   5.867  23.773  0.00  0.00    +0.210 HD
ENDBRANCH   9   3
BRANCH   8   5
ATOM      5  N   UNL     1      18.107   9.120  21.167  0.00  0.00    -0.305 NA
ATOM     28  H   UNL     1      18.439  10.004  20.781  0.00  0.00    +0.123 HD
BRANCH   5  13
ATOM     13  C   UNL     1      16.873   9.371  21.902  0.00  0.00    +0.116 C 
BRANCH  13  14
ATOM     14  C   UNL     1      15.860  10.106  21.065  0.00  0.00    -0.032 A 
ATOM     16  C   UNL     1      14.614  10.431  21.602  0.00  0.00    +0.023 A 
ATOM     17  C   UNL     1      16.168  10.462  19.752  0.00  0.00    +0.005 A 
ATOM     19  C   UNL     1      13.676  11.112  20.825  0.00  0.00    +0.052 A 
ATOM     20  C   UNL     1      15.231  11.144  18.977  0.00  0.00    +0.002 A 
ATOM     21  C   UNL     1      13.985  11.469  19.513  0.00  0.00    +0.019 A 
BRANCH  19  27
ATOM      7  N   UNL     1      11.364  11.716  21.821  0.00  0.00    -0.191 NA
ATOM     27  C   UNL     1      12.400  11.446  21.375  0.00  0.00    +0.099 C 
ENDBRANCH  19  27
ENDBRANCH  13  14
ENDBRANCH   5  13
ENDBRANCH   8   5
BRANCH  10  12
ATOM     12  C   UNL     1      18.875   5.850  20.004  0.00  0.00    +0.138 C 
BRANCH  12   6
ATOM      4  O   UNL     1      16.796   5.500  18.055  0.00  0.00    -0.270 OA
ATOM      6  N   UNL     1      17.532   6.349  20.084  0.00  0.00    -0.309 N 
ATOM     15  C   UNL     1      16.586   6.130  19.088  0.00  0.00    +0.244 C 
ATOM     30  H   UNL     1      17.317   6.948  20.874  0.00  0.00    +0.149 HD
BRANCH  15  18
ATOM      1  F   UNL     1      11.529   8.420  19.929  0.00  0.00    -0.205 F 
ATOM     18  C   UNL     1      15.248   6.736  19.310  0.00  0.00    +0.037 A 
ATOM     22  C   UNL     1      14.628   6.621  20.555  0.00  0.00    +0.016 A 
ATOM     23  C   UNL     1      14.611   7.419  18.274  0.00  0.00    +0.016 A 
ATOM     24  C   UNL     1      13.373   7.191  20.764  0.00  0.00    +0.039 A 
ATOM     25  C   UNL     1      13.354   7.988  18.483  0.00  0.00    +0.039 A 
ATOM     26  C   UNL     1      12.735   7.874  19.728  0.00  0.00    +0.123 A 
ENDBRANCH  15  18
ENDBRANCH  12   6
ENDBRANCH  10  12
TORSDOF 8
ENDMDL
MODEL 4
REMARK VINA RESULT:      -5.5     14.284     18.018
REMARK  Name = 75536648
REMARK  8 active torsions:
REMARK  status: ('A' for Active; 'I' for Inactive)
REMARK    1  A    between atoms: O_3  and  C_9
REMARK    2  A    between atoms: N_5  and  C_8
REMARK    3  A    between atoms: N_5  and  C_13
REMARK    4  A    between atoms: N_6  and  C_12
REMARK    5  A    between atoms: C_10  and  C_12
REMARK    6  A    between atoms: C_13  and  C_14
REMARK    7  A    between atoms: C_15  and  C_18
REMARK    8  A    between atoms: C_19  and  C_27
REMARK                            x       y       z     vdW  Elec       q    Type
REMARK                         _______ _______ _______ _____ _____    ______ ____
ROOT
ATOM      2  O   UNL     1      12.656   4.189   1.607  0.00  0.00    -0.371 OA
ATOM      8  C   UNL     1      10.352   4.440   2.094  0.00  0.00    +0.111 C 
ATOM      9  C   UNL     1      10.638   5.173   0.794  0.00  0.00    +0.164 C 
ATOM     10  C   UNL     1      12.160   5.156   0.662  0.00  0.00    +0.165 C 
ATOM     11  C   UNL     1      11.542   3.500   2.190  0.00  0.00    +0.181 C 
ENDROOT
BRANCH   9   3
ATOM      3  O   UNL     1      10.068   4.408  -0.271  0.00  0.00    -0.388 OA
ATOM     29  H   UNL     1       9.865   3.525   0.082  0.00  0.00    +0.210 HD
ENDBRANCH   9   3
BRANCH   8   5
ATOM      5  N   UNL     1      10.323   5.356   3.232  0.00  0.00    -0.305 NA
ATOM     28  H   UNL     1      11.066   6.047   3.126  0.00  0.00    +0.123 HD
BRANCH   5  13
ATOM     13  C   UNL     1      10.530   4.642   4.486  0.00  0.00    +0.116 C 
BRANCH  13  14
ATOM     14  C   UNL     1       9.870   5.341   5.645  0.00  0.00    -0.032 A 
ATOM     16  C   UNL     1      10.119   4.915   6.950  0.00  0.00    +0.023 A 
ATOM     17  C   UNL     1       9.011   6.415   5.414  0.00  0.00    +0.005 A 
ATOM     19  C   UNL     1       9.508   5.564   8.024  0.00  0.00    +0.052 A 
ATOM     20  C   UNL     1       8.401   7.064   6.487  0.00  0.00    +0.002 A 
ATOM     21  C   UNL     1       8.650   6.638   7.792  0.00  0.00    +0.019 A 
BRANCH  19  27
ATOM      7  N   UNL     1       9.969   4.776  10.446  0.00  0.00    -0.191 NA
ATOM     27  C   UNL     1       9.763   5.129   9.361  0.00  0.00    +0.099 C 
ENDBRANCH  19  27
ENDBRANCH  13  14
ENDBRANCH   5  13
ENDBRANCH   8   5
BRANCH  10  12
ATOM     12  C   UNL     1      12.812   6.496   0.964  0.00  0.00    +0.138 C 
BRANCH  12   6
ATOM      4  O   UNL     1      14.507   7.129   3.193  0.00  0.00    -0.270 OA
ATOM      6  N   UNL     1      12.396   7.003   2.240  0.00  0.00    -0.309 N 
ATOM     15  C   UNL     1      13.291   7.283   3.268  0.00  0.00    +0.244 C 
ATOM     30  H   UNL     1      11.396   7.074   2.397  0.00  0.00    +0.149 HD
BRANCH  15  18
ATOM      1  F   UNL     1      11.051   9.153   8.065  0.00  0.00    -0.205 F 
ATOM     18  C   UNL     1      12.699   7.777   4.537  0.00  0.00    +0.037 A 
ATOM     22  C   UNL     1      11.763   8.812   4.514  0.00  0.00    +0.016 A 
ATOM     23  C   UNL     1      13.079   7.208   5.753  0.00  0.00    +0.016 A 
ATOM     24  C   UNL     1      11.206   9.276   5.705  0.00  0.00    +0.039 A 
ATOM     25  C   UNL     1      12.521   7.672   6.945  0.00  0.00    +0.039 A 
ATOM     26  C   UNL     1      11.585   8.706   6.921  0.00  0.00    +0.123 A 
ENDBRANCH  15  18
ENDBRANCH  12   6
ENDBRANCH  10  12
TORSDOF 8
ENDMDL
MODEL 5
REMARK VINA RESULT:      -5.4      4.121      6.182
REMARK  Name = 75536648
REMARK  8 active torsions:
REMARK  status: ('A' for Active; 'I' for Inactive)
REMARK    1  A    between atoms: O_3  and  C_9
REMARK    2  A    between atoms: N_5  and  C_8
REMARK    3  A    between atoms: N_5  and  C_13
REMARK    4  A    between atoms: N_6  and  C_12
REMARK    5  A    between atoms: C_10  and  C_12
REMARK    6  A    between atoms: C_13  and  C_14
REMARK    7  A    between atoms: C_15  and  C_18
REMARK    8  A    between atoms: C_19  and  C_27
REMARK                            x       y       z     vdW  Elec       q    Type
REMARK                         _______ _______ _______ _____ _____    ______ ____
ROOT
ATOM      2  O   UNL     1      20.636   7.216  20.467  0.00  0.00    -0.371 OA
ATOM      8  C   UNL     1      19.372   8.470  22.028  0.00  0.00    +0.111 C 
ATOM      9  C   UNL     1      19.040   7.002  22.229  0.00  0.00    +0.164 C 
ATOM     10  C   UNL     1      19.712   6.285  21.059  0.00  0.00    +0.165 C 
ATOM     11  C   UNL     1      20.696   8.391  21.285  0.00  0.00    +0.181 C 
ENDROOT
BRANCH   9   3
ATOM      3  O   UNL     1      19.653   6.581  23.449  0.00  0.00    -0.388 OA
ATOM     29  H   UNL     1      20.512   6.186  23.222  0.00  0.00    +0.210 HD
ENDBRANCH   9   3
BRANCH   8   5
ATOM      5  N   UNL     1      18.362   9.144  21.215  0.00  0.00    -0.305 NA
ATOM     28  H   UNL     1      18.825   9.675  20.477  0.00  0.00    +0.123 HD
BRANCH   5  13
ATOM     13  C   UNL     1      17.569  10.065  22.020  0.00  0.00    +0.116 C 
BRANCH  13  14
ATOM     14  C   UNL     1      16.243  10.374  21.376  0.00  0.00    -0.032 A 
ATOM     16  C   UNL     1      16.089  10.245  19.996  0.00  0.00    +0.023 A 
ATOM     17  C   UNL     1      15.167  10.788  22.162  0.00  0.00    +0.005 A 
ATOM     19  C   UNL     1      14.860  10.530  19.401  0.00  0.00    +0.052 A 
ATOM     20  C   UNL     1      13.939  11.073  21.567  0.00  0.00    +0.002 A 
ATOM     21  C   UNL     1      13.785  10.944  20.187  0.00  0.00    +0.019 A 
BRANCH  19  27
ATOM      7  N   UNL     1      14.574  10.290  16.839  0.00  0.00    -0.191 NA
ATOM     27  C   UNL     1      14.702  10.398  17.987  0.00  0.00    +0.099 C 
ENDBRANCH  19  27
ENDBRANCH  13  14
ENDBRANCH   5  13
ENDBRANCH   8   5
BRANCH  10  12
ATOM     12  C   UNL     1      18.737   5.830  19.984  0.00  0.00    +0.138 C 
BRANCH  12   6
ATOM      4  O   UNL     1      16.501   5.824  18.184  0.00  0.00    -0.270 OA
ATOM      6  N   UNL     1      17.399   6.255  20.278  0.00  0.00    -0.309 N 
ATOM     15  C   UNL     1      16.372   6.217  19.340  0.00  0.00    +0.244 C 
ATOM     30  H   UNL     1      17.245   6.670  21.191  0.00  0.00    +0.149 HD
BRANCH  15  18
ATOM      1  F   UNL     1      11.373   8.110  21.056  0.00  0.00    -0.205 F 
ATOM     18  C   UNL     1      15.050   6.717  19.794  0.00  0.00    +0.037 A 
ATOM     22  C   UNL     1      14.039   6.960  18.864  0.00  0.00    +0.016 A 
ATOM     23  C   UNL     1      14.819   6.946  21.151  0.00  0.00    +0.016 A 
ATOM     24  C   UNL     1      12.797   7.429  19.291  0.00  0.00    +0.039 A 
ATOM     25  C   UNL     1      13.576   7.417  21.578  0.00  0.00    +0.039 A 
ATOM     26  C   UNL     1      12.565   7.658  20.647  0.00  0.00    +0.123 A 
ENDBRANCH  15  18
ENDBRANCH  12   6
ENDBRANCH  10  12
TORSDOF 8
ENDMDL
MODEL 6
REMARK VINA RESULT:      -5.2     26.331     28.939
REMARK  Name = 75536648
REMARK  8 active torsions:
REMARK  status: ('A' for Active; 'I' for Inactive)
REMARK    1  A    between atoms: O_3  and  C_9
REMARK    2  A    between atoms: N_5  and  C_8
REMARK    3  A    between atoms: N_5  and  C_13
REMARK    4  A    between atoms: N_6  and  C_12
REMARK    5  A    between atoms: C_10  and  C_12
REMARK    6  A    between atoms: C_13  and  C_14
REMARK    7  A    between atoms: C_15  and  C_18
REMARK    8  A    between atoms: C_19  and  C_27
REMARK                            x       y       z     vdW  Elec       q    Type
REMARK                         _______ _______ _______ _____ _____    ______ ____
ROOT
ATOM      2  O   UNL     1      -3.202 -12.334  15.323  0.00  0.00    -0.371 OA
ATOM      8  C   UNL     1      -1.662 -11.150  13.968  0.00  0.00    +0.111 C 
ATOM      9  C   UNL     1      -1.791 -10.408  15.287  0.00  0.00    +0.164 C 
ATOM     10  C   UNL     1      -2.948 -11.095  16.011  0.00  0.00    +0.165 C 
ATOM     11  C   UNL     1      -2.182 -12.531  14.335  0.00  0.00    +0.181 C 
ENDROOT
BRANCH   9   3
ATOM      3  O   UNL     1      -0.586 -10.621  16.026  0.00  0.00    -0.388 OA
ATOM     29  H   UNL     1      -0.788 -10.463  16.963  0.00  0.00    +0.210 HD
ENDBRANCH   9   3
BRANCH   8   5
ATOM      5  N   UNL     1      -2.490 -10.546  12.927  0.00  0.00    -0.305 NA
ATOM     28  H   UNL     1      -3.338 -10.168  13.350  0.00  0.00    +0.123 HD
BRANCH   5  13
ATOM     13  C   UNL     1      -2.874 -11.531  11.923  0.00  0.00    +0.116 C 
BRANCH  13  14
ATOM     14  C   UNL     1      -3.446 -10.882  10.691  0.00  0.00    -0.032 A 
ATOM     16  C   UNL     1      -3.991 -11.669   9.676  0.00  0.00    +0.023 A 
ATOM     17  C   UNL     1      -3.432  -9.492  10.564  0.00  0.00    +0.005 A 
ATOM     19  C   UNL     1      -4.521 -11.067   8.534  0.00  0.00    +0.052 A 
ATOM     20  C   UNL     1      -3.963  -8.891   9.424  0.00  0.00    +0.002 A 
ATOM     21  C   UNL     1      -4.507  -9.678   8.409  0.00  0.00    +0.019 A 
BRANCH  19  27
ATOM      7  N   UNL     1      -5.533 -12.527   6.651  0.00  0.00    -0.191 NA
ATOM     27  C   UNL     1      -5.080 -11.873   7.495  0.00  0.00    +0.099 C 
ENDBRANCH  19  27
ENDBRANCH  13  14
ENDBRANCH   5  13
ENDBRANCH   8   5
BRANCH  10  12
ATOM     12  C   UNL     1      -4.232 -10.280  16.015  0.00  0.00    +0.138 C 
BRANCH  12   6
ATOM      4  O   UNL     1      -6.969 -10.814  15.330  0.00  0.00    -0.270 OA
ATOM      6  N   UNL     1      -4.816 -10.219  14.706  0.00  0.00    -0.309 N 
ATOM     15  C   UNL     1      -6.158 -10.495  14.465  0.00  0.00    +0.244 C 
ATOM     30  H   UNL     1      -4.182 -10.042  13.934  0.00  0.00    +0.149 HD
BRANCH  15  18
ATOM      1  F   UNL     1      -7.831 -10.186   9.114  0.00  0.00    -0.205 F 
ATOM     18  C   UNL     1      -6.601 -10.413  13.050  0.00  0.00    +0.037 A 
ATOM     22  C   UNL     1      -6.892 -11.579  12.341  0.00  0.00    +0.016 A 
ATOM     23  C   UNL     1      -6.725  -9.170  12.428  0.00  0.00    +0.016 A 
ATOM     24  C   UNL     1      -7.308 -11.502  11.012  0.00  0.00    +0.039 A 
ATOM     25  C   UNL     1      -7.141  -9.093  11.098  0.00  0.00    +0.039 A 
ATOM     26  C   UNL     1      -7.433 -10.259  10.390  0.00  0.00    +0.123 A 
ENDBRANCH  15  18
ENDBRANCH  12   6
ENDBRANCH  10  12
TORSDOF 8
ENDMDL
MODEL 7
REMARK VINA RESULT:      -5.2     26.965     29.075
REMARK  Name = 75536648
REMARK  8 active torsions:
REMARK  status: ('A' for Active; 'I' for Inactive)
REMARK    1  A    between atoms: O_3  and  C_9
REMARK    2  A    between atoms: N_5  and  C_8
REMARK    3  A    between atoms: N_5  and  C_13
REMARK    4  A    between atoms: N_6  and  C_12
REMARK    5  A    between atoms: C_10  and  C_12
REMARK    6  A    between atoms: C_13  and  C_14
REMARK    7  A    between atoms: C_15  and  C_18
REMARK    8  A    between atoms: C_19  and  C_27
REMARK                            x       y       z     vdW  Elec       q    Type
REMARK                         _______ _______ _______ _____ _____    ______ ____
ROOT
ATOM      2  O   UNL     1     -17.642   5.363  23.602  0.00  0.00    -0.371 OA
ATOM      8  C   UNL     1     -15.474   4.897  22.771  0.00  0.00    +0.111 C 
ATOM      9  C   UNL     1     -15.823   3.828  23.793  0.00  0.00    +0.164 C 
ATOM     10  C   UNL     1     -17.121   4.313  24.437  0.00  0.00    +0.165 C 
ATOM     11  C   UNL     1     -16.846   5.446  22.413  0.00  0.00    +0.181 C 
ENDROOT
BRANCH   9   3
ATOM      3  O   UNL     1     -16.079   2.614  23.082  0.00  0.00    -0.388 OA
ATOM     29  H   UNL     1     -16.895   2.744  22.569  0.00  0.00    +0.210 HD
ENDBRANCH   9   3
BRANCH   8   5
ATOM      5  N   UNL     1     -14.634   5.941  23.351  0.00  0.00    -0.305 NA
ATOM     28  H   UNL     1     -14.890   6.074  24.330  0.00  0.00    +0.123 HD
BRANCH   5  13
ATOM     13  C   UNL     1     -14.812   7.208  22.651  0.00  0.00    +0.116 C 
BRANCH  13  14
ATOM     14  C   UNL     1     -13.637   7.531  21.767  0.00  0.00    -0.032 A 
ATOM     16  C   UNL     1     -13.393   8.849  21.384  0.00  0.00    +0.023 A 
ATOM     17  C   UNL     1     -12.792   6.510  21.330  0.00  0.00    +0.005 A 
ATOM     19  C   UNL     1     -12.304   9.148  20.564  0.00  0.00    +0.052 A 
ATOM     20  C   UNL     1     -11.703   6.809  20.512  0.00  0.00    +0.002 A 
ATOM     21  C   UNL     1     -11.459   8.127  20.129  0.00  0.00    +0.019 A 
BRANCH  19  27
ATOM      7  N   UNL     1     -11.848  11.596  19.854  0.00  0.00    -0.191 NA
ATOM     27  C   UNL     1     -12.052  10.499  20.172  0.00  0.00    +0.099 C 
ENDBRANCH  19  27
ENDBRANCH  13  14
ENDBRANCH   5  13
ENDBRANCH   8   5
BRANCH  10  12
ATOM     12  C   UNL     1     -16.933   4.867  25.840  0.00  0.00    +0.138 C 
BRANCH  12   6
ATOM      4  O   UNL     1     -17.260   4.571  28.677  0.00  0.00    -0.270 OA
ATOM      6  N   UNL     1     -16.258   3.927  26.688  0.00  0.00    -0.309 N 
ATOM     15  C   UNL     1     -16.479   3.853  28.059  0.00  0.00    +0.244 C 
ATOM     30  H   UNL     1     -15.537   3.360  26.253  0.00  0.00    +0.149 HD
BRANCH  15  18
ATOM      1  F   UNL     1     -13.460   0.034  30.856  0.00  0.00    -0.205 F 
ATOM     18  C   UNL     1     -15.681   2.842  28.799  0.00  0.00    +0.037 A 
ATOM     22  C   UNL     1     -14.638   3.250  29.631  0.00  0.00    +0.016 A 
ATOM     23  C   UNL     1     -15.974   1.485  28.662  0.00  0.00    +0.016 A 
ATOM     24  C   UNL     1     -13.888   2.301  30.326  0.00  0.00    +0.039 A 
ATOM     25  C   UNL     1     -15.223   0.536  29.357  0.00  0.00    +0.039 A 
ATOM     26  C   UNL     1     -14.181   0.944  30.189  0.00  0.00    +0.123 A 
ENDBRANCH  15  18
ENDBRANCH  12   6
ENDBRANCH  10  12
TORSDOF 8
ENDMDL
MODEL 8
REMARK VINA RESULT:      -5.2     26.862     29.371
REMARK  Name = 75536648
REMARK  8 active torsions:
REMARK  status: ('A' for Active; 'I' for Inactive)
REMARK    1  A    between atoms: O_3  and  C_9
REMARK    2  A    between atoms: N_5  and  C_8
REMARK    3  A    between atoms: N_5  and  C_13
REMARK    4  A    between atoms: N_6  and  C_12
REMARK    5  A    between atoms: C_10  and  C_12
REMARK    6  A    between atoms: C_13  and  C_14
REMARK    7  A    between atoms: C_15  and  C_18
REMARK    8  A    between atoms: C_19  and  C_27
REMARK                            x       y       z     vdW  Elec       q    Type
REMARK                         _______ _______ _______ _____ _____    ______ ____
ROOT
ATOM      2  O   UNL     1     -15.902   3.002  23.203  0.00  0.00    -0.371 OA
ATOM      8  C   UNL     1     -16.955   3.817  25.161  0.00  0.00    +0.111 C 
ATOM      9  C   UNL     1     -16.603   5.010  24.289  0.00  0.00    +0.164 C 
ATOM     10  C   UNL     1     -15.742   4.433  23.167  0.00  0.00    +0.165 C 
ATOM     11  C   UNL     1     -16.920   2.676  24.158  0.00  0.00    +0.181 C 
ENDROOT
BRANCH   9   3
ATOM      3  O   UNL     1     -17.819   5.515  23.732  0.00  0.00    -0.388 OA
ATOM     29  H   UNL     1     -18.175   6.168  24.357  0.00  0.00    +0.210 HD
ENDBRANCH   9   3
BRANCH   8   5
ATOM      5  N   UNL     1     -15.965   3.610  26.215  0.00  0.00    -0.305 NA
ATOM     28  H   UNL     1     -15.536   2.692  26.097  0.00  0.00    +0.123 HD
BRANCH   5  13
ATOM     13  C   UNL     1     -16.583   3.666  27.534  0.00  0.00    +0.116 C 
BRANCH  13  14
ATOM     14  C   UNL     1     -15.859   2.799  28.530  0.00  0.00    -0.032 A 
ATOM     16  C   UNL     1     -14.963   3.371  29.433  0.00  0.00    +0.023 A 
ATOM     17  C   UNL     1     -16.086   1.422  28.550  0.00  0.00    +0.005 A 
ATOM     19  C   UNL     1     -14.293   2.566  30.356  0.00  0.00    +0.052 A 
ATOM     20  C   UNL     1     -15.417   0.619  29.472  0.00  0.00    +0.002 A 
ATOM     21  C   UNL     1     -14.521   1.191  30.375  0.00  0.00    +0.019 A 
BRANCH  19  27
ATOM      7  N   UNL     1     -12.631   3.627  32.034  0.00  0.00    -0.191 NA
ATOM     27  C   UNL     1     -13.376   3.152  31.282  0.00  0.00    +0.099 C 
ENDBRANCH  19  27
ENDBRANCH  13  14
ENDBRANCH   5  13
ENDBRANCH   8   5
BRANCH  10  12
ATOM     12  C   UNL     1     -14.262   4.751  23.311  0.00  0.00    +0.138 C 
BRANCH  12   6
ATOM      4  O   UNL     1     -14.396   7.518  22.558  0.00  0.00    -0.270 OA
ATOM      6  N   UNL     1     -13.735   5.340  22.113  0.00  0.00    -0.309 N 
ATOM     15  C   UNL     1     -13.846   6.697  21.829  0.00  0.00    +0.244 C 
ATOM     30  H   UNL     1     -13.342   4.702  21.429  0.00  0.00    +0.149 HD
BRANCH  15  18
ATOM      1  F   UNL     1     -11.675   8.389  16.935  0.00  0.00    -0.205 F 
ATOM     18  C   UNL     1     -13.272   7.145  20.534  0.00  0.00    +0.037 A 
ATOM     22  C   UNL     1     -14.102   7.683  19.551  0.00  0.00    +0.016 A 
ATOM     23  C   UNL     1     -11.901   7.026  20.301  0.00  0.00    +0.016 A 
ATOM     24  C   UNL     1     -13.563   8.104  18.336  0.00  0.00    +0.039 A 
ATOM     25  C   UNL     1     -11.362   7.446  19.085  0.00  0.00    +0.039 A 
ATOM     26  C   UNL     1     -12.193   7.986  18.102  0.00  0.00    +0.123 A 
ENDBRANCH  15  18
ENDBRANCH  12   6
ENDBRANCH  10  12
TORSDOF 8
ENDMDL
MODEL 9
REMARK VINA RESULT:      -5.1     24.396     26.641
REMARK  Name = 75536648
REMARK  8 active torsions:
REMARK  status: ('A' for Active; 'I' for Inactive)
REMARK    1  A    between atoms: O_3  and  C_9
REMARK    2  A    between atoms: N_5  and  C_8
REMARK    3  A    between atoms: N_5  and  C_13
REMARK    4  A    between atoms: N_6  and  C_12
REMARK    5  A    between atoms: C_10  and  C_12
REMARK    6  A    between atoms: C_13  and  C_14
REMARK    7  A    between atoms: C_15  and  C_18
REMARK    8  A    between atoms: C_19  and  C_27
REMARK                            x       y       z     vdW  Elec       q    Type
REMARK                         _______ _______ _______ _____ _____    ______ ____
ROOT
ATOM      2  O   UNL     1      -9.716   9.704  16.946  0.00  0.00    -0.371 OA
ATOM      8  C   UNL     1     -11.916   9.579  16.081  0.00  0.00    +0.111 C 
ATOM      9  C   UNL     1     -11.356  10.948  15.737  0.00  0.00    +0.164 C 
ATOM     10  C   UNL     1     -10.039  11.036  16.507  0.00  0.00    +0.165 C 
ATOM     11  C   UNL     1     -10.651   8.786  16.365  0.00  0.00    +0.181 C 
ENDROOT
BRANCH   9   3
ATOM      3  O   UNL     1     -11.079  10.965  14.334  0.00  0.00    -0.388 OA
ATOM     29  H   UNL     1     -11.822  11.414  13.897  0.00  0.00    +0.210 HD
ENDBRANCH   9   3
BRANCH   8   5
ATOM      5  N   UNL     1     -12.771   9.630  17.264  0.00  0.00    -0.305 NA
ATOM     28  H   UNL     1     -12.195   9.807  18.088  0.00  0.00    +0.123 HD
BRANCH   5  13
ATOM     13  C   UNL     1     -13.477   8.369  17.457  0.00  0.00    +0.116 C 
BRANCH  13  14
ATOM     14  C   UNL     1     -13.264   7.811  18.839  0.00  0.00    -0.032 A 
ATOM     16  C   UNL     1     -14.357   7.415  19.609  0.00  0.00    +0.023 A 
ATOM     17  C   UNL     1     -11.971   7.690  19.349  0.00  0.00    +0.005 A 
ATOM     19  C   UNL     1     -14.158   6.898  20.890  0.00  0.00    +0.052 A 
ATOM     20  C   UNL     1     -11.772   7.172  20.628  0.00  0.00    +0.002 A 
ATOM     21  C   UNL     1     -12.865   6.776  21.399  0.00  0.00    +0.019 A 
BRANCH  19  27
ATOM      7  N   UNL     1     -16.186   6.162  22.320  0.00  0.00    -0.191 NA
ATOM     27  C   UNL     1     -15.277   6.492  21.679  0.00  0.00    +0.099 C 
ENDBRANCH  19  27
ENDBRANCH  13  14
ENDBRANCH   5  13
ENDBRANCH   8   5
BRANCH  10  12
ATOM     12  C   UNL     1     -10.108  11.938  17.729  0.00  0.00    +0.138 C 
BRANCH  12   6
ATOM      4  O   UNL     1     -12.129  13.335  19.215  0.00  0.00    -0.270 OA
ATOM      6  N   UNL     1     -10.966  11.386  18.738  0.00  0.00    -0.309 N 
ATOM     15  C   UNL     1     -11.922  12.140  19.410  0.00  0.00    +0.244 C 
ATOM     30  H   UNL     1     -10.790  10.424  19.006  0.00  0.00    +0.149 HD
BRANCH  15  18
ATOM      1  F   UNL     1     -14.905   9.438  23.325  0.00  0.00    -0.205 F 
ATOM     18  C   UNL     1     -12.712  11.426  20.446  0.00  0.00    +0.037 A 
ATOM     22  C   UNL     1     -12.075  10.908  21.574  0.00  0.00    +0.016 A 
ATOM     23  C   UNL     1     -14.090  11.271  20.290  0.00  0.00    +0.016 A 
ATOM     24  C   UNL     1     -12.816  10.237  22.547  0.00  0.00    +0.039 A 
ATOM     25  C   UNL     1     -14.831  10.600  21.263  0.00  0.00    +0.039 A 
ATOM     26  C   UNL     1     -14.194  10.083  22.391  0.00  0.00    +0.123 A 
ENDBRANCH  15  18
ENDBRANCH  12   6
ENDBRANCH  10  12
TORSDOF 8
ENDMDL
MODEL 10
REMARK VINA RESULT:      -5.1     15.043     18.612
REMARK  Name = 75536648
REMARK  8 active torsions:
REMARK  status: ('A' for Active; 'I' for Inactive)
REMARK    1  A    between atoms: O_3  and  C_9
REMARK    2  A    between atoms: N_5  and  C_8
REMARK    3  A    between atoms: N_5  and  C_13
REMARK    4  A    between atoms: N_6  and  C_12
REMARK    5  A    between atoms: C_10  and  C_12
REMARK    6  A    between atoms: C_13  and  C_14
REMARK    7  A    between atoms: C_15  and  C_18
REMARK    8  A    between atoms: C_19  and  C_27
REMARK                            x       y       z     vdW  Elec       q    Type
REMARK                         _______ _______ _______ _____ _____    ______ ____
ROOT
ATOM      2  O   UNL     1      13.101   6.582   0.502  0.00  0.00    -0.371 OA
ATOM      8  C   UNL     1      14.506   6.357   2.395  0.00  0.00    +0.111 C 
ATOM      9  C   UNL     1      14.393   4.996   1.732  0.00  0.00    +0.164 C 
ATOM     10  C   UNL     1      13.312   5.168   0.667  0.00  0.00    +0.165 C 
ATOM     11  C   UNL     1      14.085   7.288   1.270  0.00  0.00    +0.181 C 
ENDROOT
BRANCH   9   3
ATOM      3  O   UNL     1      15.641   4.719   1.092  0.00  0.00    -0.388 OA
ATOM     29  H   UNL     1      16.265   5.415   1.358  0.00  0.00    +0.210 HD
ENDBRANCH   9   3
BRANCH   8   5
ATOM      5  N   UNL     1      13.598   6.479   3.533  0.00  0.00    -0.305 NA
ATOM     28  H   UNL     1      12.661   6.194   3.247  0.00  0.00    +0.123 HD
BRANCH   5  13
ATOM     13  C   UNL     1      13.537   7.854   4.013  0.00  0.00    +0.116 C 
BRANCH  13  14
ATOM     14  C   UNL     1      12.513   8.024   5.104  0.00  0.00    -0.032 A 
ATOM     16  C   UNL     1      12.253   6.976   5.986  0.00  0.00    +0.023 A 
ATOM     17  C   UNL     1      11.825   9.231   5.232  0.00  0.00    +0.005 A 
ATOM     19  C   UNL     1      11.304   7.134   6.997  0.00  0.00    +0.052 A 
ATOM     20  C   UNL     1      10.878   9.389   6.243  0.00  0.00    +0.002 A 
ATOM     21  C   UNL     1      10.618   8.341   7.125  0.00  0.00    +0.019 A 
BRANCH  19  27
ATOM      7  N   UNL     1      10.820   5.189   8.636  0.00  0.00    -0.191 NA
ATOM     27  C   UNL     1      11.037   6.060   7.902  0.00  0.00    +0.099 C 
ENDBRANCH  19  27
ENDBRANCH  13  14
ENDBRANCH   5  13
ENDBRANCH   8   5
BRANCH  10  12
ATOM     12  C   UNL     1      11.984   4.527   1.039  0.00  0.00    +0.138 C 
BRANCH  12   6
ATOM      4  O   UNL     1      10.980   4.535   3.729  0.00  0.00    -0.270 OA
ATOM      6  N   UNL     1      11.086   5.486   1.615  0.00  0.00    -0.309 N 
ATOM     15  C   UNL     1      10.649   5.411   2.935  0.00  0.00    +0.244 C 
ATOM     30  H   UNL     1      10.708   6.188   0.989  0.00  0.00    +0.149 HD
BRANCH  15  18
ATOM      1  F   UNL     1       7.058   9.399   4.585  0.00  0.00    -0.205 F 
ATOM     18  C   UNL     1       9.699   6.466   3.371  0.00  0.00    +0.037 A 
ATOM     22  C   UNL     1       9.588   7.650   2.642  0.00  0.00    +0.016 A 
ATOM     23  C   UNL     1       8.918   6.273   4.511  0.00  0.00    +0.016 A 
ATOM     24  C   UNL     1       8.696   8.640   3.052  0.00  0.00    +0.039 A 
ATOM     25  C   UNL     1       8.025   7.264   4.921  0.00  0.00    +0.039 A 
ATOM     26  C   UNL     1       7.914   8.448   4.191  0.00  0.00    +0.123 A 
ENDBRANCH  15  18
ENDBRANCH  12   6
ENDBRANCH  10  12
TORSDOF 8
ENDMDL
