MODEL 1
REMARK VINA RESULT:      -7.7      0.000      0.000
REMARK  Name = 11885871
REMARK  5 active torsions:
REMARK  status: ('A' for Active; 'I' for Inactive)
REMARK    1  A    between atoms: N_6  and  C_17
REMARK    2  A    between atoms: C_16  and  C_19
REMARK    3  A    between atoms: C_22  and  C_26
REMARK    4  A    between atoms: C_25  and  C_27
REMARK    5  A    between atoms: C_26  and  C_28
REMARK                            x       y       z     vdW  Elec       q    Type
REMARK                         _______ _______ _______ _____ _____    ______ ____
ROOT
ATOM      1  O   UNL     1      12.786   7.240   3.551  0.00  0.00    -0.266 OA
ATOM      2  O   UNL     1       8.864   9.857   5.679  0.00  0.00    -0.270 OA
ATOM      4  N   UNL     1       9.094   7.845   6.851  0.00  0.00    -0.297 N 
ATOM      5  N   UNL     1      11.640   6.555   5.468  0.00  0.00    -0.310 N 
ATOM      7  C   UNL     1       9.190   5.808   5.424  0.00  0.00    +0.027 C 
ATOM      8  C   UNL     1      10.415   5.865   7.558  0.00  0.00    +0.054 C 
ATOM      9  C   UNL     1       9.569   4.979   6.646  0.00  0.00    +0.018 C 
ATOM     10  C   UNL     1       8.386   7.052   5.847  0.00  0.00    +0.113 C 
ATOM     11  C   UNL     1      10.468   6.180   4.663  0.00  0.00    +0.130 C 
ATOM     12  C   UNL     1       9.586   7.084   8.010  0.00  0.00    +0.117 C 
ATOM     13  C   UNL     1      11.671   6.337   6.849  0.00  0.00    +0.027 A 
ATOM     14  C   UNL     1      12.792   6.579   7.548  0.00  0.00    +0.024 A 
ATOM     15  C   UNL     1      12.760   7.047   4.766  0.00  0.00    +0.273 A 
ATOM     16  C   UNL     1       9.272   9.216   6.645  0.00  0.00    +0.247 C 
ATOM     17  C   UNL     1      13.981   7.331   5.586  0.00  0.00    +0.099 A 
ATOM     18  C   UNL     1      13.969   7.088   6.900  0.00  0.00    +0.030 A 
ENDROOT
BRANCH  16  19
ATOM     19  C   UNL     1      10.026   9.969   7.652  0.00  0.00    +0.037 A 
ATOM     20  C   UNL     1      11.400  10.141   7.503  0.00  0.00    +0.013 A 
ATOM     21  C   UNL     1       9.367  10.507   8.754  0.00  0.00    +0.013 A 
ATOM     23  C   UNL     1      12.118  10.856   8.460  0.00  0.00    +0.009 A 
ATOM     24  C   UNL     1      10.084  11.223   9.712  0.00  0.00    +0.009 A 
ATOM     25  C   UNL     1      11.461  11.398   9.564  0.00  0.00    -0.018 A 
BRANCH  25  27
ATOM     27  C   UNL     1      12.206  12.141  10.557  0.00  0.00    -0.018 A 
ATOM     29  C   UNL     1      13.387  12.791  10.201  0.00  0.00    +0.008 A 
ATOM     30  C   UNL     1      11.743  12.207  11.872  0.00  0.00    +0.008 A 
ATOM     33  C   UNL     1      14.107  13.507  11.158  0.00  0.00    +0.001 A 
ATOM     34  C   UNL     1      12.461  12.925  12.829  0.00  0.00    +0.001 A 
ATOM     37  C   UNL     1      13.643  13.574  12.472  0.00  0.00    +0.000 A 
ENDBRANCH  25  27
ENDBRANCH  16  19
BRANCH  17   6
ATOM      3  O   UNL     1      15.131   9.925   5.956  0.00  0.00    -0.275 OA
ATOM      6  N   UNL     1      15.079   7.827   4.947  0.00  0.00    -0.281 N 
ATOM     22  C   UNL     1      15.591   9.100   5.171  0.00  0.00    +0.222 C 
ATOM     39  H   UNL     1      15.385   7.322   4.119  0.00  0.00    +0.155 HD
BRANCH  22  26
ATOM     26  C   UNL     1      16.815   9.359   4.312  0.00  0.00    +0.131 C 
BRANCH  26  28
ATOM     28  C   UNL     1      18.085   8.800   4.898  0.00  0.00    -0.039 A 
ATOM     31  C   UNL     1      18.389   9.047   6.229  0.00  0.00    +0.004 A 
ATOM     32  C   UNL     1      18.933   8.047   4.098  0.00  0.00    +0.004 A 
ATOM     35  C   UNL     1      19.566   8.530   6.772  0.00  0.00    +0.000 A 
ATOM     36  C   UNL     1      20.108   7.529   4.641  0.00  0.00    +0.000 A 
ATOM     38  C   UNL     1      20.425   7.771   5.978  0.00  0.00    +0.000 A 
ENDBRANCH  26  28
ENDBRANCH  22  26
ENDBRANCH  17   6
TORSDOF 5
ENDMDL
MODEL 2
REMARK VINA RESULT:      -7.6      2.785      7.163
REMARK  Name = 11885871
REMARK  5 active torsions:
REMARK  status: ('A' for Active; 'I' for Inactive)
REMARK    1  A    between atoms: N_6  and  C_17
REMARK    2  A    between atoms: C_16  and  C_19
REMARK    3  A    between atoms: C_22  and  C_26
REMARK    4  A    between atoms: C_25  and  C_27
REMARK    5  A    between atoms: C_26  and  C_28
REMARK                            x       y       z     vdW  Elec       q    Type
REMARK                         _______ _______ _______ _____ _____    ______ ____
ROOT
ATOM      1  O   UNL     1      14.551  10.421   6.947  0.00  0.00    -0.266 OA
ATOM      2  O   UNL     1      11.591   6.212   7.483  0.00  0.00    -0.270 OA
ATOM      4  N   UNL     1      10.240   7.929   6.644  0.00  0.00    -0.297 N 
ATOM      5  N   UNL     1      12.324  10.288   6.255  0.00  0.00    -0.310 N 
ATOM      7  C   UNL     1      10.373  10.073   7.901  0.00  0.00    +0.027 C 
ATOM      8  C   UNL     1       9.934  10.101   5.479  0.00  0.00    +0.054 C 
ATOM      9  C   UNL     1       9.560  10.757   6.807  0.00  0.00    +0.018 C 
ATOM     10  C   UNL     1      10.053   8.568   7.947  0.00  0.00    +0.113 C 
ATOM     11  C   UNL     1      11.862  10.339   7.650  0.00  0.00    +0.130 C 
ATOM     12  C   UNL     1       9.570   8.603   5.521  0.00  0.00    +0.117 C 
ATOM     13  C   UNL     1      11.416  10.257   5.192  0.00  0.00    +0.027 A 
ATOM     14  C   UNL     1      11.856  10.328   3.924  0.00  0.00    +0.024 A 
ATOM     15  C   UNL     1      13.715  10.375   6.045  0.00  0.00    +0.273 A 
ATOM     16  C   UNL     1      11.028   6.780   6.548  0.00  0.00    +0.247 C 
ATOM     17  C   UNL     1      14.166  10.423   4.618  0.00  0.00    +0.099 A 
ATOM     18  C   UNL     1      13.260  10.411   3.635  0.00  0.00    +0.030 A 
ENDROOT
BRANCH  16  19
ATOM     19  C   UNL     1      11.229   6.195   5.219  0.00  0.00    +0.037 A 
ATOM     20  C   UNL     1      10.450   5.114   4.813  0.00  0.00    +0.013 A 
ATOM     21  C   UNL     1      12.199   6.720   4.369  0.00  0.00    +0.013 A 
ATOM     23  C   UNL     1      10.642   4.556   3.549  0.00  0.00    +0.009 A 
ATOM     24  C   UNL     1      12.390   6.163   3.105  0.00  0.00    +0.009 A 
ATOM     25  C   UNL     1      11.611   5.081   2.694  0.00  0.00    -0.018 A 
BRANCH  25  27
ATOM     27  C   UNL     1      11.808   4.503   1.383  0.00  0.00    -0.018 A 
ATOM     29  C   UNL     1      12.962   3.768   1.111  0.00  0.00    +0.008 A 
ATOM     30  C   UNL     1      10.844   4.681   0.390  0.00  0.00    +0.008 A 
ATOM     33  C   UNL     1      13.153   3.211  -0.153  0.00  0.00    +0.001 A 
ATOM     34  C   UNL     1      11.035   4.123  -0.875  0.00  0.00    +0.001 A 
ATOM     37  C   UNL     1      12.190   3.388  -1.146  0.00  0.00    +0.000 A 
ENDBRANCH  25  27
ENDBRANCH  16  19
BRANCH  17   6
ATOM      3  O   UNL     1      15.973   8.208   4.477  0.00  0.00    -0.275 OA
ATOM      6  N   UNL     1      15.506  10.487   4.372  0.00  0.00    -0.281 N 
ATOM     22  C   UNL     1      16.333   9.371   4.316  0.00  0.00    +0.222 C 
ATOM     39  H   UNL     1      15.937  11.404   4.460  0.00  0.00    +0.155 HD
BRANCH  22  26
ATOM     26  C   UNL     1      17.769   9.766   4.025  0.00  0.00    +0.131 C 
BRANCH  26  28
ATOM     28  C   UNL     1      18.772   9.058   4.899  0.00  0.00    -0.039 A 
ATOM     31  C   UNL     1      19.602   8.095   4.344  0.00  0.00    +0.004 A 
ATOM     32  C   UNL     1      18.852   9.381   6.247  0.00  0.00    +0.004 A 
ATOM     35  C   UNL     1      20.530   7.440   5.153  0.00  0.00    +0.000 A 
ATOM     36  C   UNL     1      19.780   8.727   7.055  0.00  0.00    +0.000 A 
ATOM     38  C   UNL     1      20.620   7.756   6.509  0.00  0.00    +0.000 A 
ENDBRANCH  26  28
ENDBRANCH  22  26
ENDBRANCH  17   6
TORSDOF 5
ENDMDL
MODEL 3
REMARK VINA RESULT:      -7.5     25.778     28.995
REMARK  Name = 11885871
REMARK  5 active torsions:
REMARK  status: ('A' for Active; 'I' for Inactive)
REMARK    1  A    between atoms: N_6  and  C_17
REMARK    2  A    between atoms: C_16  and  C_19
REMARK    3  A    between atoms: C_22  and  C_26
REMARK    4  A    between atoms: C_25  and  C_27
REMARK    5  A    between atoms: C_26  and  C_28
REMARK                            x       y       z     vdW  Elec       q    Type
REMARK                         _______ _______ _______ _____ _____    ______ ____
ROOT
ATOM      1  O   UNL     1      -5.105  -9.903  16.520  0.00  0.00    -0.266 OA
ATOM      2  O   UNL     1      -2.120  -9.589  12.306  0.00  0.00    -0.270 OA
ATOM      4  N   UNL     1      -3.107 -11.710  12.320  0.00  0.00    -0.297 N 
ATOM      5  N   UNL     1      -4.986 -11.554  14.871  0.00  0.00    -0.310 N 
ATOM      7  C   UNL     1      -2.881 -12.956  14.463  0.00  0.00    +0.027 C 
ATOM      8  C   UNL     1      -4.871 -13.297  13.055  0.00  0.00    +0.054 C 
ATOM      9  C   UNL     1      -3.854 -14.009  13.946  0.00  0.00    +0.018 C 
ATOM     10  C   UNL     1      -2.162 -12.265  13.289  0.00  0.00    +0.113 C 
ATOM     11  C   UNL     1      -3.651 -11.957  15.336  0.00  0.00    +0.130 C 
ATOM     12  C   UNL     1      -4.146 -12.646  11.860  0.00  0.00    +0.117 C 
ATOM     13  C   UNL     1      -5.628 -12.236  13.832  0.00  0.00    +0.027 A 
ATOM     14  C   UNL     1      -6.893 -11.927  13.500  0.00  0.00    +0.024 A 
ATOM     15  C   UNL     1      -5.622 -10.520  15.588  0.00  0.00    +0.273 A 
ATOM     16  C   UNL     1      -2.985 -10.376  11.925  0.00  0.00    +0.247 C 
ATOM     17  C   UNL     1      -7.020 -10.188  15.169  0.00  0.00    +0.099 A 
ATOM     18  C   UNL     1      -7.600 -10.881  14.183  0.00  0.00    +0.030 A 
ENDROOT
BRANCH  16  19
ATOM     19  C   UNL     1      -3.978  -9.843  10.987  0.00  0.00    +0.037 A 
ATOM     20  C   UNL     1      -3.714  -9.853   9.619  0.00  0.00    +0.013 A 
ATOM     21  C   UNL     1      -5.180  -9.329  11.467  0.00  0.00    +0.013 A 
ATOM     23  C   UNL     1      -4.658  -9.346   8.727  0.00  0.00    +0.009 A 
ATOM     24  C   UNL     1      -6.124  -8.822  10.574  0.00  0.00    +0.009 A 
ATOM     25  C   UNL     1      -5.863  -8.831   9.204  0.00  0.00    -0.018 A 
BRANCH  25  27
ATOM     27  C   UNL     1      -6.843  -8.306   8.277  0.00  0.00    -0.018 A 
ATOM     29  C   UNL     1      -7.067  -8.950   7.061  0.00  0.00    +0.008 A 
ATOM     30  C   UNL     1      -7.563  -7.156   8.602  0.00  0.00    +0.008 A 
ATOM     33  C   UNL     1      -8.011  -8.444   6.167  0.00  0.00    +0.001 A 
ATOM     34  C   UNL     1      -8.508  -6.650   7.708  0.00  0.00    +0.001 A 
ATOM     37  C   UNL     1      -8.732  -7.294   6.491  0.00  0.00    +0.000 A 
ENDBRANCH  25  27
ENDBRANCH  16  19
BRANCH  17   6
ATOM      3  O   UNL     1      -8.894 -10.483  17.311  0.00  0.00    -0.275 OA
ATOM      6  N   UNL     1      -7.663  -9.180  15.826  0.00  0.00    -0.281 N 
ATOM     22  C   UNL     1      -8.565  -9.388  16.862  0.00  0.00    +0.222 C 
ATOM     39  H   UNL     1      -7.642  -8.266  15.379  0.00  0.00    +0.155 HD
BRANCH  22  26
ATOM     26  C   UNL     1      -9.111  -8.074  17.389  0.00  0.00    +0.131 C 
BRANCH  26  28
ATOM     28  C   UNL     1     -10.415  -7.670  16.752  0.00  0.00    -0.039 A 
ATOM     31  C   UNL     1     -11.553  -8.427  16.987  0.00  0.00    +0.004 A 
ATOM     32  C   UNL     1     -10.459  -6.546  15.939  0.00  0.00    +0.004 A 
ATOM     35  C   UNL     1     -12.761  -8.053  16.397  0.00  0.00    +0.000 A 
ATOM     36  C   UNL     1     -11.665  -6.172  15.349  0.00  0.00    +0.000 A 
ATOM     38  C   UNL     1     -12.817  -6.925  15.579  0.00  0.00    +0.000 A 
ENDBRANCH  26  28
ENDBRANCH  22  26
ENDBRANCH  17   6
TORSDOF 5
ENDMDL
MODEL 4
REMARK VINA RESULT:      -7.3     26.738     30.281
REMARK  Name = 11885871
REMARK  5 active torsions:
REMARK  status: ('A' for Active; 'I' for Inactive)
REMARK    1  A    between atoms: N_6  and  C_17
REMARK    2  A    between atoms: C_16  and  C_19
REMARK    3  A    between atoms: C_22  and  C_26
REMARK    4  A    between atoms: C_25  and  C_27
REMARK    5  A    between atoms: C_26  and  C_28
REMARK                            x       y       z     vdW  Elec       q    Type
REMARK                         _______ _______ _______ _____ _____    ______ ____
ROOT
ATOM      1  O   UNL     1     -13.903   8.077  18.211  0.00  0.00    -0.266 OA
ATOM      2  O   UNL     1     -17.039  10.303  21.673  0.00  0.00    -0.270 OA
ATOM      4  N   UNL     1     -16.948   8.016  22.164  0.00  0.00    -0.297 N 
ATOM      5  N   UNL     1     -14.851   6.959  20.030  0.00  0.00    -0.310 N 
ATOM      7  C   UNL     1     -17.367   6.513  20.224  0.00  0.00    +0.027 C 
ATOM      8  C   UNL     1     -15.852   5.792  22.026  0.00  0.00    +0.054 C 
ATOM      9  C   UNL     1     -16.945   5.317  21.070  0.00  0.00    +0.018 C 
ATOM     10  C   UNL     1     -17.905   7.643  21.122  0.00  0.00    +0.113 C 
ATOM     11  C   UNL     1     -16.170   6.968  19.380  0.00  0.00    +0.130 C 
ATOM     12  C   UNL     1     -16.415   6.891  22.949  0.00  0.00    +0.117 C 
ATOM     13  C   UNL     1     -14.655   6.328  21.263  0.00  0.00    +0.027 A 
ATOM     14  C   UNL     1     -13.421   6.231  21.785  0.00  0.00    +0.024 A 
ATOM     15  C   UNL     1     -13.783   7.526  19.306  0.00  0.00    +0.273 A 
ATOM     16  C   UNL     1     -16.597   9.359  22.326  0.00  0.00    +0.247 C 
ATOM     17  C   UNL     1     -12.428   7.422  19.935  0.00  0.00    +0.099 A 
ATOM     18  C   UNL     1     -12.287   6.792  21.105  0.00  0.00    +0.030 A 
ENDROOT
BRANCH  16  19
ATOM     19  C   UNL     1     -15.600   9.688  23.350  0.00  0.00    +0.037 A 
ATOM     20  C   UNL     1     -16.014  10.013  24.640  0.00  0.00    +0.013 A 
ATOM     21  C   UNL     1     -14.245   9.677  23.029  0.00  0.00    +0.013 A 
ATOM     23  C   UNL     1     -15.067  10.328  25.614  0.00  0.00    +0.009 A 
ATOM     24  C   UNL     1     -13.298   9.991  24.003  0.00  0.00    +0.009 A 
ATOM     25  C   UNL     1     -13.709  10.316  25.296  0.00  0.00    -0.018 A 
BRANCH  25  27
ATOM     27  C   UNL     1     -12.726  10.642  26.307  0.00  0.00    -0.018 A 
ATOM     29  C   UNL     1     -11.506   9.967  26.337  0.00  0.00    +0.008 A 
ATOM     30  C   UNL     1     -13.000  11.631  27.253  0.00  0.00    +0.008 A 
ATOM     33  C   UNL     1     -10.559  10.280  27.312  0.00  0.00    +0.001 A 
ATOM     34  C   UNL     1     -12.052  11.945  28.227  0.00  0.00    +0.001 A 
ATOM     37  C   UNL     1     -10.832  11.269  28.256  0.00  0.00    +0.000 A 
ENDBRANCH  25  27
ENDBRANCH  16  19
BRANCH  17   6
ATOM      3  O   UNL     1     -11.450  10.094  20.237  0.00  0.00    -0.275 OA
ATOM      6  N   UNL     1     -11.372   7.975  19.274  0.00  0.00    -0.281 N 
ATOM     22  C   UNL     1     -10.944   9.284  19.465  0.00  0.00    +0.222 C 
ATOM     39  H   UNL     1     -11.040   7.473  18.453  0.00  0.00    +0.155 HD
BRANCH  22  26
ATOM     26  C   UNL     1      -9.747   9.604  18.587  0.00  0.00    +0.131 C 
BRANCH  26  28
ATOM     28  C   UNL     1     -10.082  10.502  17.425  0.00  0.00    -0.039 A 
ATOM     31  C   UNL     1      -9.708  11.837  17.464  0.00  0.00    +0.004 A 
ATOM     32  C   UNL     1     -10.761   9.980  16.332  0.00  0.00    +0.004 A 
ATOM     35  C   UNL     1     -10.018  12.669  16.387  0.00  0.00    +0.000 A 
ATOM     36  C   UNL     1     -11.070  10.811  15.256  0.00  0.00    +0.000 A 
ATOM     38  C   UNL     1     -10.699  12.156  15.283  0.00  0.00    +0.000 A 
ENDBRANCH  26  28
ENDBRANCH  22  26
ENDBRANCH  17   6
TORSDOF 5
ENDMDL
MODEL 5
REMARK VINA RESULT:      -7.3     25.526     27.932
REMARK  Name = 11885871
REMARK  5 active torsions:
REMARK  status: ('A' for Active; 'I' for Inactive)
REMARK    1  A    between atoms: N_6  and  C_17
REMARK    2  A    between atoms: C_16  and  C_19
REMARK    3  A    between atoms: C_22  and  C_26
REMARK    4  A    between atoms: C_25  and  C_27
REMARK    5  A    between atoms: C_26  and  C_28
REMARK                            x       y       z     vdW  Elec       q    Type
REMARK                         _______ _______ _______ _____ _____    ______ ____
ROOT
ATOM      1  O   UNL     1      -5.837 -10.411  12.392  0.00  0.00    -0.266 OA
ATOM      2  O   UNL     1      -8.281 -12.585   8.384  0.00  0.00    -0.270 OA
ATOM      4  N   UNL     1      -7.952 -10.324   7.874  0.00  0.00    -0.297 N 
ATOM      5  N   UNL     1      -6.304  -9.308  10.387  0.00  0.00    -0.310 N 
ATOM      7  C   UNL     1      -8.688  -8.736   9.644  0.00  0.00    +0.027 C 
ATOM      8  C   UNL     1      -6.782  -8.158   8.197  0.00  0.00    +0.054 C 
ATOM      9  C   UNL     1      -8.025  -7.593   8.883  0.00  0.00    +0.018 C 
ATOM     10  C   UNL     1      -9.086  -9.865   8.676  0.00  0.00    +0.113 C 
ATOM     11  C   UNL     1      -7.730  -9.224  10.737  0.00  0.00    +0.130 C 
ATOM     12  C   UNL     1      -7.197  -9.257   7.199  0.00  0.00    +0.117 C 
ATOM     13  C   UNL     1      -5.811  -8.730   9.213  0.00  0.00    +0.027 A 
ATOM     14  C   UNL     1      -4.490  -8.717   8.968  0.00  0.00    +0.024 A 
ATOM     15  C   UNL     1      -5.452  -9.905  11.338  0.00  0.00    +0.273 A 
ATOM     16  C   UNL     1      -7.654 -11.688   7.821  0.00  0.00    +0.247 C 
ATOM     17  C   UNL     1      -3.990  -9.895  11.015  0.00  0.00    +0.099 A 
ATOM     18  C   UNL     1      -3.563  -9.313   9.889  0.00  0.00    +0.030 A 
ENDROOT
BRANCH  16  19
ATOM     19  C   UNL     1      -6.482 -12.105   7.045  0.00  0.00    +0.037 A 
ATOM     20  C   UNL     1      -5.237 -12.194   7.663  0.00  0.00    +0.013 A 
ATOM     21  C   UNL     1      -6.618 -12.408   5.692  0.00  0.00    +0.013 A 
ATOM     23  C   UNL     1      -4.122 -12.589   6.925  0.00  0.00    +0.009 A 
ATOM     24  C   UNL     1      -5.503 -12.804   4.954  0.00  0.00    +0.009 A 
ATOM     25  C   UNL     1      -4.255 -12.895   5.571  0.00  0.00    -0.018 A 
BRANCH  25  27
ATOM     27  C   UNL     1      -3.098 -13.307   4.805  0.00  0.00    -0.018 A 
ATOM     29  C   UNL     1      -3.015 -12.999   3.448  0.00  0.00    +0.008 A 
ATOM     30  C   UNL     1      -2.065 -14.011   5.426  0.00  0.00    +0.008 A 
ATOM     33  C   UNL     1      -1.900 -13.396   2.709  0.00  0.00    +0.001 A 
ATOM     34  C   UNL     1      -0.950 -14.407   4.688  0.00  0.00    +0.001 A 
ATOM     37  C   UNL     1      -0.867 -14.099   3.329  0.00  0.00    +0.000 A 
ENDBRANCH  25  27
ENDBRANCH  16  19
BRANCH  17   6
ATOM      3  O   UNL     1      -3.219 -12.650  11.060  0.00  0.00    -0.275 OA
ATOM      6  N   UNL     1      -3.134 -10.481  11.901  0.00  0.00    -0.281 N 
ATOM     22  C   UNL     1      -2.799 -11.829  11.871  0.00  0.00    +0.222 C 
ATOM     39  H   UNL     1      -2.922  -9.948  12.742  0.00  0.00    +0.155 HD
BRANCH  22  26
ATOM     26  C   UNL     1      -1.827 -12.179  12.983  0.00  0.00    +0.131 C 
BRANCH  26  28
ATOM     28  C   UNL     1      -2.311 -11.771  14.349  0.00  0.00    -0.039 A 
ATOM     31  C   UNL     1      -1.482 -11.024  15.173  0.00  0.00    +0.004 A 
ATOM     32  C   UNL     1      -3.581 -12.148  14.765  0.00  0.00    +0.004 A 
ATOM     35  C   UNL     1      -1.930 -10.647  16.440  0.00  0.00    +0.000 A 
ATOM     36  C   UNL     1      -4.030 -11.770  16.029  0.00  0.00    +0.000 A 
ATOM     38  C   UNL     1      -3.205 -11.019  16.867  0.00  0.00    +0.000 A 
ENDBRANCH  26  28
ENDBRANCH  22  26
ENDBRANCH  17   6
TORSDOF 5
ENDMDL
MODEL 6
REMARK VINA RESULT:      -7.3     17.460     21.118
REMARK  Name = 11885871
REMARK  5 active torsions:
REMARK  status: ('A' for Active; 'I' for Inactive)
REMARK    1  A    between atoms: N_6  and  C_17
REMARK    2  A    between atoms: C_16  and  C_19
REMARK    3  A    between atoms: C_22  and  C_26
REMARK    4  A    between atoms: C_25  and  C_27
REMARK    5  A    between atoms: C_26  and  C_28
REMARK                            x       y       z     vdW  Elec       q    Type
REMARK                         _______ _______ _______ _____ _____    ______ ____
ROOT
ATOM      1  O   UNL     1      18.987  -9.822   1.455  0.00  0.00    -0.266 OA
ATOM      2  O   UNL     1      19.217  -4.739   0.520  0.00  0.00    -0.270 OA
ATOM      4  N   UNL     1      20.779  -5.788  -0.871  0.00  0.00    -0.297 N 
ATOM      5  N   UNL     1      20.297  -8.855  -0.220  0.00  0.00    -0.310 N 
ATOM      7  C   UNL     1      22.318  -7.365   0.288  0.00  0.00    +0.027 C 
ATOM      8  C   UNL     1      21.665  -7.788  -2.047  0.00  0.00    +0.054 C 
ATOM      9  C   UNL     1      22.833  -7.845  -1.064  0.00  0.00    +0.018 C 
ATOM     10  C   UNL     1      21.788  -5.923   0.181  0.00  0.00    +0.113 C 
ATOM     11  C   UNL     1      21.242  -8.339   0.782  0.00  0.00    +0.130 C 
ATOM     12  C   UNL     1      21.171  -6.333  -2.180  0.00  0.00    +0.117 C 
ATOM     13  C   UNL     1      20.522  -8.675  -1.588  0.00  0.00    +0.027 A 
ATOM     14  C   UNL     1      19.711  -9.253  -2.490  0.00  0.00    +0.024 A 
ATOM     15  C   UNL     1      19.217  -9.622   0.262  0.00  0.00    +0.273 A 
ATOM     16  C   UNL     1      19.550  -5.196  -0.572  0.00  0.00    +0.247 C 
ATOM     17  C   UNL     1      18.319 -10.225  -0.774  0.00  0.00    +0.099 A 
ATOM     18  C   UNL     1      18.586 -10.041  -2.071  0.00  0.00    +0.030 A 
ENDROOT
BRANCH  16  19
ATOM     19  C   UNL     1      18.548  -5.120  -1.640  0.00  0.00    +0.037 A 
ATOM     20  C   UNL     1      17.993  -6.290  -2.154  0.00  0.00    +0.013 A 
ATOM     21  C   UNL     1      18.156  -3.880  -2.137  0.00  0.00    +0.013 A 
ATOM     23  C   UNL     1      17.041  -6.218  -3.170  0.00  0.00    +0.009 A 
ATOM     24  C   UNL     1      17.203  -3.808  -3.153  0.00  0.00    +0.009 A 
ATOM     25  C   UNL     1      16.645  -4.978  -3.670  0.00  0.00    -0.018 A 
BRANCH  25  27
ATOM     27  C   UNL     1      15.656  -4.904  -4.723  0.00  0.00    -0.018 A 
ATOM     29  C   UNL     1      15.973  -4.290  -5.935  0.00  0.00    +0.008 A 
ATOM     30  C   UNL     1      14.386  -5.447  -4.527  0.00  0.00    +0.008 A 
ATOM     33  C   UNL     1      15.020  -4.218  -6.951  0.00  0.00    +0.001 A 
ATOM     34  C   UNL     1      13.433  -5.376  -5.543  0.00  0.00    +0.001 A 
ATOM     37  C   UNL     1      13.750  -4.762  -6.755  0.00  0.00    +0.000 A 
ENDBRANCH  25  27
ENDBRANCH  16  19
BRANCH  17   6
ATOM      3  O   UNL     1      18.338 -12.997  -0.065  0.00  0.00    -0.275 OA
ATOM      6  N   UNL     1      17.251 -10.957  -0.347  0.00  0.00    -0.281 N 
ATOM     22  C   UNL     1      17.324 -12.305  -0.017  0.00  0.00    +0.222 C 
ATOM     39  H   UNL     1      16.333 -10.546  -0.497  0.00  0.00    +0.155 HD
BRANCH  22  26
ATOM     26  C   UNL     1      15.973 -12.838   0.423  0.00  0.00    +0.131 C 
BRANCH  26  28
ATOM     28  C   UNL     1      15.744 -12.734   1.908  0.00  0.00    -0.039 A 
ATOM     31  C   UNL     1      15.147 -13.789   2.583  0.00  0.00    +0.004 A 
ATOM     32  C   UNL     1      16.135 -11.584   2.580  0.00  0.00    +0.004 A 
ATOM     35  C   UNL     1      14.935 -13.692   3.959  0.00  0.00    +0.000 A 
ATOM     36  C   UNL     1      15.924 -11.487   3.955  0.00  0.00    +0.000 A 
ATOM     38  C   UNL     1      15.324 -12.542   4.645  0.00  0.00    +0.000 A 
ENDBRANCH  26  28
ENDBRANCH  22  26
ENDBRANCH  17   6
TORSDOF 5
ENDMDL
MODEL 7
REMARK VINA RESULT:      -7.3     25.439     29.615
REMARK  Name = 11885871
REMARK  5 active torsions:
REMARK  status: ('A' for Active; 'I' for Inactive)
REMARK    1  A    between atoms: N_6  and  C_17
REMARK    2  A    between atoms: C_16  and  C_19
REMARK    3  A    between atoms: C_22  and  C_26
REMARK    4  A    between atoms: C_25  and  C_27
REMARK    5  A    between atoms: C_26  and  C_28
REMARK                            x       y       z     vdW  Elec       q    Type
REMARK                         _______ _______ _______ _____ _____    ______ ____
ROOT
ATOM      1  O   UNL     1      -4.459 -13.323  15.694  0.00  0.00    -0.266 OA
ATOM      2  O   UNL     1      -9.410 -13.531  17.181  0.00  0.00    -0.270 OA
ATOM      4  N   UNL     1      -8.402 -11.748  18.314  0.00  0.00    -0.297 N 
ATOM      5  N   UNL     1      -5.475 -11.751  17.091  0.00  0.00    -0.310 N 
ATOM      7  C   UNL     1      -6.267 -12.312  19.462  0.00  0.00    +0.027 C 
ATOM      8  C   UNL     1      -6.609 -10.047  18.561  0.00  0.00    +0.054 C 
ATOM      9  C   UNL     1      -6.033 -10.831  19.738  0.00  0.00    +0.018 C 
ATOM     10  C   UNL     1      -7.773 -12.601  19.323  0.00  0.00    +0.113 C 
ATOM     11  C   UNL     1      -5.484 -12.710  18.206  0.00  0.00    +0.130 C 
ATOM     12  C   UNL     1      -8.125 -10.309  18.457  0.00  0.00    +0.117 C 
ATOM     13  C   UNL     1      -5.933 -10.440  17.260  0.00  0.00    +0.027 A 
ATOM     14  C   UNL     1      -5.809  -9.547  16.265  0.00  0.00    +0.024 A 
ATOM     15  C   UNL     1      -4.891 -12.186  15.884  0.00  0.00    +0.273 A 
ATOM     16  C   UNL     1      -9.175 -12.330  17.306  0.00  0.00    +0.247 C 
ATOM     17  C   UNL     1      -4.798 -11.168  14.790  0.00  0.00    +0.099 A 
ATOM     18  C   UNL     1      -5.231  -9.922  15.005  0.00  0.00    +0.030 A 
ENDROOT
BRANCH  16  19
ATOM     19  C   UNL     1      -9.752 -11.447  16.287  0.00  0.00    +0.037 A 
ATOM     20  C   UNL     1      -9.009 -11.117  15.156  0.00  0.00    +0.013 A 
ATOM     21  C   UNL     1     -11.038 -10.940  16.455  0.00  0.00    +0.013 A 
ATOM     23  C   UNL     1      -9.556 -10.276  14.187  0.00  0.00    +0.009 A 
ATOM     24  C   UNL     1     -11.586 -10.100  15.486  0.00  0.00    +0.009 A 
ATOM     25  C   UNL     1     -10.845  -9.768  14.351  0.00  0.00    -0.018 A 
BRANCH  25  27
ATOM     27  C   UNL     1     -11.412  -8.897  13.345  0.00  0.00    -0.018 A 
ATOM     29  C   UNL     1     -12.159  -7.784  13.728  0.00  0.00    +0.008 A 
ATOM     30  C   UNL     1     -11.213  -9.172  11.991  0.00  0.00    +0.008 A 
ATOM     33  C   UNL     1     -12.707  -6.944  12.759  0.00  0.00    +0.001 A 
ATOM     34  C   UNL     1     -11.759  -8.331  11.022  0.00  0.00    +0.001 A 
ATOM     37  C   UNL     1     -12.507  -7.217  11.406  0.00  0.00    +0.000 A 
ENDBRANCH  25  27
ENDBRANCH  16  19
BRANCH  17   6
ATOM      3  O   UNL     1      -2.122 -10.676  13.903  0.00  0.00    -0.275 OA
ATOM      6  N   UNL     1      -4.257 -11.556  13.600  0.00  0.00    -0.281 N 
ATOM     22  C   UNL     1      -2.946 -11.286  13.225  0.00  0.00    +0.222 C 
ATOM     39  H   UNL     1      -4.913 -11.852  12.882  0.00  0.00    +0.155 HD
BRANCH  22  26
ATOM     26  C   UNL     1      -2.641 -11.846  11.848  0.00  0.00    +0.131 C 
BRANCH  26  28
ATOM     28  C   UNL     1      -3.295 -11.075  10.732  0.00  0.00    -0.039 A 
ATOM     31  C   UNL     1      -4.082 -11.747   9.808  0.00  0.00    +0.004 A 
ATOM     32  C   UNL     1      -3.102  -9.703  10.643  0.00  0.00    +0.004 A 
ATOM     35  C   UNL     1      -4.688 -11.033   8.773  0.00  0.00    +0.000 A 
ATOM     36  C   UNL     1      -3.707  -8.990   9.610  0.00  0.00    +0.000 A 
ATOM     38  C   UNL     1      -4.502  -9.654   8.675  0.00  0.00    +0.000 A 
ENDBRANCH  26  28
ENDBRANCH  22  26
ENDBRANCH  17   6
TORSDOF 5
ENDMDL
MODEL 8
REMARK VINA RESULT:      -7.2     26.063     30.666
REMARK  Name = 11885871
REMARK  5 active torsions:
REMARK  status: ('A' for Active; 'I' for Inactive)
REMARK    1  A    between atoms: N_6  and  C_17
REMARK    2  A    between atoms: C_16  and  C_19
REMARK    3  A    between atoms: C_22  and  C_26
REMARK    4  A    between atoms: C_25  and  C_27
REMARK    5  A    between atoms: C_26  and  C_28
REMARK                            x       y       z     vdW  Elec       q    Type
REMARK                         _______ _______ _______ _____ _____    ______ ____
ROOT
ATOM      1  O   UNL     1     -10.530  -8.372  18.175  0.00  0.00    -0.266 OA
ATOM      2  O   UNL     1      -5.902 -10.364  19.351  0.00  0.00    -0.270 OA
ATOM      4  N   UNL     1      -7.242 -12.107  18.548  0.00  0.00    -0.297 N 
ATOM      5  N   UNL     1      -9.909 -10.584  17.753  0.00  0.00    -0.310 N 
ATOM      7  C   UNL     1      -9.481 -12.284  19.622  0.00  0.00    +0.027 C 
ATOM      8  C   UNL     1      -9.196 -12.952  17.270  0.00  0.00    +0.054 C 
ATOM      9  C   UNL     1      -9.890 -13.319  18.581  0.00  0.00    +0.018 C 
ATOM     10  C   UNL     1      -7.953 -12.290  19.814  0.00  0.00    +0.113 C 
ATOM     11  C   UNL     1     -10.001 -10.910  19.184  0.00  0.00    +0.130 C 
ATOM     12  C   UNL     1      -7.667 -13.004  17.462  0.00  0.00    +0.117 C 
ATOM     13  C   UNL     1      -9.605 -11.567  16.805  0.00  0.00    +0.027 A 
ATOM     14  C   UNL     1      -9.639 -11.276  15.494  0.00  0.00    +0.024 A 
ATOM     15  C   UNL     1     -10.240  -9.266  17.380  0.00  0.00    +0.273 A 
ATOM     16  C   UNL     1      -6.261 -11.117  18.447  0.00  0.00    +0.247 C 
ATOM     17  C   UNL     1     -10.239  -8.975  15.911  0.00  0.00    +0.099 A 
ATOM     18  C   UNL     1      -9.961  -9.952  15.041  0.00  0.00    +0.030 A 
ENDROOT
BRANCH  16  19
ATOM     19  C   UNL     1      -5.603 -10.933  17.150  0.00  0.00    +0.037 A 
ATOM     20  C   UNL     1      -4.364 -11.525  16.911  0.00  0.00    +0.013 A 
ATOM     21  C   UNL     1      -6.217 -10.168  16.162  0.00  0.00    +0.013 A 
ATOM     23  C   UNL     1      -3.737 -11.349  15.678  0.00  0.00    +0.009 A 
ATOM     24  C   UNL     1      -5.591  -9.993  14.928  0.00  0.00    +0.009 A 
ATOM     25  C   UNL     1      -4.351 -10.584  14.686  0.00  0.00    -0.018 A 
BRANCH  25  27
ATOM     27  C   UNL     1      -3.700 -10.404  13.406  0.00  0.00    -0.018 A 
ATOM     29  C   UNL     1      -2.315 -10.526  13.305  0.00  0.00    +0.008 A 
ATOM     30  C   UNL     1      -4.460 -10.106  12.274  0.00  0.00    +0.008 A 
ATOM     33  C   UNL     1      -1.687 -10.352  12.071  0.00  0.00    +0.001 A 
ATOM     34  C   UNL     1      -3.833  -9.933  11.040  0.00  0.00    +0.001 A 
ATOM     37  C   UNL     1      -2.446 -10.056  10.939  0.00  0.00    +0.000 A 
ENDBRANCH  25  27
ENDBRANCH  16  19
BRANCH  17   6
ATOM      3  O   UNL     1     -12.840  -7.952  15.300  0.00  0.00    -0.275 OA
ATOM      6  N   UNL     1     -10.534  -7.705  15.510  0.00  0.00    -0.281 N 
ATOM     22  C   UNL     1     -11.823  -7.267  15.227  0.00  0.00    +0.222 C 
ATOM     39  H   UNL     1      -9.751  -7.138  15.194  0.00  0.00    +0.155 HD
BRANCH  22  26
ATOM     26  C   UNL     1     -11.828  -5.809  14.808  0.00  0.00    +0.131 C 
BRANCH  26  28
ATOM     28  C   UNL     1     -12.694  -5.536  13.606  0.00  0.00    -0.039 A 
ATOM     31  C   UNL     1     -12.395  -6.146  12.397  0.00  0.00    +0.004 A 
ATOM     32  C   UNL     1     -13.778  -4.678  13.726  0.00  0.00    +0.004 A 
ATOM     35  C   UNL     1     -13.197  -5.893  11.283  0.00  0.00    +0.000 A 
ATOM     36  C   UNL     1     -14.580  -4.425  12.614  0.00  0.00    +0.000 A 
ATOM     38  C   UNL     1     -14.290  -5.033  11.392  0.00  0.00    +0.000 A 
ENDBRANCH  26  28
ENDBRANCH  22  26
ENDBRANCH  17   6
TORSDOF 5
ENDMDL
MODEL 9
REMARK VINA RESULT:      -7.2     25.922     30.118
REMARK  Name = 11885871
REMARK  5 active torsions:
REMARK  status: ('A' for Active; 'I' for Inactive)
REMARK    1  A    between atoms: N_6  and  C_17
REMARK    2  A    between atoms: C_16  and  C_19
REMARK    3  A    between atoms: C_22  and  C_26
REMARK    4  A    between atoms: C_25  and  C_27
REMARK    5  A    between atoms: C_26  and  C_28
REMARK                            x       y       z     vdW  Elec       q    Type
REMARK                         _______ _______ _______ _____ _____    ______ ____
ROOT
ATOM      1  O   UNL     1      -9.315  -8.302  17.999  0.00  0.00    -0.266 OA
ATOM      2  O   UNL     1      -4.454  -9.873  17.180  0.00  0.00    -0.270 OA
ATOM      4  N   UNL     1      -5.842 -11.752  17.038  0.00  0.00    -0.297 N 
ATOM      5  N   UNL     1      -8.726 -10.481  17.397  0.00  0.00    -0.310 N 
ATOM      7  C   UNL     1      -7.412 -12.040  18.948  0.00  0.00    +0.027 C 
ATOM      8  C   UNL     1      -8.063 -12.811  16.703  0.00  0.00    +0.054 C 
ATOM      9  C   UNL     1      -8.118 -13.158  18.190  0.00  0.00    +0.018 C 
ATOM     10  C   UNL     1      -5.947 -11.920  18.488  0.00  0.00    +0.113 C 
ATOM     11  C   UNL     1      -8.190 -10.734  18.742  0.00  0.00    +0.130 C 
ATOM     12  C   UNL     1      -6.594 -12.737  16.244  0.00  0.00    +0.117 C 
ATOM     13  C   UNL     1      -8.752 -11.487  16.426  0.00  0.00    +0.027 A 
ATOM     14  C   UNL     1      -9.350 -11.270  15.243  0.00  0.00    +0.024 A 
ATOM     15  C   UNL     1      -9.299  -9.213  17.171  0.00  0.00    +0.273 A 
ATOM     16  C   UNL     1      -5.084 -10.699  16.521  0.00  0.00    +0.247 C 
ATOM     17  C   UNL     1      -9.931  -9.002  15.829  0.00  0.00    +0.099 A 
ATOM     18  C   UNL     1      -9.949 -10.001  14.941  0.00  0.00    +0.030 A 
ENDROOT
BRANCH  16  19
ATOM     19  C   UNL     1      -5.040 -10.536  15.064  0.00  0.00    +0.037 A 
ATOM     20  C   UNL     1      -6.114  -9.950  14.399  0.00  0.00    +0.013 A 
ATOM     21  C   UNL     1      -3.924 -10.970  14.352  0.00  0.00    +0.013 A 
ATOM     23  C   UNL     1      -6.073  -9.797  13.014  0.00  0.00    +0.009 A 
ATOM     24  C   UNL     1      -3.882 -10.815  12.966  0.00  0.00    +0.009 A 
ATOM     25  C   UNL     1      -4.957 -10.228  12.297  0.00  0.00    -0.018 A 
BRANCH  25  27
ATOM     27  C   UNL     1      -4.914 -10.067  10.860  0.00  0.00    -0.018 A 
ATOM     29  C   UNL     1      -5.673 -10.904  10.042  0.00  0.00    +0.008 A 
ATOM     30  C   UNL     1      -4.112  -9.076  10.293  0.00  0.00    +0.008 A 
ATOM     33  C   UNL     1      -5.631 -10.749   8.656  0.00  0.00    +0.001 A 
ATOM     34  C   UNL     1      -4.072  -8.920   8.907  0.00  0.00    +0.001 A 
ATOM     37  C   UNL     1      -4.831  -9.758   8.089  0.00  0.00    +0.000 A 
ENDBRANCH  25  27
ENDBRANCH  16  19
BRANCH  17   6
ATOM      3  O   UNL     1     -12.674  -8.266  16.175  0.00  0.00    -0.275 OA
ATOM      6  N   UNL     1     -10.480  -7.782  15.565  0.00  0.00    -0.281 N 
ATOM     22  C   UNL     1     -11.824  -7.485  15.754  0.00  0.00    +0.222 C 
ATOM     39  H   UNL     1      -9.920  -7.149  14.998  0.00  0.00    +0.155 HD
BRANCH  22  26
ATOM     26  C   UNL     1     -12.129  -6.048  15.372  0.00  0.00    +0.131 C 
BRANCH  26  28
ATOM     28  C   UNL     1     -12.285  -5.845  13.888  0.00  0.00    -0.039 A 
ATOM     31  C   UNL     1     -12.589  -6.930  13.079  0.00  0.00    +0.004 A 
ATOM     32  C   UNL     1     -12.124  -4.575  13.352  0.00  0.00    +0.004 A 
ATOM     35  C   UNL     1     -12.734  -6.741  11.704  0.00  0.00    +0.000 A 
ATOM     36  C   UNL     1     -12.270  -4.386  11.978  0.00  0.00    +0.000 A 
ATOM     38  C   UNL     1     -12.575  -5.470  11.153  0.00  0.00    +0.000 A 
ENDBRANCH  26  28
ENDBRANCH  22  26
ENDBRANCH  17   6
TORSDOF 5
ENDMDL
MODEL 10
REMARK VINA RESULT:      -7.2     27.236     29.453
REMARK  Name = 11885871
REMARK  5 active torsions:
REMARK  status: ('A' for Active; 'I' for Inactive)
REMARK    1  A    between atoms: N_6  and  C_17
REMARK    2  A    between atoms: C_16  and  C_19
REMARK    3  A    between atoms: C_22  and  C_26
REMARK    4  A    between atoms: C_25  and  C_27
REMARK    5  A    between atoms: C_26  and  C_28
REMARK                            x       y       z     vdW  Elec       q    Type
REMARK                         _______ _______ _______ _____ _____    ______ ____
ROOT
ATOM      1  O   UNL     1     -12.268  -7.468   9.289  0.00  0.00    -0.266 OA
ATOM      2  O   UNL     1     -16.617  -5.033  10.678  0.00  0.00    -0.270 OA
ATOM      4  N   UNL     1     -14.895  -4.257  12.060  0.00  0.00    -0.297 N 
ATOM      5  N   UNL     1     -12.364  -5.763  10.882  0.00  0.00    -0.310 N 
ATOM      7  C   UNL     1     -13.538  -6.042  13.142  0.00  0.00    +0.027 C 
ATOM      8  C   UNL     1     -12.491  -3.890  12.563  0.00  0.00    +0.054 C 
ATOM      9  C   UNL     1     -12.550  -4.987  13.626  0.00  0.00    +0.018 C 
ATOM     10  C   UNL     1     -14.934  -5.421  12.946  0.00  0.00    +0.113 C 
ATOM     11  C   UNL     1     -12.999  -6.668  11.850  0.00  0.00    +0.130 C 
ATOM     12  C   UNL     1     -13.883  -3.246  12.407  0.00  0.00    +0.117 C 
ATOM     13  C   UNL     1     -12.034  -4.448  11.228  0.00  0.00    +0.027 A 
ATOM     14  C   UNL     1     -11.350  -3.674  10.369  0.00  0.00    +0.024 A 
ATOM     15  C   UNL     1     -12.015  -6.314   9.633  0.00  0.00    +0.273 A 
ATOM     16  C   UNL     1     -15.769  -4.192  10.972  0.00  0.00    +0.247 C 
ATOM     17  C   UNL     1     -11.279  -5.409   8.693  0.00  0.00    +0.099 A 
ATOM     18  C   UNL     1     -10.968  -4.166   9.076  0.00  0.00    +0.030 A 
ENDROOT
BRANCH  16  19
ATOM     19  C   UNL     1     -15.670  -3.031  10.081  0.00  0.00    +0.037 A 
ATOM     20  C   UNL     1     -16.444  -1.900  10.327  0.00  0.00    +0.013 A 
ATOM     21  C   UNL     1     -14.803  -3.066   8.992  0.00  0.00    +0.013 A 
ATOM     23  C   UNL     1     -16.351  -0.797   9.479  0.00  0.00    +0.009 A 
ATOM     24  C   UNL     1     -14.709  -1.962   8.144  0.00  0.00    +0.009 A 
ATOM     25  C   UNL     1     -15.483  -0.827   8.388  0.00  0.00    -0.018 A 
BRANCH  25  27
ATOM     27  C   UNL     1     -15.385   0.318   7.510  0.00  0.00    -0.018 A 
ATOM     29  C   UNL     1     -16.530   0.830   6.901  0.00  0.00    +0.008 A 
ATOM     30  C   UNL     1     -14.144   0.911   7.271  0.00  0.00    +0.008 A 
ATOM     33  C   UNL     1     -16.437   1.934   6.053  0.00  0.00    +0.001 A 
ATOM     34  C   UNL     1     -14.051   2.015   6.424  0.00  0.00    +0.001 A 
ATOM     37  C   UNL     1     -15.197   2.526   5.815  0.00  0.00    +0.000 A 
ENDBRANCH  25  27
ENDBRANCH  16  19
BRANCH  17   6
ATOM      3  O   UNL     1      -8.848  -6.760   8.018  0.00  0.00    -0.275 OA
ATOM      6  N   UNL     1     -10.940  -5.899   7.467  0.00  0.00    -0.281 N 
ATOM     22  C   UNL     1      -9.740  -6.548   7.200  0.00  0.00    +0.222 C 
ATOM     39  H   UNL     1     -11.496  -5.570   6.681  0.00  0.00    +0.155 HD
BRANCH  22  26
ATOM     26  C   UNL     1      -9.657  -6.976   5.747  0.00  0.00    +0.131 C 
BRANCH  26  28
ATOM     28  C   UNL     1      -8.902  -8.264   5.546  0.00  0.00    -0.039 A 
ATOM     31  C   UNL     1      -9.583  -9.471   5.601  0.00  0.00    +0.004 A 
ATOM     32  C   UNL     1      -7.535  -8.224   5.307  0.00  0.00    +0.004 A 
ATOM     35  C   UNL     1      -8.884 -10.664   5.415  0.00  0.00    +0.000 A 
ATOM     36  C   UNL     1      -6.836  -9.416   5.121  0.00  0.00    +0.000 A 
ATOM     38  C   UNL     1      -7.510 -10.636   5.174  0.00  0.00    +0.000 A 
ENDBRANCH  26  28
ENDBRANCH  22  26
ENDBRANCH  17   6
TORSDOF 5
ENDMDL
