MODEL 1
REMARK VINA RESULT:      -7.7      0.000      0.000
REMARK  Name = 51137229
REMARK  4 active torsions:
REMARK  status: ('A' for Active; 'I' for Inactive)
REMARK    1  A    between atoms: N_3  and  C_7
REMARK    2  A    between atoms: C_9  and  C_16
REMARK    3  A    between atoms: C_17  and  C_18
REMARK    4  A    between atoms: C_19  and  C_20
REMARK                            x       y       z     vdW  Elec       q    Type
REMARK                         _______ _______ _______ _____ _____    ______ ____
ROOT
ATOM      3  N   UNL     1      15.469   6.786  19.705  0.00  0.00    -0.299 NA
ATOM      8  C   UNL     1      14.657   6.836  20.923  0.00  0.00    +0.097 C 
ATOM      9  C   UNL     1      13.223   6.786  20.379  0.00  0.00    +0.092 C 
ATOM     10  C   UNL     1      14.800   7.689  18.768  0.00  0.00    +0.085 C 
ATOM     11  C   UNL     1      13.329   7.335  18.946  0.00  0.00    +0.029 C 
ENDROOT
BRANCH   3   7
ATOM      2  O   UNL     1      20.781   5.606  22.567  0.00  0.00    -0.276 OA
ATOM      4  N   UNL     1      19.251   7.044  21.573  0.00  0.00    -0.302 N 
ATOM      7  C   UNL     1      16.859   7.162  19.946  0.00  0.00    +0.060 C 
ATOM     12  C   UNL     1      17.745   5.910  19.984  0.00  0.00    +0.038 C 
ATOM     13  C   UNL     1      16.974   7.941  21.262  0.00  0.00    +0.038 C 
ATOM     14  C   UNL     1      19.188   6.274  20.330  0.00  0.00    +0.109 C 
ATOM     15  C   UNL     1      18.434   8.264  21.583  0.00  0.00    +0.109 C 
ATOM     17  C   UNL     1      20.075   6.617  22.613  0.00  0.00    +0.212 C 
ATOM     18  C   UNL     1      20.082   7.463  23.861  0.00  0.00    +0.109 C 
ENDBRANCH   3   7
BRANCH   9  16
ATOM      1  O   UNL     1      12.379   8.856  21.380  0.00  0.00    -0.420 OA
ATOM      5  N   UNL     1      11.226   7.028  21.957  0.00  0.00    -0.112 NA
ATOM      6  N   UNL     1      10.647   8.115  22.586  0.00  0.00    -0.107 NA
ATOM     16  C   UNL     1      12.232   7.507  21.263  0.00  0.00    +0.222 A 
ATOM     19  C   UNL     1      11.352   9.159  22.220  0.00  0.00    +0.248 A 
BRANCH  19  20
ATOM     20  C   UNL     1      11.211  10.544  22.564  0.00  0.00    +0.038 A 
ATOM     21  C   UNL     1      10.904  10.910  23.873  0.00  0.00    +0.013 A 
ATOM     22  C   UNL     1      11.380  11.525  21.586  0.00  0.00    +0.013 A 
ATOM     23  C   UNL     1      10.767  12.257  24.208  0.00  0.00    +0.001 A 
ATOM     24  C   UNL     1      11.243  12.874  21.920  0.00  0.00    +0.001 A 
ATOM     25  C   UNL     1      10.935  13.239  23.231  0.00  0.00    +0.000 A 
ENDBRANCH  19  20
ENDBRANCH   9  16
TORSDOF 3
ENDMDL
MODEL 2
REMARK VINA RESULT:      -7.4     26.974     28.821
REMARK  Name = 51137229
REMARK  4 active torsions:
REMARK  status: ('A' for Active; 'I' for Inactive)
REMARK    1  A    between atoms: N_3  and  C_7
REMARK    2  A    between atoms: C_9  and  C_16
REMARK    3  A    between atoms: C_17  and  C_18
REMARK    4  A    between atoms: C_19  and  C_20
REMARK                            x       y       z     vdW  Elec       q    Type
REMARK                         _______ _______ _______ _____ _____    ______ ____
ROOT
ATOM      3  N   UNL     1      -2.908 -10.748  10.651  0.00  0.00    -0.299 NA
ATOM      8  C   UNL     1      -2.477 -10.119  11.901  0.00  0.00    +0.097 C 
ATOM      9  C   UNL     1      -2.056 -11.318  12.760  0.00  0.00    +0.092 C 
ATOM     10  C   UNL     1      -3.692 -11.911  11.066  0.00  0.00    +0.085 C 
ATOM     11  C   UNL     1      -2.851 -12.505  12.189  0.00  0.00    +0.029 C 
ENDROOT
BRANCH   3   7
ATOM      2  O   UNL     1      -8.292  -8.063   9.380  0.00  0.00    -0.276 OA
ATOM      4  N   UNL     1      -6.204  -8.884   8.775  0.00  0.00    -0.302 N 
ATOM      7  C   UNL     1      -3.671  -9.837   9.802  0.00  0.00    +0.060 C 
ATOM     12  C   UNL     1      -4.618  -8.987  10.659  0.00  0.00    +0.038 C 
ATOM     13  C   UNL     1      -4.462 -10.630   8.754  0.00  0.00    +0.038 C 
ATOM     14  C   UNL     1      -5.494  -8.094   9.782  0.00  0.00    +0.109 C 
ATOM     15  C   UNL     1      -5.342  -9.703   7.914  0.00  0.00    +0.109 C 
ATOM     17  C   UNL     1      -7.591  -8.787   8.668  0.00  0.00    +0.212 C 
ATOM     18  C   UNL     1      -8.248  -9.635   7.608  0.00  0.00    +0.109 C 
ENDBRANCH   3   7
BRANCH   9  16
ATOM      1  O   UNL     1      -3.528 -10.931  14.678  0.00  0.00    -0.420 OA
ATOM      5  N   UNL     1      -1.353 -10.989  15.195  0.00  0.00    -0.112 NA
ATOM      6  N   UNL     1      -2.063 -10.766  16.361  0.00  0.00    -0.107 NA
ATOM     16  C   UNL     1      -2.248 -11.079  14.240  0.00  0.00    +0.222 A 
ATOM     19  C   UNL     1      -3.327 -10.740  16.011  0.00  0.00    +0.248 A 
BRANCH  19  20
ATOM     20  C   UNL     1      -4.508 -10.543  16.801  0.00  0.00    +0.038 A 
ATOM     21  C   UNL     1      -4.585 -11.080  18.085  0.00  0.00    +0.013 A 
ATOM     22  C   UNL     1      -5.580  -9.816  16.284  0.00  0.00    +0.013 A 
ATOM     23  C   UNL     1      -5.733 -10.890  18.854  0.00  0.00    +0.001 A 
ATOM     24  C   UNL     1      -6.729  -9.625  17.053  0.00  0.00    +0.001 A 
ATOM     25  C   UNL     1      -6.805 -10.163  18.338  0.00  0.00    +0.000 A 
ENDBRANCH  19  20
ENDBRANCH   9  16
TORSDOF 3
ENDMDL
MODEL 3
REMARK VINA RESULT:      -7.1     26.631     28.973
REMARK  Name = 51137229
REMARK  4 active torsions:
REMARK  status: ('A' for Active; 'I' for Inactive)
REMARK    1  A    between atoms: N_3  and  C_7
REMARK    2  A    between atoms: C_9  and  C_16
REMARK    3  A    between atoms: C_17  and  C_18
REMARK    4  A    between atoms: C_19  and  C_20
REMARK                            x       y       z     vdW  Elec       q    Type
REMARK                         _______ _______ _______ _____ _____    ______ ____
ROOT
ATOM      3  N   UNL     1      -3.780 -11.094  16.239  0.00  0.00    -0.299 NA
ATOM      8  C   UNL     1      -4.197 -10.972  14.841  0.00  0.00    +0.097 C 
ATOM      9  C   UNL     1      -2.931 -11.371  14.071  0.00  0.00    +0.092 C 
ATOM     10  C   UNL     1      -2.442 -10.506  16.287  0.00  0.00    +0.085 C 
ATOM     11  C   UNL     1      -1.774 -11.078  15.042  0.00  0.00    +0.029 C 
ENDROOT
BRANCH   3   7
ATOM      2  O   UNL     1      -8.599 -11.585  20.027  0.00  0.00    -0.276 OA
ATOM      4  N   UNL     1      -7.236 -10.396  18.569  0.00  0.00    -0.302 N 
ATOM      7  C   UNL     1      -4.709 -10.440  17.157  0.00  0.00    +0.060 C 
ATOM     12  C   UNL     1      -4.967 -11.338  18.374  0.00  0.00    +0.038 C 
ATOM     13  C   UNL     1      -6.026 -10.122  16.437  0.00  0.00    +0.038 C 
ATOM     14  C   UNL     1      -6.009 -10.715  19.300  0.00  0.00    +0.109 C 
ATOM     15  C   UNL     1      -7.048  -9.523  17.403  0.00  0.00    +0.109 C 
ATOM     17  C   UNL     1      -8.462 -10.882  19.022  0.00  0.00    +0.212 C 
ATOM     18  C   UNL     1      -9.678 -10.511  18.212  0.00  0.00    +0.109 C 
ENDBRANCH   3   7
BRANCH   9  16
ATOM      1  O   UNL     1      -3.968 -10.551  12.010  0.00  0.00    -0.420 OA
ATOM      5  N   UNL     1      -1.762 -10.201  12.123  0.00  0.00    -0.112 NA
ATOM      6  N   UNL     1      -2.213  -9.693  10.919  0.00  0.00    -0.107 NA
ATOM     16  C   UNL     1      -2.819 -10.691  12.727  0.00  0.00    +0.222 A 
ATOM     19  C   UNL     1      -3.506  -9.920  10.896  0.00  0.00    +0.248 A 
BRANCH  19  20
ATOM     20  C   UNL     1      -4.488  -9.611   9.897  0.00  0.00    +0.038 A 
ATOM     21  C   UNL     1      -4.488 -10.297   8.684  0.00  0.00    +0.013 A 
ATOM     22  C   UNL     1      -5.442  -8.622  10.140  0.00  0.00    +0.013 A 
ATOM     23  C   UNL     1      -5.443  -9.997   7.712  0.00  0.00    +0.001 A 
ATOM     24  C   UNL     1      -6.397  -8.321   9.168  0.00  0.00    +0.001 A 
ATOM     25  C   UNL     1      -6.397  -9.008   7.954  0.00  0.00    +0.000 A 
ENDBRANCH  19  20
ENDBRANCH   9  16
TORSDOF 3
ENDMDL
MODEL 4
REMARK VINA RESULT:      -7.0     17.426     19.789
REMARK  Name = 51137229
REMARK  4 active torsions:
REMARK  status: ('A' for Active; 'I' for Inactive)
REMARK    1  A    between atoms: N_3  and  C_7
REMARK    2  A    between atoms: C_9  and  C_16
REMARK    3  A    between atoms: C_17  and  C_18
REMARK    4  A    between atoms: C_19  and  C_20
REMARK                            x       y       z     vdW  Elec       q    Type
REMARK                         _______ _______ _______ _____ _____    ______ ____
ROOT
ATOM      3  N   UNL     1      12.242   3.474   0.455  0.00  0.00    -0.299 NA
ATOM      8  C   UNL     1      12.440   3.750   1.880  0.00  0.00    +0.097 C 
ATOM      9  C   UNL     1      11.015   4.025   2.376  0.00  0.00    +0.092 C 
ATOM     10  C   UNL     1      11.283   4.482   0.006  0.00  0.00    +0.085 C 
ATOM     11  C   UNL     1      10.250   4.492   1.125  0.00  0.00    +0.029 C 
ENDROOT
BRANCH   3   7
ATOM      2  O   UNL     1      17.536   6.370  -0.726  0.00  0.00    -0.276 OA
ATOM      4  N   UNL     1      15.761   4.995  -1.324  0.00  0.00    -0.302 N 
ATOM      7  C   UNL     1      13.491   3.517  -0.300  0.00  0.00    +0.060 C 
ATOM     12  C   UNL     1      14.644   3.956   0.613  0.00  0.00    +0.038 C 
ATOM     13  C   UNL     1      13.355   4.476  -1.490  0.00  0.00    +0.038 C 
ATOM     14  C   UNL     1      15.942   4.100  -0.180  0.00  0.00    +0.109 C 
ATOM     15  C   UNL     1      14.680   4.610  -2.241  0.00  0.00    +0.109 C 
ATOM     17  C   UNL     1      16.611   6.088  -1.493  0.00  0.00    +0.212 C 
ATOM     18  C   UNL     1      16.357   6.962  -2.694  0.00  0.00    +0.109 C 
ENDBRANCH   3   7
BRANCH   9  16
ATOM      1  O   UNL     1      10.411   4.529   4.695  0.00  0.00    -0.420 OA
ATOM      5  N   UNL     1      11.399   6.225   3.621  0.00  0.00    -0.112 NA
ATOM      6  N   UNL     1      11.115   6.642   4.908  0.00  0.00    -0.107 NA
ATOM     16  C   UNL     1      10.972   4.986   3.541  0.00  0.00    +0.222 A 
ATOM     19  C   UNL     1      10.539   5.621   5.498  0.00  0.00    +0.248 A 
BRANCH  19  20
ATOM     20  C   UNL     1      10.033   5.480   6.832  0.00  0.00    +0.038 A 
ATOM     21  C   UNL     1       9.537   6.592   7.511  0.00  0.00    +0.013 A 
ATOM     22  C   UNL     1      10.038   4.230   7.452  0.00  0.00    +0.013 A 
ATOM     23  C   UNL     1       9.045   6.457   8.809  0.00  0.00    +0.001 A 
ATOM     24  C   UNL     1       9.547   4.093   8.751  0.00  0.00    +0.001 A 
ATOM     25  C   UNL     1       9.051   5.207   9.429  0.00  0.00    +0.000 A 
ENDBRANCH  19  20
ENDBRANCH   9  16
TORSDOF 3
ENDMDL
MODEL 5
REMARK VINA RESULT:      -6.9     26.800     28.719
REMARK  Name = 51137229
REMARK  4 active torsions:
REMARK  status: ('A' for Active; 'I' for Inactive)
REMARK    1  A    between atoms: N_3  and  C_7
REMARK    2  A    between atoms: C_9  and  C_16
REMARK    3  A    between atoms: C_17  and  C_18
REMARK    4  A    between atoms: C_19  and  C_20
REMARK                            x       y       z     vdW  Elec       q    Type
REMARK                         _______ _______ _______ _____ _____    ______ ____
ROOT
ATOM      3  N   UNL     1      -4.352 -10.658  16.473  0.00  0.00    -0.299 NA
ATOM      8  C   UNL     1      -5.637  -9.973  16.306  0.00  0.00    +0.097 C 
ATOM      9  C   UNL     1      -6.167  -9.887  17.743  0.00  0.00    +0.092 C 
ATOM     10  C   UNL     1      -4.619 -11.732  17.429  0.00  0.00    +0.085 C 
ATOM     11  C   UNL     1      -5.474 -11.043  18.485  0.00  0.00    +0.029 C 
ENDROOT
BRANCH   3   7
ATOM      2  O   UNL     1      -1.050  -9.568  11.402  0.00  0.00    -0.276 OA
ATOM      4  N   UNL     1      -2.730 -10.668  12.571  0.00  0.00    -0.302 N 
ATOM      7  C   UNL     1      -3.818 -11.157  15.209  0.00  0.00    +0.060 C 
ATOM     12  C   UNL     1      -2.381 -10.658  15.011  0.00  0.00    +0.038 C 
ATOM     13  C   UNL     1      -4.708 -10.703  14.045  0.00  0.00    +0.038 C 
ATOM     14  C   UNL     1      -1.837 -11.090  13.650  0.00  0.00    +0.109 C 
ATOM     15  C   UNL     1      -4.117 -11.134  12.702  0.00  0.00    +0.109 C 
ATOM     17  C   UNL     1      -2.230  -9.917  11.508  0.00  0.00    +0.212 C 
ATOM     18  C   UNL     1      -3.214  -9.519  10.438  0.00  0.00    +0.109 C 
ENDBRANCH   3   7
BRANCH   9  16
ATOM      1  O   UNL     1      -8.331  -8.883  17.192  0.00  0.00    -0.420 OA
ATOM      5  N   UNL     1      -8.478 -10.756  18.405  0.00  0.00    -0.112 NA
ATOM      6  N   UNL     1      -9.761 -10.300  18.167  0.00  0.00    -0.107 NA
ATOM     16  C   UNL     1      -7.676  -9.899  17.817  0.00  0.00    +0.222 A 
ATOM     19  C   UNL     1      -9.627  -9.205  17.456  0.00  0.00    +0.248 A 
BRANCH  19  20
ATOM     20  C   UNL     1     -10.616  -8.313  16.925  0.00  0.00    +0.038 A 
ATOM     21  C   UNL     1     -10.245  -7.044  16.482  0.00  0.00    +0.013 A 
ATOM     22  C   UNL     1     -11.950  -8.714  16.855  0.00  0.00    +0.013 A 
ATOM     23  C   UNL     1     -11.207  -6.176  15.965  0.00  0.00    +0.001 A 
ATOM     24  C   UNL     1     -12.913  -7.846  16.339  0.00  0.00    +0.001 A 
ATOM     25  C   UNL     1     -12.541  -6.577  15.895  0.00  0.00    +0.000 A 
ENDBRANCH  19  20
ENDBRANCH   9  16
TORSDOF 3
ENDMDL
MODEL 6
REMARK VINA RESULT:      -6.8      3.351     10.254
REMARK  Name = 51137229
REMARK  4 active torsions:
REMARK  status: ('A' for Active; 'I' for Inactive)
REMARK    1  A    between atoms: N_3  and  C_7
REMARK    2  A    between atoms: C_9  and  C_16
REMARK    3  A    between atoms: C_17  and  C_18
REMARK    4  A    between atoms: C_19  and  C_20
REMARK                            x       y       z     vdW  Elec       q    Type
REMARK                         _______ _______ _______ _____ _____    ______ ____
ROOT
ATOM      3  N   UNL     1      17.496   7.548  21.454  0.00  0.00    -0.299 NA
ATOM      8  C   UNL     1      18.255   6.316  21.229  0.00  0.00    +0.097 C 
ATOM      9  C   UNL     1      19.518   6.533  22.071  0.00  0.00    +0.092 C 
ATOM     10  C   UNL     1      18.488   8.620  21.378  0.00  0.00    +0.085 C 
ATOM     11  C   UNL     1      19.656   8.062  22.181  0.00  0.00    +0.029 C 
ENDROOT
BRANCH   3   7
ATOM      2  O   UNL     1      12.083  10.120  20.081  0.00  0.00    -0.276 OA
ATOM      4  N   UNL     1      13.675   8.439  19.886  0.00  0.00    -0.302 N 
ATOM      7  C   UNL     1      16.414   7.721  20.490  0.00  0.00    +0.060 C 
ATOM     12  C   UNL     1      15.950   9.184  20.475  0.00  0.00    +0.038 C 
ATOM     13  C   UNL     1      15.244   6.791  20.837  0.00  0.00    +0.038 C 
ATOM     14  C   UNL     1      14.754   9.367  19.543  0.00  0.00    +0.109 C 
ATOM     15  C   UNL     1      14.061   7.022  19.897  0.00  0.00    +0.109 C 
ATOM     17  C   UNL     1      12.391   8.926  20.132  0.00  0.00    +0.212 C 
ATOM     18  C   UNL     1      11.337   7.908  20.481  0.00  0.00    +0.109 C 
ENDBRANCH   3   7
BRANCH   9  16
ATOM      1  O   UNL     1      21.157   4.716  22.173  0.00  0.00    -0.420 OA
ATOM      5  N   UNL     1      21.458   6.120  20.458  0.00  0.00    -0.112 NA
ATOM      6  N   UNL     1      22.442   5.152  20.395  0.00  0.00    -0.107 NA
ATOM     16  C   UNL     1      20.730   5.826  21.510  0.00  0.00    +0.222 A 
ATOM     19  C   UNL     1      22.227   4.354  21.415  0.00  0.00    +0.248 A 
BRANCH  19  20
ATOM     20  C   UNL     1      22.934   3.183  21.845  0.00  0.00    +0.038 A 
ATOM     21  C   UNL     1      22.931   2.822  23.192  0.00  0.00    +0.013 A 
ATOM     22  C   UNL     1      23.625   2.405  20.916  0.00  0.00    +0.013 A 
ATOM     23  C   UNL     1      23.619   1.683  23.611  0.00  0.00    +0.001 A 
ATOM     24  C   UNL     1      24.314   1.266  21.335  0.00  0.00    +0.001 A 
ATOM     25  C   UNL     1      24.310   0.906  22.683  0.00  0.00    +0.000 A 
ENDBRANCH  19  20
ENDBRANCH   9  16
TORSDOF 3
ENDMDL
MODEL 7
REMARK VINA RESULT:      -6.7     27.079     30.612
REMARK  Name = 51137229
REMARK  4 active torsions:
REMARK  status: ('A' for Active; 'I' for Inactive)
REMARK    1  A    between atoms: N_3  and  C_7
REMARK    2  A    between atoms: C_9  and  C_16
REMARK    3  A    between atoms: C_17  and  C_18
REMARK    4  A    between atoms: C_19  and  C_20
REMARK                            x       y       z     vdW  Elec       q    Type
REMARK                         _______ _______ _______ _____ _____    ______ ____
ROOT
ATOM      3  N   UNL     1     -15.358   5.041  22.302  0.00  0.00    -0.299 NA
ATOM      8  C   UNL     1     -14.979   4.837  23.702  0.00  0.00    +0.097 C 
ATOM      9  C   UNL     1     -15.968   3.761  24.171  0.00  0.00    +0.092 C 
ATOM     10  C   UNL     1     -16.821   5.065  22.308  0.00  0.00    +0.085 C 
ATOM     11  C   UNL     1     -17.177   3.907  23.230  0.00  0.00    +0.029 C 
ENDROOT
BRANCH   3   7
ATOM      2  O   UNL     1     -13.252   8.028  17.358  0.00  0.00    -0.276 OA
ATOM      4  N   UNL     1     -13.316   7.613  19.643  0.00  0.00    -0.302 N 
ATOM      7  C   UNL     1     -14.782   6.260  21.741  0.00  0.00    +0.060 C 
ATOM     12  C   UNL     1     -15.423   6.566  20.381  0.00  0.00    +0.038 C 
ATOM     13  C   UNL     1     -13.263   6.107  21.596  0.00  0.00    +0.038 C 
ATOM     14  C   UNL     1     -14.767   7.784  19.732  0.00  0.00    +0.109 C 
ATOM     15  C   UNL     1     -12.650   7.335  20.922  0.00  0.00    +0.109 C 
ATOM     17  C   UNL     1     -12.674   7.758  18.414  0.00  0.00    +0.212 C 
ATOM     18  C   UNL     1     -11.179   7.563  18.406  0.00  0.00    +0.109 C 
ENDBRANCH   3   7
BRANCH   9  16
ATOM      1  O   UNL     1     -15.653   2.995  26.475  0.00  0.00    -0.420 OA
ATOM      5  N   UNL     1     -17.119   4.671  26.264  0.00  0.00    -0.112 NA
ATOM      6  N   UNL     1     -17.039   4.340  27.604  0.00  0.00    -0.107 NA
ATOM     16  C   UNL     1     -16.294   3.861  25.643  0.00  0.00    +0.222 A 
ATOM     19  C   UNL     1     -16.172   3.357  27.680  0.00  0.00    +0.248 A 
BRANCH  19  20
ATOM     20  C   UNL     1     -15.696   2.621  28.815  0.00  0.00    +0.038 A 
ATOM     21  C   UNL     1     -14.838   3.228  29.730  0.00  0.00    +0.013 A 
ATOM     22  C   UNL     1     -16.093   1.297  29.002  0.00  0.00    +0.013 A 
ATOM     23  C   UNL     1     -14.375   2.512  30.834  0.00  0.00    +0.001 A 
ATOM     24  C   UNL     1     -15.630   0.580  30.107  0.00  0.00    +0.001 A 
ATOM     25  C   UNL     1     -14.771   1.188  31.022  0.00  0.00    +0.000 A 
ENDBRANCH  19  20
ENDBRANCH   9  16
TORSDOF 3
ENDMDL
MODEL 8
REMARK VINA RESULT:      -6.7     26.400     29.114
REMARK  Name = 51137229
REMARK  4 active torsions:
REMARK  status: ('A' for Active; 'I' for Inactive)
REMARK    1  A    between atoms: N_3  and  C_7
REMARK    2  A    between atoms: C_9  and  C_16
REMARK    3  A    between atoms: C_17  and  C_18
REMARK    4  A    between atoms: C_19  and  C_20
REMARK                            x       y       z     vdW  Elec       q    Type
REMARK                         _______ _______ _______ _____ _____    ______ ____
ROOT
ATOM      3  N   UNL     1     -12.172   8.336  19.574  0.00  0.00    -0.299 NA
ATOM      8  C   UNL     1     -13.567   8.068  19.930  0.00  0.00    +0.097 C 
ATOM      9  C   UNL     1     -13.438   7.182  21.175  0.00  0.00    +0.092 C 
ATOM     10  C   UNL     1     -11.489   7.052  19.732  0.00  0.00    +0.085 C 
ATOM     11  C   UNL     1     -12.052   6.527  21.046  0.00  0.00    +0.029 C 
ENDROOT
BRANCH   3   7
ATOM      2  O   UNL     1     -12.590   7.425  13.508  0.00  0.00    -0.276 OA
ATOM      4  N   UNL     1     -11.702   8.482  15.377  0.00  0.00    -0.302 N 
ATOM      7  C   UNL     1     -12.035   8.879  18.225  0.00  0.00    +0.060 C 
ATOM     12  C   UNL     1     -13.189   8.390  17.341  0.00  0.00    +0.038 C 
ATOM     13  C   UNL     1     -10.686   8.463  17.625  0.00  0.00    +0.038 C 
ATOM     14  C   UNL     1     -13.013   8.868  15.901  0.00  0.00    +0.109 C 
ATOM     15  C   UNL     1     -10.559   8.940  16.177  0.00  0.00    +0.109 C 
ATOM     17  C   UNL     1     -11.615   7.768  14.182  0.00  0.00    +0.212 C 
ATOM     18  C   UNL     1     -10.229   7.405  13.711  0.00  0.00    +0.109 C 
ENDBRANCH   3   7
BRANCH   9  16
ATOM      1  O   UNL     1     -14.659   5.526  22.504  0.00  0.00    -0.420 OA
ATOM      5  N   UNL     1     -15.550   5.914  20.489  0.00  0.00    -0.112 NA
ATOM      6  N   UNL     1     -16.331   4.969  21.127  0.00  0.00    -0.107 NA
ATOM     16  C   UNL     1     -14.586   6.211  21.330  0.00  0.00    +0.222 A 
ATOM     19  C   UNL     1     -15.774   4.773  22.299  0.00  0.00    +0.248 A 
BRANCH  19  20
ATOM     20  C   UNL     1     -16.152   3.905  23.376  0.00  0.00    +0.038 A 
ATOM     21  C   UNL     1     -15.580   4.067  24.636  0.00  0.00    +0.013 A 
ATOM     22  C   UNL     1     -17.091   2.896  23.160  0.00  0.00    +0.013 A 
ATOM     23  C   UNL     1     -15.947   3.223  25.684  0.00  0.00    +0.001 A 
ATOM     24  C   UNL     1     -17.458   2.050  24.208  0.00  0.00    +0.001 A 
ATOM     25  C   UNL     1     -16.885   2.214  25.470  0.00  0.00    +0.000 A 
ENDBRANCH  19  20
ENDBRANCH   9  16
TORSDOF 3
ENDMDL
MODEL 9
REMARK VINA RESULT:      -6.5     29.510     31.144
REMARK  Name = 51137229
REMARK  4 active torsions:
REMARK  status: ('A' for Active; 'I' for Inactive)
REMARK    1  A    between atoms: N_3  and  C_7
REMARK    2  A    between atoms: C_9  and  C_16
REMARK    3  A    between atoms: C_17  and  C_18
REMARK    4  A    between atoms: C_19  and  C_20
REMARK                            x       y       z     vdW  Elec       q    Type
REMARK                         _______ _______ _______ _____ _____    ______ ____
ROOT
ATOM      3  N   UNL     1     -10.747  -5.512   8.469  0.00  0.00    -0.299 NA
ATOM      8  C   UNL     1     -11.633  -5.793   9.601  0.00  0.00    +0.097 C 
ATOM      9  C   UNL     1     -12.147  -4.400   9.988  0.00  0.00    +0.092 C 
ATOM     10  C   UNL     1      -9.993  -4.323   8.868  0.00  0.00    +0.085 C 
ATOM     11  C   UNL     1     -11.064  -3.431   9.482  0.00  0.00    +0.029 C 
ENDROOT
BRANCH   3   7
ATOM      2  O   UNL     1      -6.982  -9.944  10.464  0.00  0.00    -0.276 OA
ATOM      4  N   UNL     1      -7.724  -8.439   8.857  0.00  0.00    -0.302 N 
ATOM      7  C   UNL     1      -9.879  -6.640   8.147  0.00  0.00    +0.060 C 
ATOM     12  C   UNL     1     -10.075  -7.765   9.172  0.00  0.00    +0.038 C 
ATOM     13  C   UNL     1      -8.414  -6.188   8.121  0.00  0.00    +0.038 C 
ATOM     14  C   UNL     1      -9.107  -8.917   8.908  0.00  0.00    +0.109 C 
ATOM     15  C   UNL     1      -7.477  -7.372   7.878  0.00  0.00    +0.109 C 
ATOM     17  C   UNL     1      -6.756  -9.023   9.674  0.00  0.00    +0.212 C 
ATOM     18  C   UNL     1      -5.357  -8.472   9.564  0.00  0.00    +0.109 C 
ENDBRANCH   3   7
BRANCH   9  16
ATOM      1  O   UNL     1     -12.173  -5.350  12.245  0.00  0.00    -0.420 OA
ATOM      5  N   UNL     1     -13.009  -3.279  12.117  0.00  0.00    -0.112 NA
ATOM      6  N   UNL     1     -13.084  -3.689  13.435  0.00  0.00    -0.107 NA
ATOM     16  C   UNL     1     -12.471  -4.279  11.459  0.00  0.00    +0.222 A 
ATOM     19  C   UNL     1     -12.585  -4.902  13.463  0.00  0.00    +0.248 A 
BRANCH  19  20
ATOM     20  C   UNL     1     -12.411  -5.813  14.557  0.00  0.00    +0.038 A 
ATOM     21  C   UNL     1     -11.205  -5.842  15.255  0.00  0.00    +0.013 A 
ATOM     22  C   UNL     1     -13.449  -6.670  14.922  0.00  0.00    +0.013 A 
ATOM     23  C   UNL     1     -11.035  -6.727  16.320  0.00  0.00    +0.001 A 
ATOM     24  C   UNL     1     -13.280  -7.557  15.987  0.00  0.00    +0.001 A 
ATOM     25  C   UNL     1     -12.073  -7.585  16.685  0.00  0.00    +0.000 A 
ENDBRANCH  19  20
ENDBRANCH   9  16
TORSDOF 3
ENDMDL
MODEL 10
REMARK VINA RESULT:      -6.5     26.242     29.128
REMARK  Name = 51137229
REMARK  4 active torsions:
REMARK  status: ('A' for Active; 'I' for Inactive)
REMARK    1  A    between atoms: N_3  and  C_7
REMARK    2  A    between atoms: C_9  and  C_16
REMARK    3  A    between atoms: C_17  and  C_18
REMARK    4  A    between atoms: C_19  and  C_20
REMARK                            x       y       z     vdW  Elec       q    Type
REMARK                         _______ _______ _______ _____ _____    ______ ____
ROOT
ATOM      3  N   UNL     1     -11.726   8.681  19.215  0.00  0.00    -0.299 NA
ATOM      8  C   UNL     1     -13.005   8.823  19.915  0.00  0.00    +0.097 C 
ATOM      9  C   UNL     1     -12.795   7.985  21.183  0.00  0.00    +0.092 C 
ATOM     10  C   UNL     1     -11.381   7.266  19.345  0.00  0.00    +0.085 C 
ATOM     11  C   UNL     1     -11.705   6.968  20.803  0.00  0.00    +0.029 C 
ENDROOT
BRANCH   3   7
ATOM      2  O   UNL     1     -12.541   7.157  13.314  0.00  0.00    -0.276 OA
ATOM      4  N   UNL     1     -11.671   8.507  14.993  0.00  0.00    -0.302 N 
ATOM      7  C   UNL     1     -11.803   9.111  17.822  0.00  0.00    +0.060 C 
ATOM     12  C   UNL     1     -12.938   8.369  17.104  0.00  0.00    +0.038 C 
ATOM     13  C   UNL     1     -10.465   8.855  17.117  0.00  0.00    +0.038 C 
ATOM     14  C   UNL     1     -12.974   8.733  15.620  0.00  0.00    +0.109 C 
ATOM     15  C   UNL     1     -10.550   9.210  15.632  0.00  0.00    +0.109 C 
ATOM     17  C   UNL     1     -11.577   7.708  13.854  0.00  0.00    +0.212 C 
ATOM     18  C   UNL     1     -10.200   7.522  13.270  0.00  0.00    +0.109 C 
ENDBRANCH   3   7
BRANCH   9  16
ATOM      1  O   UNL     1     -14.743   6.535  20.871  0.00  0.00    -0.420 OA
ATOM      5  N   UNL     1     -14.663   7.537  22.869  0.00  0.00    -0.112 NA
ATOM      6  N   UNL     1     -15.803   6.755  22.829  0.00  0.00    -0.107 NA
ATOM     16  C   UNL     1     -14.076   7.377  21.706  0.00  0.00    +0.222 A 
ATOM     19  C   UNL     1     -15.809   6.189  21.644  0.00  0.00    +0.248 A 
BRANCH  19  20
ATOM     20  C   UNL     1     -16.747   5.281  21.051  0.00  0.00    +0.038 A 
ATOM     21  C   UNL     1     -17.509   4.439  21.859  0.00  0.00    +0.013 A 
ATOM     22  C   UNL     1     -16.894   5.240  19.664  0.00  0.00    +0.013 A 
ATOM     23  C   UNL     1     -18.421   3.556  21.282  0.00  0.00    +0.001 A 
ATOM     24  C   UNL     1     -17.807   4.356  19.086  0.00  0.00    +0.001 A 
ATOM     25  C   UNL     1     -18.570   3.514  19.896  0.00  0.00    +0.000 A 
ENDBRANCH  19  20
ENDBRANCH   9  16
TORSDOF 3
ENDMDL
