REMARK  Name = 51136599
REMARK  11 active torsions:
REMARK  status: ('A' for Active; 'I' for Inactive)
REMARK    1  A    between atoms: O_2  and  C_19
REMARK    2  A    between atoms: O_4  and  C_26
REMARK    3  A    between atoms: O_4  and  C_33
REMARK    4  A    between atoms: O_5  and  C_27
REMARK    5  A    between atoms: O_5  and  C_34
REMARK    6  A    between atoms: C_9  and  C_14
REMARK    7  A    between atoms: C_10  and  C_15
REMARK    8  A    between atoms: C_14  and  C_16
REMARK    9  A    between atoms: C_15  and  C_19
REMARK   10  A    between atoms: C_17  and  C_23
REMARK   11  A    between atoms: C_32  and  C_35
REMARK                            x       y       z     vdW  Elec       q    Type
REMARK                         _______ _______ _______ _____ _____    ______ ____
ROOT
ATOM      1  O   UNL     1       1.180   3.072   2.318  0.00  0.00    -0.270 OA
ATOM      6  N   UNL     1       2.182   2.029   0.479  0.00  0.00    -0.297 N 
ATOM      9  C   UNL     1       2.642  -0.027  -0.839  0.00  0.00    +0.016 C 
ATOM     10  C   UNL     1       4.074  -0.041  -0.245  0.00  0.00    +0.006 C 
ATOM     11  C   UNL     1       4.124   0.657   1.125  0.00  0.00    +0.023 C 
ATOM     12  C   UNL     1       2.093   1.412  -0.852  0.00  0.00    +0.112 C 
ATOM     13  C   UNL     1       3.526   2.059   1.053  0.00  0.00    +0.108 C 
ATOM     17  C   UNL     1       1.111   2.559   1.202  0.00  0.00    +0.247 C 
ENDROOT
BRANCH  17  23
ATOM     23  C   UNL     1      -0.223   2.511   0.594  0.00  0.00    +0.037 A 
ATOM     28  C   UNL     1      -0.459   3.152  -0.623  0.00  0.00    +0.014 A 
ATOM     29  C   UNL     1      -1.255   1.822   1.231  0.00  0.00    +0.014 A 
ATOM     30  C   UNL     1      -1.728   3.104  -1.201  0.00  0.00    +0.019 A 
ATOM     31  C   UNL     1      -2.523   1.774   0.653  0.00  0.00    +0.019 A 
ATOM     32  C   UNL     1      -2.760   2.415  -0.564  0.00  0.00    +0.052 A 
BRANCH  32  35
ATOM      8  N   UNL     1      -5.114   2.327  -1.638  0.00  0.00    -0.191 NA
ATOM     35  C   UNL     1      -4.059   2.367  -1.157  0.00  0.00    +0.099 C 
ENDBRANCH  32  35
ENDBRANCH  17  23
BRANCH   9  14
ATOM     14  C   UNL     1       1.662  -0.965  -0.124  0.00  0.00    +0.061 C 
BRANCH  14  16
ATOM      7  N   UNL     1       0.706  -1.269  -2.306  0.00  0.00    -0.287 NA
ATOM     16  C   UNL     1       0.496  -1.276  -1.031  0.00  0.00    +0.044 C 
ATOM     18  C   UNL     1      -0.827  -1.567  -0.422  0.00  0.00    +0.003 A 
ATOM     20  C   UNL     1      -1.944  -1.467  -1.261  0.00  0.00    -0.033 A 
ATOM     21  C   UNL     1      -1.737  -1.067  -2.692  0.00  0.00    +0.059 C 
ATOM     22  C   UNL     1      -0.411  -1.632  -3.185  0.00  0.00    +0.146 C 
ATOM     24  C   UNL     1      -0.980  -1.910   0.923  0.00  0.00    +0.059 A 
ATOM     25  C   UNL     1      -3.221  -1.689  -0.739  0.00  0.00    +0.053 A 
ATOM     26  C   UNL     1      -2.258  -2.145   1.431  0.00  0.00    +0.162 A 
ATOM     27  C   UNL     1      -3.376  -2.032   0.604  0.00  0.00    +0.162 A 
BRANCH  26   4
ATOM      4  O   UNL     1      -2.403  -2.482   2.744  0.00  0.00    -0.491 OA
ATOM     33  C   UNL     1      -2.573  -1.412   3.672  0.00  0.00    +0.277 C 
ENDBRANCH  26   4
BRANCH  27   5
ATOM      5  O   UNL     1      -4.627  -2.252   1.098  0.00  0.00    -0.491 OA
ATOM     34  C   UNL     1      -5.716  -2.116   0.187  0.00  0.00    +0.277 C 
ENDBRANCH  27   5
ENDBRANCH  14  16
ENDBRANCH   9  14
BRANCH  10  15
ATOM     15  C   UNL     1       4.674  -1.443  -0.157  0.00  0.00    +0.124 C 
BRANCH  15  19
ATOM      3  O   UNL     1       6.878  -0.402  -0.132  0.00  0.00    -0.251 OA
ATOM     19  C   UNL     1       6.177  -1.402  -0.110  0.00  0.00    +0.305 C 
BRANCH  19   2
ATOM      2  O   UNL     1       6.668  -2.666  -0.038  0.00  0.00    -0.481 OA
ATOM     36  H   UNL     1       7.648  -2.676  -0.006  0.00  0.00    +0.295 HD
ENDBRANCH  19   2
ENDBRANCH  15  19
ENDBRANCH  10  15
TORSDOF 9
