MODEL 1
REMARK VINA RESULT:      -5.9      0.000      0.000
REMARK  Name = 75536529
REMARK  12 active torsions:
REMARK  status: ('A' for Active; 'I' for Inactive)
REMARK    1  A    between atoms: O_2  and  C_9
REMARK    2  A    between atoms: N_4  and  C_8
REMARK    3  A    between atoms: N_4  and  C_14
REMARK    4  A    between atoms: N_5  and  C_12
REMARK    5  A    between atoms: N_6  and  C_22
REMARK    6  A    between atoms: C_10  and  C_12
REMARK    7  A    between atoms: C_13  and  C_15
REMARK    8  A    between atoms: C_13  and  C_17
REMARK    9  A    between atoms: C_13  and  C_18
REMARK   10  A    between atoms: C_13  and  C_19
REMARK   11  A    between atoms: C_14  and  C_20
REMARK   12  A    between atoms: C_15  and  C_16
REMARK                            x       y       z     vdW  Elec       q    Type
REMARK                         _______ _______ _______ _____ _____    ______ ____
ROOT
ATOM      1  O   UNL     1      16.524   9.311  20.490  0.00  0.00    -0.371 OA
ATOM      8  C   UNL     1      14.954   7.529  20.532  0.00  0.00    +0.111 C 
ATOM      9  C   UNL     1      16.266   7.048  21.125  0.00  0.00    +0.164 C 
ATOM     10  C   UNL     1      16.920   8.371  21.501  0.00  0.00    +0.165 C 
ATOM     11  C   UNL     1      15.404   8.765  19.771  0.00  0.00    +0.181 C 
ENDROOT
BRANCH   9   2
ATOM      2  O   UNL     1      16.082   6.211  22.250  0.00  0.00    -0.388 OA
ATOM     26  H   UNL     1      15.558   6.696  22.909  0.00  0.00    +0.210 HD
ENDBRANCH   9   2
BRANCH   8   4
ATOM      4  N   UNL     1      14.303   6.546  19.681  0.00  0.00    -0.302 NA
ATOM     24  H   UNL     1      14.140   5.695  20.218  0.00  0.00    +0.123 HD
BRANCH   4  14
ATOM     14  C   UNL     1      13.026   7.045  19.186  0.00  0.00    +0.156 C 
BRANCH  14  20
ATOM      6  N   UNL     1      11.564   8.427  20.697  0.00  0.00    -0.336 N 
ATOM      7  N   UNL     1      11.468   6.227  20.982  0.00  0.00    -0.239 NA
ATOM     20  C   UNL     1      12.018   7.202  20.293  0.00  0.00    +0.123 A 
ATOM     21  C   UNL     1      10.669   8.220  21.708  0.00  0.00    +0.106 A 
ATOM     22  C   UNL     1      11.949   9.713  20.165  0.00  0.00    +0.150 C 
ATOM     23  C   UNL     1      10.626   6.855  21.867  0.00  0.00    +0.130 A 
ENDBRANCH  14  20
ENDBRANCH   4  14
ENDBRANCH   8   4
BRANCH  10  12
ATOM     12  C   UNL     1      18.435   8.294  21.565  0.00  0.00    +0.138 C 
BRANCH  12   5
ATOM      3  O   UNL     1      21.042   7.563  20.534  0.00  0.00    -0.276 OA
ATOM      5  N   UNL     1      18.911   6.967  21.245  0.00  0.00    -0.313 N 
ATOM     16  C   UNL     1      20.181   6.714  20.755  0.00  0.00    +0.214 C 
ATOM     25  H   UNL     1      18.275   6.191  21.402  0.00  0.00    +0.149 HD
BRANCH  16  15
ATOM     15  C   UNL     1      20.434   5.238  20.491  0.00  0.00    +0.102 C 
BRANCH  15  13
ATOM     13  C   UNL     1      21.683   4.661  21.198  0.00  0.00    -0.029 C 
ATOM     17  C   UNL     1      21.779   5.160  22.649  0.00  0.00    +0.011 C 
ATOM     18  C   UNL     1      21.552   3.125  21.218  0.00  0.00    +0.011 C 
ATOM     19  C   UNL     1      22.975   5.028  20.448  0.00  0.00    +0.011 C 
ENDBRANCH  15  13
ENDBRANCH  16  15
ENDBRANCH  12   5
ENDBRANCH  10  12
TORSDOF 8
ENDMDL
MODEL 2
REMARK VINA RESULT:      -5.8      2.579      4.074
REMARK  Name = 75536529
REMARK  12 active torsions:
REMARK  status: ('A' for Active; 'I' for Inactive)
REMARK    1  A    between atoms: O_2  and  C_9
REMARK    2  A    between atoms: N_4  and  C_8
REMARK    3  A    between atoms: N_4  and  C_14
REMARK    4  A    between atoms: N_5  and  C_12
REMARK    5  A    between atoms: N_6  and  C_22
REMARK    6  A    between atoms: C_10  and  C_12
REMARK    7  A    between atoms: C_13  and  C_15
REMARK    8  A    between atoms: C_13  and  C_17
REMARK    9  A    between atoms: C_13  and  C_18
REMARK   10  A    between atoms: C_13  and  C_19
REMARK   11  A    between atoms: C_14  and  C_20
REMARK   12  A    between atoms: C_15  and  C_16
REMARK                            x       y       z     vdW  Elec       q    Type
REMARK                         _______ _______ _______ _____ _____    ______ ____
ROOT
ATOM      1  O   UNL     1      12.624   8.012  21.854  0.00  0.00    -0.371 OA
ATOM      8  C   UNL     1      12.475   6.856  19.784  0.00  0.00    +0.111 C 
ATOM      9  C   UNL     1      13.931   7.166  20.075  0.00  0.00    +0.164 C 
ATOM     10  C   UNL     1      13.889   7.389  21.581  0.00  0.00    +0.165 C 
ATOM     11  C   UNL     1      11.770   7.833  20.711  0.00  0.00    +0.181 C 
ENDROOT
BRANCH   9   2
ATOM      2  O   UNL     1      14.795   6.103  19.723  0.00  0.00    -0.388 OA
ATOM     26  H   UNL     1      14.333   5.265  19.889  0.00  0.00    +0.210 HD
ENDBRANCH   9   2
BRANCH   8   4
ATOM      4  N   UNL     1      12.107   7.034  18.389  0.00  0.00    -0.302 NA
ATOM     24  H   UNL     1      11.396   6.347  18.140  0.00  0.00    +0.123 HD
BRANCH   4  14
ATOM     14  C   UNL     1      11.576   8.371  18.153  0.00  0.00    +0.156 C 
BRANCH  14  20
ATOM      6  N   UNL     1      13.216  10.222  17.688  0.00  0.00    -0.336 N 
ATOM      7  N   UNL     1      12.623   8.977  15.948  0.00  0.00    -0.239 NA
ATOM     20  C   UNL     1      12.464   9.173  17.238  0.00  0.00    +0.123 A 
ATOM     21  C   UNL     1      13.898  10.727  16.617  0.00  0.00    +0.106 A 
ATOM     22  C   UNL     1      13.289  10.719  19.042  0.00  0.00    +0.150 C 
ATOM     23  C   UNL     1      13.515   9.943  15.554  0.00  0.00    +0.130 A 
ENDBRANCH  14  20
ENDBRANCH   4  14
ENDBRANCH   8   4
BRANCH  10  12
ATOM     12  C   UNL     1      15.016   8.270  22.089  0.00  0.00    +0.138 C 
BRANCH  12   5
ATOM      3  O   UNL     1      17.203   9.358  20.532  0.00  0.00    -0.276 OA
ATOM      5  N   UNL     1      16.308   7.667  21.851  0.00  0.00    -0.313 N 
ATOM     16  C   UNL     1      17.296   8.266  21.088  0.00  0.00    +0.214 C 
ATOM     25  H   UNL     1      16.488   6.764  22.277  0.00  0.00    +0.149 HD
BRANCH  16  15
ATOM     15  C   UNL     1      18.558   7.425  20.983  0.00  0.00    +0.102 C 
BRANCH  15  13
ATOM     13  C   UNL     1      19.713   7.875  21.908  0.00  0.00    -0.029 C 
ATOM     17  C   UNL     1      20.010   6.813  22.980  0.00  0.00    +0.011 C 
ATOM     18  C   UNL     1      20.974   8.058  21.041  0.00  0.00    +0.011 C 
ATOM     19  C   UNL     1      19.398   9.215  22.594  0.00  0.00    +0.011 C 
ENDBRANCH  15  13
ENDBRANCH  16  15
ENDBRANCH  12   5
ENDBRANCH  10  12
TORSDOF 8
ENDMDL
MODEL 3
REMARK VINA RESULT:      -5.8     28.433     31.741
REMARK  Name = 75536529
REMARK  12 active torsions:
REMARK  status: ('A' for Active; 'I' for Inactive)
REMARK    1  A    between atoms: O_2  and  C_9
REMARK    2  A    between atoms: N_4  and  C_8
REMARK    3  A    between atoms: N_4  and  C_14
REMARK    4  A    between atoms: N_5  and  C_12
REMARK    5  A    between atoms: N_6  and  C_22
REMARK    6  A    between atoms: C_10  and  C_12
REMARK    7  A    between atoms: C_13  and  C_15
REMARK    8  A    between atoms: C_13  and  C_17
REMARK    9  A    between atoms: C_13  and  C_18
REMARK   10  A    between atoms: C_13  and  C_19
REMARK   11  A    between atoms: C_14  and  C_20
REMARK   12  A    between atoms: C_15  and  C_16
REMARK                            x       y       z     vdW  Elec       q    Type
REMARK                         _______ _______ _______ _____ _____    ______ ____
ROOT
ATOM      1  O   UNL     1     -12.223  -7.872  16.720  0.00  0.00    -0.371 OA
ATOM      8  C   UNL     1      -9.854  -7.723  16.646  0.00  0.00    +0.111 C 
ATOM      9  C   UNL     1     -10.438  -6.875  15.532  0.00  0.00    +0.164 C 
ATOM     10  C   UNL     1     -11.858  -6.660  16.041  0.00  0.00    +0.165 C 
ATOM     11  C   UNL     1     -11.028  -8.628  16.982  0.00  0.00    +0.181 C 
ENDROOT
BRANCH   9   2
ATOM      2  O   UNL     1      -9.749  -5.652  15.359  0.00  0.00    -0.388 OA
ATOM     26  H   UNL     1     -10.265  -4.947  15.783  0.00  0.00    +0.210 HD
ENDBRANCH   9   2
BRANCH   8   4
ATOM      4  N   UNL     1      -8.664  -8.462  16.255  0.00  0.00    -0.302 NA
ATOM     24  H   UNL     1      -7.906  -7.804  16.078  0.00  0.00    +0.123 HD
BRANCH   4  14
ATOM     14  C   UNL     1      -8.254  -9.388  17.303  0.00  0.00    +0.156 C 
BRANCH  14  20
ATOM      6  N   UNL     1      -6.125 -10.425  18.153  0.00  0.00    -0.336 N 
ATOM      7  N   UNL     1      -6.076  -9.649  16.074  0.00  0.00    -0.239 NA
ATOM     20  C   UNL     1      -6.816  -9.810  17.147  0.00  0.00    +0.123 A 
ATOM     21  C   UNL     1      -4.862 -10.672  17.692  0.00  0.00    +0.106 A 
ATOM     22  C   UNL     1      -6.620 -10.760  19.468  0.00  0.00    +0.150 C 
ATOM     23  C   UNL     1      -4.856 -10.184  16.407  0.00  0.00    +0.130 A 
ENDBRANCH  14  20
ENDBRANCH   4  14
ENDBRANCH   8   4
BRANCH  10  12
ATOM     12  C   UNL     1     -12.854  -6.372  14.932  0.00  0.00    +0.138 C 
BRANCH  12   5
ATOM      3  O   UNL     1     -14.313  -4.443  13.338  0.00  0.00    -0.276 OA
ATOM      5  N   UNL     1     -12.312  -5.449  13.961  0.00  0.00    -0.313 N 
ATOM     16  C   UNL     1     -13.093  -4.558  13.243  0.00  0.00    +0.214 C 
ATOM     25  H   UNL     1     -11.308  -5.459  13.815  0.00  0.00    +0.149 HD
BRANCH  16  15
ATOM     15  C   UNL     1     -12.286  -3.703  12.279  0.00  0.00    +0.102 C 
BRANCH  15  13
ATOM     13  C   UNL     1     -12.513  -4.025  10.783  0.00  0.00    -0.029 C 
ATOM     17  C   UNL     1     -13.812  -3.382  10.270  0.00  0.00    +0.011 C 
ATOM     18  C   UNL     1     -11.332  -3.441   9.985  0.00  0.00    +0.011 C 
ATOM     19  C   UNL     1     -12.565  -5.542  10.534  0.00  0.00    +0.011 C 
ENDBRANCH  15  13
ENDBRANCH  16  15
ENDBRANCH  12   5
ENDBRANCH  10  12
TORSDOF 8
ENDMDL
MODEL 4
REMARK VINA RESULT:      -5.7      2.261      2.857
REMARK  Name = 75536529
REMARK  12 active torsions:
REMARK  status: ('A' for Active; 'I' for Inactive)
REMARK    1  A    between atoms: O_2  and  C_9
REMARK    2  A    between atoms: N_4  and  C_8
REMARK    3  A    between atoms: N_4  and  C_14
REMARK    4  A    between atoms: N_5  and  C_12
REMARK    5  A    between atoms: N_6  and  C_22
REMARK    6  A    between atoms: C_10  and  C_12
REMARK    7  A    between atoms: C_13  and  C_15
REMARK    8  A    between atoms: C_13  and  C_17
REMARK    9  A    between atoms: C_13  and  C_18
REMARK   10  A    between atoms: C_13  and  C_19
REMARK   11  A    between atoms: C_14  and  C_20
REMARK   12  A    between atoms: C_15  and  C_16
REMARK                            x       y       z     vdW  Elec       q    Type
REMARK                         _______ _______ _______ _____ _____    ______ ____
ROOT
ATOM      1  O   UNL     1      17.825   7.039  21.623  0.00  0.00    -0.371 OA
ATOM      8  C   UNL     1      16.402   6.223  19.904  0.00  0.00    +0.111 C 
ATOM      9  C   UNL     1      17.837   6.206  19.410  0.00  0.00    +0.164 C 
ATOM     10  C   UNL     1      18.601   6.228  20.727  0.00  0.00    +0.165 C 
ATOM     11  C   UNL     1      16.501   7.184  21.078  0.00  0.00    +0.181 C 
ENDROOT
BRANCH   9   2
ATOM      2  O   UNL     1      18.136   5.054  18.645  0.00  0.00    -0.388 OA
ATOM     26  H   UNL     1      18.802   4.534  19.124  0.00  0.00    +0.210 HD
ENDBRANCH   9   2
BRANCH   8   4
ATOM      4  N   UNL     1      15.444   6.655  18.900  0.00  0.00    -0.302 NA
ATOM     24  H   UNL     1      15.290   5.896  18.237  0.00  0.00    +0.123 HD
BRANCH   4  14
ATOM     14  C   UNL     1      14.170   7.016  19.511  0.00  0.00    +0.156 C 
BRANCH  14  20
ATOM      6  N   UNL     1      13.472   9.128  18.335  0.00  0.00    -0.336 N 
ATOM      7  N   UNL     1      12.292   7.306  17.864  0.00  0.00    -0.239 NA
ATOM     20  C   UNL     1      13.294   7.791  18.563  0.00  0.00    +0.123 A 
ATOM     21  C   UNL     1      12.522   9.520  17.434  0.00  0.00    +0.106 A 
ATOM     22  C   UNL     1      14.472   9.983  18.929  0.00  0.00    +0.150 C 
ATOM     23  C   UNL     1      11.806   8.379  17.159  0.00  0.00    +0.130 A 
ENDBRANCH  14  20
ENDBRANCH   4  14
ENDBRANCH   8   4
BRANCH  10  12
ATOM     12  C   UNL     1      20.001   6.801  20.598  0.00  0.00    +0.138 C 
BRANCH  12   5
ATOM      3  O   UNL     1      22.687   6.579  21.660  0.00  0.00    -0.276 OA
ATOM      5  N   UNL     1      20.972   5.767  20.318  0.00  0.00    -0.313 N 
ATOM     16  C   UNL     1      22.239   5.745  20.876  0.00  0.00    +0.214 C 
ATOM     25  H   UNL     1      20.694   5.022  19.687  0.00  0.00    +0.149 HD
BRANCH  16  15
ATOM     15  C   UNL     1      23.071   4.558  20.416  0.00  0.00    +0.102 C 
BRANCH  15  13
ATOM     13  C   UNL     1      23.354   3.504  21.512  0.00  0.00    -0.029 C 
ATOM     17  C   UNL     1      22.139   3.329  22.438  0.00  0.00    +0.011 C 
ATOM     18  C   UNL     1      23.634   2.157  20.817  0.00  0.00    +0.011 C 
ATOM     19  C   UNL     1      24.584   3.881  22.354  0.00  0.00    +0.011 C 
ENDBRANCH  15  13
ENDBRANCH  16  15
ENDBRANCH  12   5
ENDBRANCH  10  12
TORSDOF 8
ENDMDL
MODEL 5
REMARK VINA RESULT:      -5.6      2.451      8.914
REMARK  Name = 75536529
REMARK  12 active torsions:
REMARK  status: ('A' for Active; 'I' for Inactive)
REMARK    1  A    between atoms: O_2  and  C_9
REMARK    2  A    between atoms: N_4  and  C_8
REMARK    3  A    between atoms: N_4  and  C_14
REMARK    4  A    between atoms: N_5  and  C_12
REMARK    5  A    between atoms: N_6  and  C_22
REMARK    6  A    between atoms: C_10  and  C_12
REMARK    7  A    between atoms: C_13  and  C_15
REMARK    8  A    between atoms: C_13  and  C_17
REMARK    9  A    between atoms: C_13  and  C_18
REMARK   10  A    between atoms: C_13  and  C_19
REMARK   11  A    between atoms: C_14  and  C_20
REMARK   12  A    between atoms: C_15  and  C_16
REMARK                            x       y       z     vdW  Elec       q    Type
REMARK                         _______ _______ _______ _____ _____    ______ ____
ROOT
ATOM      1  O   UNL     1      18.295   7.263  21.636  0.00  0.00    -0.371 OA
ATOM      8  C   UNL     1      19.635   6.000  20.136  0.00  0.00    +0.111 C 
ATOM      9  C   UNL     1      18.177   5.635  19.925  0.00  0.00    +0.164 C 
ATOM     10  C   UNL     1      17.481   6.848  20.528  0.00  0.00    +0.165 C 
ATOM     11  C   UNL     1      19.587   6.644  21.512  0.00  0.00    +0.181 C 
ENDROOT
BRANCH   9   2
ATOM      2  O   UNL     1      17.850   5.462  18.560  0.00  0.00    -0.388 OA
ATOM     26  H   UNL     1      17.299   4.667  18.476  0.00  0.00    +0.210 HD
ENDBRANCH   9   2
BRANCH   8   4
ATOM      4  N   UNL     1      20.537   4.861  20.075  0.00  0.00    -0.302 NA
ATOM     24  H   UNL     1      20.567   4.509  19.119  0.00  0.00    +0.123 HD
BRANCH   4  14
ATOM     14  C   UNL     1      21.884   5.236  20.485  0.00  0.00    +0.156 C 
BRANCH  14  20
ATOM      6  N   UNL     1      22.704   4.427  22.721  0.00  0.00    -0.336 N 
ATOM      7  N   UNL     1      22.913   3.007  21.028  0.00  0.00    -0.239 NA
ATOM     20  C   UNL     1      22.504   4.203  21.388  0.00  0.00    +0.123 A 
ATOM     21  C   UNL     1      23.278   3.302  23.245  0.00  0.00    +0.106 A 
ATOM     22  C   UNL     1      22.377   5.625  23.458  0.00  0.00    +0.150 C 
ATOM     23  C   UNL     1      23.397   2.440  22.180  0.00  0.00    +0.130 A 
ENDBRANCH  14  20
ENDBRANCH   4  14
ENDBRANCH   8   4
BRANCH  10  12
ATOM     12  C   UNL     1      16.071   6.554  21.007  0.00  0.00    +0.138 C 
BRANCH  12   5
ATOM      3  O   UNL     1      13.219   6.970  21.300  0.00  0.00    -0.276 OA
ATOM      5  N   UNL     1      15.102   6.754  19.953  0.00  0.00    -0.313 N 
ATOM     16  C   UNL     1      13.751   6.946  20.192  0.00  0.00    +0.214 C 
ATOM     25  H   UNL     1      15.443   6.761  18.998  0.00  0.00    +0.149 HD
BRANCH  16  15
ATOM     15  C   UNL     1      12.942   7.125  18.917  0.00  0.00    +0.102 C 
BRANCH  15  13
ATOM     13  C   UNL     1      12.221   8.488  18.796  0.00  0.00    -0.029 C 
ATOM     17  C   UNL     1      13.181   9.650  19.099  0.00  0.00    +0.011 C 
ATOM     18  C   UNL     1      11.721   8.636  17.345  0.00  0.00    +0.011 C 
ATOM     19  C   UNL     1      11.009   8.572  19.738  0.00  0.00    +0.011 C 
ENDBRANCH  15  13
ENDBRANCH  16  15
ENDBRANCH  12   5
ENDBRANCH  10  12
TORSDOF 8
ENDMDL
MODEL 6
REMARK VINA RESULT:      -5.6      2.074      8.378
REMARK  Name = 75536529
REMARK  12 active torsions:
REMARK  status: ('A' for Active; 'I' for Inactive)
REMARK    1  A    between atoms: O_2  and  C_9
REMARK    2  A    between atoms: N_4  and  C_8
REMARK    3  A    between atoms: N_4  and  C_14
REMARK    4  A    between atoms: N_5  and  C_12
REMARK    5  A    between atoms: N_6  and  C_22
REMARK    6  A    between atoms: C_10  and  C_12
REMARK    7  A    between atoms: C_13  and  C_15
REMARK    8  A    between atoms: C_13  and  C_17
REMARK    9  A    between atoms: C_13  and  C_18
REMARK   10  A    between atoms: C_13  and  C_19
REMARK   11  A    between atoms: C_14  and  C_20
REMARK   12  A    between atoms: C_15  and  C_16
REMARK                            x       y       z     vdW  Elec       q    Type
REMARK                         _______ _______ _______ _____ _____    ______ ____
ROOT
ATOM      1  O   UNL     1      16.755   5.822  18.901  0.00  0.00    -0.371 OA
ATOM      8  C   UNL     1      17.524   6.361  21.083  0.00  0.00    +0.111 C 
ATOM      9  C   UNL     1      16.405   7.313  20.703  0.00  0.00    +0.164 C 
ATOM     10  C   UNL     1      15.714   6.526  19.597  0.00  0.00    +0.165 C 
ATOM     11  C   UNL     1      17.936   5.823  19.722  0.00  0.00    +0.181 C 
ENDROOT
BRANCH   9   2
ATOM      2  O   UNL     1      15.532   7.586  21.781  0.00  0.00    -0.388 OA
ATOM     26  H   UNL     1      15.007   6.788  21.959  0.00  0.00    +0.210 HD
ENDBRANCH   9   2
BRANCH   8   4
ATOM      4  N   UNL     1      18.619   7.001  21.793  0.00  0.00    -0.302 NA
ATOM     24  H   UNL     1      18.630   6.671  22.758  0.00  0.00    +0.123 HD
BRANCH   4  14
ATOM     14  C   UNL     1      19.901   6.689  21.172  0.00  0.00    +0.156 C 
BRANCH  14  20
ATOM      6  N   UNL     1      21.481   4.913  21.994  0.00  0.00    -0.336 N 
ATOM      7  N   UNL     1      21.279   6.716  23.275  0.00  0.00    -0.239 NA
ATOM     20  C   UNL     1      20.885   6.131  22.166  0.00  0.00    +0.123 A 
ATOM     21  C   UNL     1      22.309   4.707  23.063  0.00  0.00    +0.106 A 
ATOM     22  C   UNL     1      21.285   3.999  20.894  0.00  0.00    +0.150 C 
ATOM     23  C   UNL     1      22.167   5.833  23.839  0.00  0.00    +0.130 A 
ENDBRANCH  14  20
ENDBRANCH   4  14
ENDBRANCH   8   4
BRANCH  10  12
ATOM     12  C   UNL     1      14.950   7.406  18.623  0.00  0.00    +0.138 C 
BRANCH  12   5
ATOM      3  O   UNL     1      12.091   6.941  18.602  0.00  0.00    -0.276 OA
ATOM      5  N   UNL     1      13.932   8.179  19.297  0.00  0.00    -0.313 N 
ATOM     16  C   UNL     1      12.582   7.879  19.228  0.00  0.00    +0.214 C 
ATOM     25  H   UNL     1      14.236   8.974  19.851  0.00  0.00    +0.149 HD
BRANCH  16  15
ATOM     15  C   UNL     1      11.716   8.849  20.016  0.00  0.00    +0.102 C 
BRANCH  15  13
ATOM     13  C   UNL     1      11.806   8.693  21.552  0.00  0.00    -0.029 C 
ATOM     17  C   UNL     1      12.902   9.599  22.137  0.00  0.00    +0.011 C 
ATOM     18  C   UNL     1      10.452   9.117  22.155  0.00  0.00    +0.011 C 
ATOM     19  C   UNL     1      12.082   7.235  21.957  0.00  0.00    +0.011 C 
ENDBRANCH  15  13
ENDBRANCH  16  15
ENDBRANCH  12   5
ENDBRANCH  10  12
TORSDOF 8
ENDMDL
MODEL 7
REMARK VINA RESULT:      -5.5     27.193     28.860
REMARK  Name = 75536529
REMARK  12 active torsions:
REMARK  status: ('A' for Active; 'I' for Inactive)
REMARK    1  A    between atoms: O_2  and  C_9
REMARK    2  A    between atoms: N_4  and  C_8
REMARK    3  A    between atoms: N_4  and  C_14
REMARK    4  A    between atoms: N_5  and  C_12
REMARK    5  A    between atoms: N_6  and  C_22
REMARK    6  A    between atoms: C_10  and  C_12
REMARK    7  A    between atoms: C_13  and  C_15
REMARK    8  A    between atoms: C_13  and  C_17
REMARK    9  A    between atoms: C_13  and  C_18
REMARK   10  A    between atoms: C_13  and  C_19
REMARK   11  A    between atoms: C_14  and  C_20
REMARK   12  A    between atoms: C_15  and  C_16
REMARK                            x       y       z     vdW  Elec       q    Type
REMARK                         _______ _______ _______ _____ _____    ______ ____
ROOT
ATOM      1  O   UNL     1      -4.597 -13.443  15.803  0.00  0.00    -0.371 OA
ATOM      8  C   UNL     1      -4.997 -11.719  17.389  0.00  0.00    +0.111 C 
ATOM      9  C   UNL     1      -3.711 -11.418  16.643  0.00  0.00    +0.164 C 
ATOM     10  C   UNL     1      -3.894 -12.261  15.388  0.00  0.00    +0.165 C 
ATOM     11  C   UNL     1      -5.170 -13.202  17.100  0.00  0.00    +0.181 C 
ENDROOT
BRANCH   9   2
ATOM      2  O   UNL     1      -3.566 -10.044  16.339  0.00  0.00    -0.388 OA
ATOM     26  H   UNL     1      -2.771  -9.713  16.790  0.00  0.00    +0.210 HD
ENDBRANCH   9   2
BRANCH   8   4
ATOM      4  N   UNL     1      -4.931 -11.423  18.810  0.00  0.00    -0.302 NA
ATOM     24  H   UNL     1      -3.984 -11.130  19.047  0.00  0.00    +0.123 HD
BRANCH   4  14
ATOM     14  C   UNL     1      -5.861 -10.359  19.168  0.00  0.00    +0.156 C 
BRANCH  14  20
ATOM      6  N   UNL     1      -8.209 -10.321  18.266  0.00  0.00    -0.336 N 
ATOM      7  N   UNL     1      -7.816 -11.750  19.920  0.00  0.00    -0.239 NA
ATOM     20  C   UNL     1      -7.291 -10.830  19.142  0.00  0.00    +0.123 A 
ATOM     21  C   UNL     1      -9.396 -10.956  18.501  0.00  0.00    +0.106 A 
ATOM     22  C   UNL     1      -7.984  -9.300  17.270  0.00  0.00    +0.150 C 
ATOM     23  C   UNL     1      -9.129 -11.833  19.527  0.00  0.00    +0.130 A 
ENDBRANCH  14  20
ENDBRANCH   4  14
ENDBRANCH   8   4
BRANCH  10  12
ATOM     12  C   UNL     1      -2.582 -12.648  14.729  0.00  0.00    +0.138 C 
BRANCH  12   5
ATOM      3  O   UNL     1      -1.752  -9.962  14.031  0.00  0.00    -0.276 OA
ATOM      5  N   UNL     1      -2.469 -12.082  13.404  0.00  0.00    -0.313 N 
ATOM     16  C   UNL     1      -2.061 -10.780  13.167  0.00  0.00    +0.214 C 
ATOM     25  H   UNL     1      -2.694 -12.683  12.617  0.00  0.00    +0.149 HD
BRANCH  16  15
ATOM     15  C   UNL     1      -2.033 -10.425  11.689  0.00  0.00    +0.102 C 
BRANCH  15  13
ATOM     13  C   UNL     1      -3.426 -10.305  11.027  0.00  0.00    -0.029 C 
ATOM     17  C   UNL     1      -4.511  -9.997  12.071  0.00  0.00    +0.011 C 
ATOM     18  C   UNL     1      -3.375  -9.141  10.018  0.00  0.00    +0.011 C 
ATOM     19  C   UNL     1      -3.801 -11.589  10.268  0.00  0.00    +0.011 C 
ENDBRANCH  15  13
ENDBRANCH  16  15
ENDBRANCH  12   5
ENDBRANCH  10  12
TORSDOF 8
ENDMDL
MODEL 8
REMARK VINA RESULT:      -5.5     26.923     28.796
REMARK  Name = 75536529
REMARK  12 active torsions:
REMARK  status: ('A' for Active; 'I' for Inactive)
REMARK    1  A    between atoms: O_2  and  C_9
REMARK    2  A    between atoms: N_4  and  C_8
REMARK    3  A    between atoms: N_4  and  C_14
REMARK    4  A    between atoms: N_5  and  C_12
REMARK    5  A    between atoms: N_6  and  C_22
REMARK    6  A    between atoms: C_10  and  C_12
REMARK    7  A    between atoms: C_13  and  C_15
REMARK    8  A    between atoms: C_13  and  C_17
REMARK    9  A    between atoms: C_13  and  C_18
REMARK   10  A    between atoms: C_13  and  C_19
REMARK   11  A    between atoms: C_14  and  C_20
REMARK   12  A    between atoms: C_15  and  C_16
REMARK                            x       y       z     vdW  Elec       q    Type
REMARK                         _______ _______ _______ _____ _____    ______ ____
ROOT
ATOM      1  O   UNL     1      -4.259 -11.916  17.697  0.00  0.00    -0.371 OA
ATOM      8  C   UNL     1      -6.276 -10.684  17.460  0.00  0.00    +0.111 C 
ATOM      9  C   UNL     1      -5.173  -9.983  16.689  0.00  0.00    +0.164 C 
ATOM     10  C   UNL     1      -4.175 -11.118  16.506  0.00  0.00    +0.165 C 
ATOM     11  C   UNL     1      -5.471 -11.574  18.393  0.00  0.00    +0.181 C 
ENDROOT
BRANCH   9   2
ATOM      2  O   UNL     1      -5.618  -9.465  15.450  0.00  0.00    -0.388 OA
ATOM     26  H   UNL     1      -5.505 -10.154  14.774  0.00  0.00    +0.210 HD
ENDBRANCH   9   2
BRANCH   8   4
ATOM      4  N   UNL     1      -7.161  -9.775  18.170  0.00  0.00    -0.302 NA
ATOM     24  H   UNL     1      -6.975  -8.820  17.864  0.00  0.00    +0.123 HD
BRANCH   4  14
ATOM     14  C   UNL     1      -8.559 -10.092  17.907  0.00  0.00    +0.156 C 
BRANCH  14  20
ATOM      6  N   UNL     1      -9.732  -8.583  16.271  0.00  0.00    -0.336 N 
ATOM      7  N   UNL     1      -8.670 -10.330  15.406  0.00  0.00    -0.239 NA
ATOM     20  C   UNL     1      -8.973  -9.693  16.515  0.00  0.00    +0.123 A 
ATOM     21  C   UNL     1      -9.927  -8.507  14.921  0.00  0.00    +0.106 A 
ATOM     22  C   UNL     1     -10.244  -7.651  17.248  0.00  0.00    +0.150 C 
ATOM     23  C   UNL     1      -9.262  -9.597  14.408  0.00  0.00    +0.130 A 
ENDBRANCH  14  20
ENDBRANCH   4  14
ENDBRANCH   8   4
BRANCH  10  12
ATOM     12  C   UNL     1      -2.749 -10.637  16.310  0.00  0.00    +0.138 C 
BRANCH  12   5
ATOM      3  O   UNL     1      -2.018 -12.260  14.023  0.00  0.00    -0.276 OA
ATOM      5  N   UNL     1      -2.523 -10.190  14.954  0.00  0.00    -0.313 N 
ATOM     16  C   UNL     1      -2.175 -11.045  13.921  0.00  0.00    +0.214 C 
ATOM     25  H   UNL     1      -2.638  -9.200  14.762  0.00  0.00    +0.149 HD
BRANCH  16  15
ATOM     15  C   UNL     1      -1.987 -10.328  12.594  0.00  0.00    +0.102 C 
BRANCH  15  13
ATOM     13  C   UNL     1      -3.149 -10.511  11.590  0.00  0.00    -0.029 C 
ATOM     17  C   UNL     1      -3.171 -11.941  11.024  0.00  0.00    +0.011 C 
ATOM     18  C   UNL     1      -4.472 -10.265  12.341  0.00  0.00    +0.011 C 
ATOM     19  C   UNL     1      -3.056  -9.507  10.429  0.00  0.00    +0.011 C 
ENDBRANCH  15  13
ENDBRANCH  16  15
ENDBRANCH  12   5
ENDBRANCH  10  12
TORSDOF 8
ENDMDL
MODEL 9
REMARK VINA RESULT:      -5.4     32.823     35.213
REMARK  Name = 75536529
REMARK  12 active torsions:
REMARK  status: ('A' for Active; 'I' for Inactive)
REMARK    1  A    between atoms: O_2  and  C_9
REMARK    2  A    between atoms: N_4  and  C_8
REMARK    3  A    between atoms: N_4  and  C_14
REMARK    4  A    between atoms: N_5  and  C_12
REMARK    5  A    between atoms: N_6  and  C_22
REMARK    6  A    between atoms: C_10  and  C_12
REMARK    7  A    between atoms: C_13  and  C_15
REMARK    8  A    between atoms: C_13  and  C_17
REMARK    9  A    between atoms: C_13  and  C_18
REMARK   10  A    between atoms: C_13  and  C_19
REMARK   11  A    between atoms: C_14  and  C_20
REMARK   12  A    between atoms: C_15  and  C_16
REMARK                            x       y       z     vdW  Elec       q    Type
REMARK                         _______ _______ _______ _____ _____    ______ ____
ROOT
ATOM      1  O   UNL     1      -1.361 -15.611  -2.015  0.00  0.00    -0.371 OA
ATOM      8  C   UNL     1      -0.561 -14.281  -0.217  0.00  0.00    +0.111 C 
ATOM      9  C   UNL     1      -1.375 -13.409  -1.155  0.00  0.00    +0.164 C 
ATOM     10  C   UNL     1      -2.205 -14.456  -1.884  0.00  0.00    +0.165 C 
ATOM     11  C   UNL     1      -0.254 -15.474  -1.108  0.00  0.00    +0.181 C 
ENDROOT
BRANCH   9   2
ATOM      2  O   UNL     1      -2.186 -12.477  -0.467  0.00  0.00    -0.388 OA
ATOM     26  H   UNL     1      -3.005 -12.925  -0.198  0.00  0.00    +0.210 HD
ENDBRANCH   9   2
BRANCH   8   4
ATOM      4  N   UNL     1       0.635 -13.633   0.294  0.00  0.00    -0.302 NA
ATOM     24  H   UNL     1       0.364 -12.892   0.940  0.00  0.00    +0.123 HD
BRANCH   4  14
ATOM     14  C   UNL     1       1.490 -14.584   0.994  0.00  0.00    +0.156 C 
BRANCH  14  20
ATOM      6  N   UNL     1       3.873 -15.389   0.955  0.00  0.00    -0.336 N 
ATOM      7  N   UNL     1       3.385 -13.700  -0.402  0.00  0.00    -0.239 NA
ATOM     20  C   UNL     1       2.910 -14.534   0.496  0.00  0.00    +0.123 A 
ATOM     21  C   UNL     1       5.037 -15.081   0.309  0.00  0.00    +0.106 A 
ATOM     22  C   UNL     1       3.709 -16.430   1.941  0.00  0.00    +0.150 C 
ATOM     23  C   UNL     1       4.711 -14.035  -0.524  0.00  0.00    +0.130 A 
ENDBRANCH  14  20
ENDBRANCH   4  14
ENDBRANCH   8   4
BRANCH  10  12
ATOM     12  C   UNL     1      -2.672 -14.003  -3.256  0.00  0.00    +0.138 C 
BRANCH  12   5
ATOM      3  O   UNL     1      -0.687 -14.248  -5.351  0.00  0.00    -0.276 OA
ATOM      5  N   UNL     1      -1.824 -12.959  -3.785  0.00  0.00    -0.313 N 
ATOM     16  C   UNL     1      -0.898 -13.173  -4.793  0.00  0.00    +0.214 C 
ATOM     25  H   UNL     1      -1.928 -12.028  -3.396  0.00  0.00    +0.149 HD
BRANCH  16  15
ATOM     15  C   UNL     1      -0.125 -11.918  -5.166  0.00  0.00    +0.102 C 
BRANCH  15  13
ATOM     13  C   UNL     1       1.339 -11.889  -4.668  0.00  0.00    -0.029 C 
ATOM     17  C   UNL     1       2.288 -12.518  -5.702  0.00  0.00    +0.011 C 
ATOM     18  C   UNL     1       1.746 -10.417  -4.465  0.00  0.00    +0.011 C 
ATOM     19  C   UNL     1       1.493 -12.624  -3.325  0.00  0.00    +0.011 C 
ENDBRANCH  15  13
ENDBRANCH  16  15
ENDBRANCH  12   5
ENDBRANCH  10  12
TORSDOF 8
ENDMDL
MODEL 10
REMARK VINA RESULT:      -5.3      2.571      3.371
REMARK  Name = 75536529
REMARK  12 active torsions:
REMARK  status: ('A' for Active; 'I' for Inactive)
REMARK    1  A    between atoms: O_2  and  C_9
REMARK    2  A    between atoms: N_4  and  C_8
REMARK    3  A    between atoms: N_4  and  C_14
REMARK    4  A    between atoms: N_5  and  C_12
REMARK    5  A    between atoms: N_6  and  C_22
REMARK    6  A    between atoms: C_10  and  C_12
REMARK    7  A    between atoms: C_13  and  C_15
REMARK    8  A    between atoms: C_13  and  C_17
REMARK    9  A    between atoms: C_13  and  C_18
REMARK   10  A    between atoms: C_13  and  C_19
REMARK   11  A    between atoms: C_14  and  C_20
REMARK   12  A    between atoms: C_15  and  C_16
REMARK                            x       y       z     vdW  Elec       q    Type
REMARK                         _______ _______ _______ _____ _____    ______ ____
ROOT
ATOM      1  O   UNL     1      15.514   8.820  21.893  0.00  0.00    -0.371 OA
ATOM      8  C   UNL     1      13.279   8.643  21.108  0.00  0.00    +0.111 C 
ATOM      9  C   UNL     1      13.984   7.316  20.899  0.00  0.00    +0.164 C 
ATOM     10  C   UNL     1      15.134   7.435  21.890  0.00  0.00    +0.165 C 
ATOM     11  C   UNL     1      14.458   9.585  21.284  0.00  0.00    +0.181 C 
ENDROOT
BRANCH   9   2
ATOM      2  O   UNL     1      13.154   6.206  21.183  0.00  0.00    -0.388 OA
ATOM     26  H   UNL     1      12.284   6.365  20.782  0.00  0.00    +0.210 HD
ENDBRANCH   9   2
BRANCH   8   4
ATOM      4  N   UNL     1      12.411   9.023  20.005  0.00  0.00    -0.302 NA
ATOM     24  H   UNL     1      12.183  10.013  20.085  0.00  0.00    +0.123 HD
BRANCH   4  14
ATOM     14  C   UNL     1      13.060   8.789  18.721  0.00  0.00    +0.156 C 
BRANCH  14  20
ATOM      6  N   UNL     1      12.381   9.393  16.376  0.00  0.00    -0.336 N 
ATOM      7  N   UNL     1      10.858   8.334  17.596  0.00  0.00    -0.239 NA
ATOM     20  C   UNL     1      12.078   8.824  17.581  0.00  0.00    +0.123 A 
ATOM     21  C   UNL     1      11.285   9.259  15.571  0.00  0.00    +0.106 A 
ATOM     22  C   UNL     1      13.625  10.026  16.004  0.00  0.00    +0.150 C 
ATOM     23  C   UNL     1      10.358   8.602  16.346  0.00  0.00    +0.130 A 
ENDBRANCH  14  20
ENDBRANCH   4  14
ENDBRANCH   8   4
BRANCH  10  12
ATOM     12  C   UNL     1      16.331   6.575  21.527  0.00  0.00    +0.138 C 
BRANCH  12   5
ATOM      3  O   UNL     1      18.735   6.357  19.925  0.00  0.00    -0.276 OA
ATOM      5  N   UNL     1      17.572   7.293  21.707  0.00  0.00    -0.313 N 
ATOM     16  C   UNL     1      18.674   7.121  20.886  0.00  0.00    +0.214 C 
ATOM     25  H   UNL     1      17.621   7.958  22.472  0.00  0.00    +0.149 HD
BRANCH  16  15
ATOM     15  C   UNL     1      19.858   7.985  21.291  0.00  0.00    +0.102 C 
BRANCH  15  13
ATOM     13  C   UNL     1      21.124   7.196  21.700  0.00  0.00    -0.029 C 
ATOM     17  C   UNL     1      22.049   6.971  20.494  0.00  0.00    +0.011 C 
ATOM     18  C   UNL     1      21.886   8.028  22.750  0.00  0.00    +0.011 C 
ATOM     19  C   UNL     1      20.765   5.838  22.325  0.00  0.00    +0.011 C 
ENDBRANCH  15  13
ENDBRANCH  16  15
ENDBRANCH  12   5
ENDBRANCH  10  12
TORSDOF 8
ENDMDL
