REMARK  Name = 75368442
REMARK  3 active torsions:
REMARK  status: ('A' for Active; 'I' for Inactive)
REMARK    1  A    between atoms: N_6  and  C_15
REMARK    2  A    between atoms: C_15  and  C_17
REMARK    3  A    between atoms: C_16  and  C_18
REMARK                            x       y       z     vdW  Elec       q    Type
REMARK                         _______ _______ _______ _____ _____    ______ ____
ROOT
ATOM      2  O   UNL     1      -1.775  -2.983  -0.356  0.00  0.00    -0.252 OA
ATOM      3  O   UNL     1       4.712  -1.190   1.519  0.00  0.00    -0.267 OA
ATOM      5  N   UNL     1       0.237  -1.774  -0.269  0.00  0.00    -0.278 N 
ATOM      6  N   UNL     1      -1.526  -0.836  -1.298  0.00  0.00    -0.279 N 
ATOM      7  N   UNL     1       2.528  -0.679   0.862  0.00  0.00    -0.292 N 
ATOM      9  C   UNL     1       0.754  -0.536  -0.827  0.00  0.00    +0.112 C 
ATOM     10  C   UNL     1      -0.493   0.184  -1.331  0.00  0.00    +0.133 C 
ATOM     11  C   UNL     1       1.549   0.226   0.229  0.00  0.00    +0.132 C 
ATOM     12  C   UNL     1       1.125  -2.668   0.454  0.00  0.00    +0.128 C 
ATOM     13  C   UNL     1       1.943  -1.879   1.476  0.00  0.00    +0.127 C 
ATOM     14  C   UNL     1      -1.104  -1.992  -0.612  0.00  0.00    +0.306 C 
ATOM     16  C   UNL     1       3.903  -0.456   0.953  0.00  0.00    +0.285 C 
ENDROOT
BRANCH  16  18
ATOM      4  O   UNL     1       4.289   0.895  -1.024  0.00  0.00    -0.350 OA
ATOM      8  N   UNL     1       4.876   2.088  -1.429  0.00  0.00    -0.086 NA
ATOM     18  C   UNL     1       4.452   0.748   0.315  0.00  0.00    +0.222 A 
ATOM     21  C   UNL     1       5.138   1.821   0.818  0.00  0.00    +0.077 A 
ATOM     25  C   UNL     1       5.376   2.624  -0.312  0.00  0.00    +0.157 A 
ENDBRANCH  16  18
BRANCH   6  15
ATOM     15  C   UNL     1      -2.859  -0.593  -1.804  0.00  0.00    +0.144 C 
BRANCH  15  17
ATOM      1  F   UNL     1      -6.067   2.136   1.932  0.00  0.00    -0.205 F 
ATOM     17  C   UNL     1      -3.714   0.135  -0.808  0.00  0.00    -0.030 A 
ATOM     19  C   UNL     1      -4.478  -0.584   0.112  0.00  0.00    +0.008 A 
ATOM     20  C   UNL     1      -3.746   1.529  -0.802  0.00  0.00    +0.008 A 
ATOM     22  C   UNL     1      -5.273   0.092   1.037  0.00  0.00    +0.038 A 
ATOM     23  C   UNL     1      -4.541   2.205   0.123  0.00  0.00    +0.038 A 
ATOM     24  C   UNL     1      -5.305   1.486   1.043  0.00  0.00    +0.123 A 
ENDBRANCH  15  17
ENDBRANCH   6  15
TORSDOF 3
