REMARK  Name = 11911662
REMARK  10 active torsions:
REMARK  status: ('A' for Active; 'I' for Inactive)
REMARK    1  A    between atoms: O_3  and  C_14
REMARK    2  A    between atoms: O_3  and  C_18
REMARK    3  A    between atoms: N_6  and  C_13
REMARK    4  A    between atoms: N_9  and  C_22
REMARK    5  A    between atoms: N_10  and  C_32
REMARK    6  A    between atoms: N_10  and  C_35
REMARK    7  A    between atoms: N_10  and  C_36
REMARK    8  A    between atoms: C_19  and  C_23
REMARK    9  A    between atoms: C_33  and  C_34
REMARK   10  A    between atoms: C_34  and  C_37
REMARK                            x       y       z     vdW  Elec       q    Type
REMARK                         _______ _______ _______ _____ _____    ______ ____
ROOT
ATOM      1  O   UNL     1       0.977   1.155  -1.905  0.00  0.00    -0.368 OA
ATOM      2  O   UNL     1      -0.846  -1.230  -1.272  0.00  0.00    -0.368 OA
ATOM     11  C   UNL     1      -0.739   0.079  -0.672  0.00  0.00    +0.173 C 
ATOM     12  C   UNL     1       0.732   0.446  -0.680  0.00  0.00    +0.192 C 
ATOM     13  C   UNL     1      -1.378   1.112  -1.570  0.00  0.00    +0.130 C 
ATOM     14  C   UNL     1       1.406  -0.905  -0.671  0.00  0.00    +0.235 C 
ATOM     15  C   UNL     1      -0.272   1.403  -2.569  0.00  0.00    +0.185 C 
ATOM     16  C   UNL     1       0.474  -1.732  -1.527  0.00  0.00    +0.207 C 
ENDROOT
BRANCH  13   6
ATOM      6  N   UNL     1      -1.698   2.305  -0.814  0.00  0.00    -0.306 N 
ATOM      7  N   UNL     1      -3.739   1.436  -0.126  0.00  0.00    -0.214 NA
ATOM      8  N   UNL     1      -3.020   3.632   0.558  0.00  0.00    -0.223 NA
ATOM     17  C   UNL     1      -2.870   2.464  -0.096  0.00  0.00    +0.216 A 
ATOM     19  C   UNL     1      -4.870   1.625   0.585  0.00  0.00    +0.076 A 
ATOM     20  C   UNL     1      -4.174   3.754   1.247  0.00  0.00    +0.116 A 
ATOM     21  C   UNL     1      -5.144   2.775   1.297  0.00  0.00    +0.048 A 
ATOM     38  H   UNL     1      -1.017   3.053  -0.753  0.00  0.00    +0.149 HD
BRANCH  19  23
ATOM     23  C   UNL     1      -5.803   0.524   0.556  0.00  0.00    +0.001 A 
ATOM     26  C   UNL     1      -5.417  -0.730   1.030  0.00  0.00    +0.012 A 
ATOM     27  C   UNL     1      -7.091   0.715   0.056  0.00  0.00    +0.012 A 
ATOM     30  C   UNL     1      -6.319  -1.793   1.004  0.00  0.00    +0.024 A 
ATOM     31  C   UNL     1      -7.993  -0.349   0.030  0.00  0.00    +0.024 A 
ATOM     32  C   UNL     1      -7.607  -1.602   0.504  0.00  0.00    +0.029 A 
BRANCH  32  10
ATOM     10  N   UNL     1      -8.520  -2.677   0.477  0.00  0.00    -0.336 N 
ATOM     35  C   UNL     1      -9.861  -2.489  -0.041  0.00  0.00    +0.129 C 
ATOM     36  C   UNL     1      -8.125  -3.988   0.954  0.00  0.00    +0.129 C 
ENDBRANCH  32  10
ENDBRANCH  19  23
ENDBRANCH  13   6
BRANCH  14   3
ATOM      3  O   UNL     1       2.719  -0.882  -1.185  0.00  0.00    -0.442 OA
BRANCH   3  18
ATOM      4  O   UNL     1       3.545  -0.589   0.927  0.00  0.00    -0.226 OA
ATOM      9  N   UNL     1       4.954  -0.716  -0.938  0.00  0.00    -0.251 N 
ATOM     18  C   UNL     1       3.742  -0.714  -0.276  0.00  0.00    +0.405 C 
ATOM     39  H   UNL     1       4.915  -0.833  -1.948  0.00  0.00    +0.158 HD
BRANCH   9  22
ATOM     22  C   UNL     1       6.248  -0.572  -0.387  0.00  0.00    +0.036 A 
ATOM     24  C   UNL     1       6.405  -0.406   0.989  0.00  0.00    +0.024 A 
ATOM     25  C   UNL     1       7.367  -0.599  -1.219  0.00  0.00    +0.024 A 
ATOM     28  C   UNL     1       7.681  -0.266   1.533  0.00  0.00    +0.013 A 
ATOM     29  C   UNL     1       8.644  -0.459  -0.674  0.00  0.00    +0.013 A 
ATOM     33  C   UNL     1       8.801  -0.292   0.702  0.00  0.00    +0.017 A 
BRANCH  33  34
ATOM      5  O   UNL     1      10.329   0.521   2.304  0.00  0.00    -0.292 OA
ATOM     34  C   UNL     1      10.132  -0.145   1.268  0.00  0.00    +0.160 C 
ATOM     37  C   UNL     1      11.330  -0.812   0.600  0.00  0.00    +0.091 C 
ENDBRANCH  33  34
ENDBRANCH   9  22
ENDBRANCH   3  18
ENDBRANCH  14   3
TORSDOF 7
