MODEL 1
REMARK VINA RESULT:      -7.1      0.000      0.000
REMARK  Name = 45783706
REMARK  7 active torsions:
REMARK  status: ('A' for Active; 'I' for Inactive)
REMARK    1  A    between atoms: O_2  and  C_25
REMARK    2  A    between atoms: O_2  and  C_26
REMARK    3  A    between atoms: N_3  and  C_11
REMARK    4  A    between atoms: C_7  and  C_12
REMARK    5  A    between atoms: C_11  and  C_13
REMARK    6  A    between atoms: C_16  and  C_20
REMARK    7  A    between atoms: C_19  and  C_21
REMARK                            x       y       z     vdW  Elec       q    Type
REMARK                         _______ _______ _______ _____ _____    ______ ____
ROOT
ATOM      3  N   UNL     1      12.601   8.568  18.615  0.00  0.00    -0.287 NA
ATOM      7  C   UNL     1      13.676   7.665  18.158  0.00  0.00    +0.146 C 
ATOM      8  C   UNL     1      13.942   8.079  16.699  0.00  0.00    +0.030 C 
ATOM      9  C   UNL     1      12.929   9.178  16.408  0.00  0.00    +0.017 C 
ATOM     10  C   UNL     1      11.834   8.932  17.424  0.00  0.00    +0.085 C 
ENDROOT
BRANCH   7  12
ATOM      1  O   UNL     1      15.080   8.897  19.733  0.00  0.00    -0.336 OA
ATOM      4  N   UNL     1      15.868   6.870  19.198  0.00  0.00    -0.190 NA
ATOM      5  N   UNL     1      16.276   8.743  20.447  0.00  0.00    -0.056 NA
ATOM     12  C   UNL     1      14.915   7.749  19.025  0.00  0.00    +0.245 A 
ATOM     16  C   UNL     1      16.680   7.523  20.078  0.00  0.00    +0.204 A 
BRANCH  16  20
ATOM      6  N   UNL     1      19.673   6.927  22.204  0.00  0.00    -0.221 NA
ATOM     20  C   UNL     1      17.890   6.930  20.573  0.00  0.00    +0.041 A 
ATOM     22  C   UNL     1      18.454   5.827  19.942  0.00  0.00    +0.018 A 
ATOM     23  C   UNL     1      18.532   7.438  21.690  0.00  0.00    +0.126 A 
ATOM     24  C   UNL     1      19.628   5.273  20.442  0.00  0.00    +0.068 A 
ATOM     25  C   UNL     1      20.193   5.855  21.565  0.00  0.00    +0.214 A 
BRANCH  25   2
ATOM      2  O   UNL     1      21.348   5.327  22.077  0.00  0.00    -0.480 OA
ATOM     26  C   UNL     1      21.792   4.096  21.518  0.00  0.00    +0.279 C 
ENDBRANCH  25   2
ENDBRANCH  16  20
ENDBRANCH   7  12
BRANCH   3  11
ATOM     11  C   UNL     1      11.760   7.982  19.652  0.00  0.00    +0.120 C 
BRANCH  11  13
ATOM     13  C   UNL     1      11.539   8.932  20.798  0.00  0.00    -0.033 A 
ATOM     14  C   UNL     1      12.057  10.226  20.740  0.00  0.00    +0.005 A 
ATOM     15  C   UNL     1      10.817   8.519  21.918  0.00  0.00    +0.005 A 
ATOM     17  C   UNL     1      11.854  11.107  21.803  0.00  0.00    +0.003 A 
ATOM     18  C   UNL     1      10.614   9.400  22.980  0.00  0.00    +0.003 A 
ATOM     19  C   UNL     1      11.133  10.693  22.923  0.00  0.00    -0.050 A 
ATOM     21  C   UNL     1      10.917  11.635  24.060  0.00  0.00    +0.044 C 
ENDBRANCH  11  13
ENDBRANCH   3  11
TORSDOF 5
ENDMDL
MODEL 2
REMARK VINA RESULT:      -6.7      3.415      8.383
REMARK  Name = 45783706
REMARK  7 active torsions:
REMARK  status: ('A' for Active; 'I' for Inactive)
REMARK    1  A    between atoms: O_2  and  C_25
REMARK    2  A    between atoms: O_2  and  C_26
REMARK    3  A    between atoms: N_3  and  C_11
REMARK    4  A    between atoms: C_7  and  C_12
REMARK    5  A    between atoms: C_11  and  C_13
REMARK    6  A    between atoms: C_16  and  C_20
REMARK    7  A    between atoms: C_19  and  C_21
REMARK                            x       y       z     vdW  Elec       q    Type
REMARK                         _______ _______ _______ _____ _____    ______ ____
ROOT
ATOM      3  N   UNL     1      12.884   8.005  20.625  0.00  0.00    -0.287 NA
ATOM      7  C   UNL     1      11.624   8.770  20.539  0.00  0.00    +0.146 C 
ATOM      8  C   UNL     1      10.576   7.878  21.229  0.00  0.00    +0.030 C 
ATOM      9  C   UNL     1      11.325   6.610  21.615  0.00  0.00    +0.017 C 
ATOM     10  C   UNL     1      12.506   6.592  20.667  0.00  0.00    +0.085 C 
ENDROOT
BRANCH   7  12
ATOM      1  O   UNL     1      12.157  11.148  20.363  0.00  0.00    -0.336 OA
ATOM      4  N   UNL     1      11.476  10.512  22.399  0.00  0.00    -0.190 NA
ATOM      5  N   UNL     1      12.178  12.302  21.158  0.00  0.00    -0.056 NA
ATOM     12  C   UNL     1      11.732  10.142  21.171  0.00  0.00    +0.245 A 
ATOM     16  C   UNL     1      11.763  11.844  22.344  0.00  0.00    +0.204 A 
BRANCH  16  20
ATOM      6  N   UNL     1      12.353  14.646  24.718  0.00  0.00    -0.221 NA
ATOM     20  C   UNL     1      11.625  12.694  23.492  0.00  0.00    +0.041 A 
ATOM     22  C   UNL     1      10.675  12.424  24.471  0.00  0.00    +0.018 A 
ATOM     23  C   UNL     1      12.432  13.808  23.660  0.00  0.00    +0.126 A 
ATOM     24  C   UNL     1      10.564  13.264  25.574  0.00  0.00    +0.068 A 
ATOM     25  C   UNL     1      11.419  14.352  25.650  0.00  0.00    +0.214 A 
BRANCH  25   2
ATOM      2  O   UNL     1      11.328  15.194  26.726  0.00  0.00    -0.480 OA
ATOM     26  C   UNL     1      12.485  15.310  27.547  0.00  0.00    +0.279 C 
ENDBRANCH  25   2
ENDBRANCH  16  20
ENDBRANCH   7  12
BRANCH   3  11
ATOM     11  C   UNL     1      13.807   8.293  19.536  0.00  0.00    +0.120 C 
BRANCH  11  13
ATOM     13  C   UNL     1      15.178   7.729  19.798  0.00  0.00    -0.033 A 
ATOM     14  C   UNL     1      15.671   6.697  19.000  0.00  0.00    +0.005 A 
ATOM     15  C   UNL     1      15.954   8.236  20.841  0.00  0.00    +0.005 A 
ATOM     17  C   UNL     1      16.940   6.172  19.243  0.00  0.00    +0.003 A 
ATOM     18  C   UNL     1      17.223   7.710  21.085  0.00  0.00    +0.003 A 
ATOM     19  C   UNL     1      17.716   6.678  20.286  0.00  0.00    -0.050 A 
ATOM     21  C   UNL     1      19.072   6.116  20.548  0.00  0.00    +0.044 C 
ENDBRANCH  11  13
ENDBRANCH   3  11
TORSDOF 5
ENDMDL
MODEL 3
REMARK VINA RESULT:      -6.5     27.314     31.122
REMARK  Name = 45783706
REMARK  7 active torsions:
REMARK  status: ('A' for Active; 'I' for Inactive)
REMARK    1  A    between atoms: O_2  and  C_25
REMARK    2  A    between atoms: O_2  and  C_26
REMARK    3  A    between atoms: N_3  and  C_11
REMARK    4  A    between atoms: C_7  and  C_12
REMARK    5  A    between atoms: C_11  and  C_13
REMARK    6  A    between atoms: C_16  and  C_20
REMARK    7  A    between atoms: C_19  and  C_21
REMARK                            x       y       z     vdW  Elec       q    Type
REMARK                         _______ _______ _______ _____ _____    ______ ____
ROOT
ATOM      3  N   UNL     1     -15.354   6.252  21.352  0.00  0.00    -0.287 NA
ATOM      7  C   UNL     1     -16.662   5.923  21.954  0.00  0.00    +0.146 C 
ATOM      8  C   UNL     1     -17.611   5.743  20.755  0.00  0.00    +0.030 C 
ATOM      9  C   UNL     1     -16.764   6.050  19.528  0.00  0.00    +0.017 C 
ATOM     10  C   UNL     1     -15.641   6.907  20.075  0.00  0.00    +0.085 C 
ENDROOT
BRANCH   7  12
ATOM      1  O   UNL     1     -16.577   3.495  22.210  0.00  0.00    -0.336 OA
ATOM      4  N   UNL     1     -16.569   4.619  24.147  0.00  0.00    -0.190 NA
ATOM      5  N   UNL     1     -16.523   2.527  23.222  0.00  0.00    -0.056 NA
ATOM     12  C   UNL     1     -16.601   4.698  22.841  0.00  0.00    +0.245 A 
ATOM     16  C   UNL     1     -16.522   3.269  24.334  0.00  0.00    +0.204 A 
BRANCH  16  20
ATOM      6  N   UNL     1     -15.974   2.942  27.998  0.00  0.00    -0.221 NA
ATOM     20  C   UNL     1     -16.472   2.690  25.646  0.00  0.00    +0.041 A 
ATOM     22  C   UNL     1     -16.850   1.369  25.860  0.00  0.00    +0.018 A 
ATOM     23  C   UNL     1     -16.045   3.428  26.738  0.00  0.00    +0.126 A 
ATOM     24  C   UNL     1     -16.791   0.834  27.142  0.00  0.00    +0.068 A 
ATOM     25  C   UNL     1     -16.349   1.654  28.167  0.00  0.00    +0.214 A 
BRANCH  25   2
ATOM      2  O   UNL     1     -16.282   1.150  29.439  0.00  0.00    -0.480 OA
ATOM     26  C   UNL     1     -15.078   0.483  29.801  0.00  0.00    +0.279 C 
ENDBRANCH  25   2
ENDBRANCH  16  20
ENDBRANCH   7  12
BRANCH   3  11
ATOM     11  C   UNL     1     -14.516   7.075  22.214  0.00  0.00    +0.120 C 
BRANCH  11  13
ATOM     13  C   UNL     1     -13.375   7.700  21.456  0.00  0.00    -0.033 A 
ATOM     14  C   UNL     1     -13.300   9.086  21.328  0.00  0.00    +0.005 A 
ATOM     15  C   UNL     1     -12.394   6.892  20.881  0.00  0.00    +0.005 A 
ATOM     17  C   UNL     1     -12.245   9.666  20.624  0.00  0.00    +0.003 A 
ATOM     18  C   UNL     1     -11.338   7.471  20.177  0.00  0.00    +0.003 A 
ATOM     19  C   UNL     1     -11.263   8.858  20.048  0.00  0.00    -0.050 A 
ATOM     21  C   UNL     1     -10.135   9.478  19.294  0.00  0.00    +0.044 C 
ENDBRANCH  11  13
ENDBRANCH   3  11
TORSDOF 5
ENDMDL
MODEL 4
REMARK VINA RESULT:      -6.5     26.432     29.083
REMARK  Name = 45783706
REMARK  7 active torsions:
REMARK  status: ('A' for Active; 'I' for Inactive)
REMARK    1  A    between atoms: O_2  and  C_25
REMARK    2  A    between atoms: O_2  and  C_26
REMARK    3  A    between atoms: N_3  and  C_11
REMARK    4  A    between atoms: C_7  and  C_12
REMARK    5  A    between atoms: C_11  and  C_13
REMARK    6  A    between atoms: C_16  and  C_20
REMARK    7  A    between atoms: C_19  and  C_21
REMARK                            x       y       z     vdW  Elec       q    Type
REMARK                         _______ _______ _______ _____ _____    ______ ____
ROOT
ATOM      3  N   UNL     1      -2.678 -10.680  13.911  0.00  0.00    -0.287 NA
ATOM      7  C   UNL     1      -2.489 -11.628  15.027  0.00  0.00    +0.146 C 
ATOM      8  C   UNL     1      -1.473 -10.941  15.958  0.00  0.00    +0.030 C 
ATOM      9  C   UNL     1      -1.104  -9.642  15.254  0.00  0.00    +0.017 C 
ATOM     10  C   UNL     1      -1.433  -9.919  13.801  0.00  0.00    +0.085 C 
ENDROOT
BRANCH   7  12
ATOM      1  O   UNL     1      -4.304 -13.201  15.480  0.00  0.00    -0.336 OA
ATOM      4  N   UNL     1      -4.503 -11.242  16.548  0.00  0.00    -0.190 NA
ATOM      5  N   UNL     1      -5.486 -13.284  16.226  0.00  0.00    -0.056 NA
ATOM     12  C   UNL     1      -3.788 -11.968  15.727  0.00  0.00    +0.245 A 
ATOM     16  C   UNL     1      -5.535 -12.090  16.828  0.00  0.00    +0.204 A 
BRANCH  16  20
ATOM      6  N   UNL     1      -7.615 -11.868  19.902  0.00  0.00    -0.221 NA
ATOM     20  C   UNL     1      -6.599 -11.717  17.714  0.00  0.00    +0.041 A 
ATOM     22  C   UNL     1      -7.623 -10.878  17.288  0.00  0.00    +0.018 A 
ATOM     23  C   UNL     1      -6.641 -12.181  19.019  0.00  0.00    +0.126 A 
ATOM     24  C   UNL     1      -8.643 -10.533  18.168  0.00  0.00    +0.068 A 
ATOM     25  C   UNL     1      -8.594 -11.050  19.453  0.00  0.00    +0.214 A 
BRANCH  25   2
ATOM      2  O   UNL     1      -9.587 -10.725  20.339  0.00  0.00    -0.480 OA
ATOM     26  C   UNL     1     -10.861 -10.416  19.786  0.00  0.00    +0.279 C 
ENDBRANCH  25   2
ENDBRANCH  16  20
ENDBRANCH   7  12
BRANCH   3  11
ATOM     11  C   UNL     1      -3.035 -11.331  12.658  0.00  0.00    +0.120 C 
BRANCH  11  13
ATOM     13  C   UNL     1      -3.838 -10.424  11.763  0.00  0.00    -0.033 A 
ATOM     14  C   UNL     1      -5.092  -9.975  12.173  0.00  0.00    +0.005 A 
ATOM     15  C   UNL     1      -3.327 -10.035  10.525  0.00  0.00    +0.005 A 
ATOM     17  C   UNL     1      -5.838  -9.136  11.344  0.00  0.00    +0.003 A 
ATOM     18  C   UNL     1      -4.072  -9.196   9.696  0.00  0.00    +0.003 A 
ATOM     19  C   UNL     1      -5.327  -8.747  10.105  0.00  0.00    -0.050 A 
ATOM     21  C   UNL     1      -6.125  -7.851   9.218  0.00  0.00    +0.044 C 
ENDBRANCH  11  13
ENDBRANCH   3  11
TORSDOF 5
ENDMDL
MODEL 5
REMARK VINA RESULT:      -6.5     26.248     29.050
REMARK  Name = 45783706
REMARK  7 active torsions:
REMARK  status: ('A' for Active; 'I' for Inactive)
REMARK    1  A    between atoms: O_2  and  C_25
REMARK    2  A    between atoms: O_2  and  C_26
REMARK    3  A    between atoms: N_3  and  C_11
REMARK    4  A    between atoms: C_7  and  C_12
REMARK    5  A    between atoms: C_11  and  C_13
REMARK    6  A    between atoms: C_16  and  C_20
REMARK    7  A    between atoms: C_19  and  C_21
REMARK                            x       y       z     vdW  Elec       q    Type
REMARK                         _______ _______ _______ _____ _____    ______ ____
ROOT
ATOM      3  N   UNL     1      -3.052 -10.580  14.398  0.00  0.00    -0.287 NA
ATOM      7  C   UNL     1      -2.922 -11.258  15.703  0.00  0.00    +0.146 C 
ATOM      8  C   UNL     1      -1.631 -10.684  16.316  0.00  0.00    +0.030 C 
ATOM      9  C   UNL     1      -1.075  -9.739  15.259  0.00  0.00    +0.017 C 
ATOM     10  C   UNL     1      -1.693 -10.242  13.971  0.00  0.00    +0.085 C 
ENDROOT
BRANCH   7  12
ATOM      1  O   UNL     1      -3.993 -11.402  17.894  0.00  0.00    -0.336 OA
ATOM      4  N   UNL     1      -5.313 -10.578  16.284  0.00  0.00    -0.190 NA
ATOM      5  N   UNL     1      -5.223 -11.125  18.504  0.00  0.00    -0.056 NA
ATOM     12  C   UNL     1      -4.132 -11.051  16.589  0.00  0.00    +0.245 A 
ATOM     16  C   UNL     1      -5.948 -10.642  17.490  0.00  0.00    +0.204 A 
BRANCH  16  20
ATOM      6  N   UNL     1      -9.429 -10.453  18.784  0.00  0.00    -0.221 NA
ATOM     20  C   UNL     1      -7.309 -10.215  17.649  0.00  0.00    +0.041 A 
ATOM     22  C   UNL     1      -7.834  -9.193  16.866  0.00  0.00    +0.018 A 
ATOM     23  C   UNL     1      -8.140 -10.808  18.586  0.00  0.00    +0.126 A 
ATOM     24  C   UNL     1      -9.156  -8.801  17.041  0.00  0.00    +0.068 A 
ATOM     25  C   UNL     1      -9.905  -9.456  18.005  0.00  0.00    +0.214 A 
BRANCH  25   2
ATOM      2  O   UNL     1     -11.211  -9.087  18.197  0.00  0.00    -0.480 OA
ATOM     26  C   UNL     1     -11.888  -8.526  17.078  0.00  0.00    +0.279 C 
ENDBRANCH  25   2
ENDBRANCH  16  20
ENDBRANCH   7  12
BRANCH   3  11
ATOM     11  C   UNL     1      -3.757 -11.378  13.404  0.00  0.00    +0.120 C 
BRANCH  11  13
ATOM     13  C   UNL     1      -4.399 -10.519  12.347  0.00  0.00    -0.033 A 
ATOM     14  C   UNL     1      -3.848 -10.462  11.067  0.00  0.00    +0.005 A 
ATOM     15  C   UNL     1      -5.542  -9.779  12.649  0.00  0.00    +0.005 A 
ATOM     17  C   UNL     1      -4.441  -9.664  10.088  0.00  0.00    +0.003 A 
ATOM     18  C   UNL     1      -6.135  -8.981  11.670  0.00  0.00    +0.003 A 
ATOM     19  C   UNL     1      -5.584  -8.923  10.389  0.00  0.00    -0.050 A 
ATOM     21  C   UNL     1      -6.216  -8.069   9.343  0.00  0.00    +0.044 C 
ENDBRANCH  11  13
ENDBRANCH   3  11
TORSDOF 5
ENDMDL
MODEL 6
REMARK VINA RESULT:      -6.3     26.407     27.949
REMARK  Name = 45783706
REMARK  7 active torsions:
REMARK  status: ('A' for Active; 'I' for Inactive)
REMARK    1  A    between atoms: O_2  and  C_25
REMARK    2  A    between atoms: O_2  and  C_26
REMARK    3  A    between atoms: N_3  and  C_11
REMARK    4  A    between atoms: C_7  and  C_12
REMARK    5  A    between atoms: C_11  and  C_13
REMARK    6  A    between atoms: C_16  and  C_20
REMARK    7  A    between atoms: C_19  and  C_21
REMARK                            x       y       z     vdW  Elec       q    Type
REMARK                         _______ _______ _______ _____ _____    ______ ____
ROOT
ATOM      3  N   UNL     1     -11.158   9.564  17.276  0.00  0.00    -0.287 NA
ATOM      7  C   UNL     1     -10.495  10.573  18.124  0.00  0.00    +0.146 C 
ATOM      8  C   UNL     1     -10.256  11.774  17.190  0.00  0.00    +0.030 C 
ATOM      9  C   UNL     1     -10.761  11.323  15.826  0.00  0.00    +0.017 C 
ATOM     10  C   UNL     1     -10.704   9.811  15.907  0.00  0.00    +0.085 C 
ENDROOT
BRANCH   7  12
ATOM      1  O   UNL     1     -12.174  11.979  19.208  0.00  0.00    -0.336 OA
ATOM      4  N   UNL     1     -11.320  10.390  20.534  0.00  0.00    -0.190 NA
ATOM      5  N   UNL     1     -12.810  12.125  20.448  0.00  0.00    -0.056 NA
ATOM     12  C   UNL     1     -11.315  10.936  19.345  0.00  0.00    +0.245 A 
ATOM     16  C   UNL     1     -12.252  11.152  21.176  0.00  0.00    +0.204 A 
BRANCH  16  20
ATOM      6  N   UNL     1     -12.147  11.279  24.891  0.00  0.00    -0.221 NA
ATOM     20  C   UNL     1     -12.606  10.915  22.546  0.00  0.00    +0.041 A 
ATOM     22  C   UNL     1     -13.700  10.124  22.875  0.00  0.00    +0.018 A 
ATOM     23  C   UNL     1     -11.868  11.465  23.581  0.00  0.00    +0.126 A 
ATOM     24  C   UNL     1     -14.020   9.909  24.212  0.00  0.00    +0.068 A 
ATOM     25  C   UNL     1     -13.218  10.504  25.173  0.00  0.00    +0.214 A 
BRANCH  25   2
ATOM      2  O   UNL     1     -13.513  10.309  26.496  0.00  0.00    -0.480 OA
ATOM     26  C   UNL     1     -12.421  10.004  27.357  0.00  0.00    +0.279 C 
ENDBRANCH  25   2
ENDBRANCH  16  20
ENDBRANCH   7  12
BRANCH   3  11
ATOM     11  C   UNL     1     -10.896   8.194  17.701  0.00  0.00    +0.120 C 
BRANCH  11  13
ATOM     13  C   UNL     1     -11.845   7.752  18.783  0.00  0.00    -0.033 A 
ATOM     14  C   UNL     1     -13.214   7.980  18.644  0.00  0.00    +0.005 A 
ATOM     15  C   UNL     1     -11.356   7.114  19.923  0.00  0.00    +0.005 A 
ATOM     17  C   UNL     1     -14.094   7.573  19.647  0.00  0.00    +0.003 A 
ATOM     18  C   UNL     1     -12.236   6.707  20.925  0.00  0.00    +0.003 A 
ATOM     19  C   UNL     1     -13.605   6.936  20.788  0.00  0.00    -0.050 A 
ATOM     21  C   UNL     1     -14.547   6.501  21.860  0.00  0.00    +0.044 C 
ENDBRANCH  11  13
ENDBRANCH   3  11
TORSDOF 5
ENDMDL
MODEL 7
REMARK VINA RESULT:      -6.3     14.473     18.053
REMARK  Name = 45783706
REMARK  7 active torsions:
REMARK  status: ('A' for Active; 'I' for Inactive)
REMARK    1  A    between atoms: O_2  and  C_25
REMARK    2  A    between atoms: O_2  and  C_26
REMARK    3  A    between atoms: N_3  and  C_11
REMARK    4  A    between atoms: C_7  and  C_12
REMARK    5  A    between atoms: C_11  and  C_13
REMARK    6  A    between atoms: C_16  and  C_20
REMARK    7  A    between atoms: C_19  and  C_21
REMARK                            x       y       z     vdW  Elec       q    Type
REMARK                         _______ _______ _______ _____ _____    ______ ____
ROOT
ATOM      3  N   UNL     1      10.697   6.905   6.698  0.00  0.00    -0.287 NA
ATOM      7  C   UNL     1      10.163   5.786   5.896  0.00  0.00    +0.146 C 
ATOM      8  C   UNL     1       8.639   6.006   5.882  0.00  0.00    +0.030 C 
ATOM      9  C   UNL     1       8.407   7.235   6.750  0.00  0.00    +0.017 C 
ATOM     10  C   UNL     1       9.637   7.285   7.632  0.00  0.00    +0.085 C 
ENDROOT
BRANCH   7  12
ATOM      1  O   UNL     1      11.362   6.864   4.060  0.00  0.00    -0.336 OA
ATOM      4  N   UNL     1      10.783   4.739   3.652  0.00  0.00    -0.190 NA
ATOM      5  N   UNL     1      11.829   6.575   2.771  0.00  0.00    -0.056 NA
ATOM     12  C   UNL     1      10.760   5.730   4.506  0.00  0.00    +0.245 A 
ATOM     16  C   UNL     1      11.449   5.304   2.603  0.00  0.00    +0.204 A 
BRANCH  16  20
ATOM      6  N   UNL     1      10.982   3.826  -0.777  0.00  0.00    -0.221 NA
ATOM     20  C   UNL     1      11.721   4.571   1.400  0.00  0.00    +0.041 A 
ATOM     22  C   UNL     1      12.930   3.908   1.225  0.00  0.00    +0.018 A 
ATOM     23  C   UNL     1      10.788   4.500   0.378  0.00  0.00    +0.126 A 
ATOM     24  C   UNL     1      13.167   3.203   0.049  0.00  0.00    +0.068 A 
ATOM     25  C   UNL     1      12.169   3.194  -0.913  0.00  0.00    +0.214 A 
BRANCH  25   2
ATOM      2  O   UNL     1      12.378   2.508  -2.080  0.00  0.00    -0.480 OA
ATOM     26  C   UNL     1      11.220   2.078  -2.787  0.00  0.00    +0.279 C 
ENDBRANCH  25   2
ENDBRANCH  16  20
ENDBRANCH   7  12
BRANCH   3  11
ATOM     11  C   UNL     1      11.941   6.578   7.383  0.00  0.00    +0.120 C 
BRANCH  11  13
ATOM     13  C   UNL     1      13.065   7.490   6.969  0.00  0.00    -0.033 A 
ATOM     14  C   UNL     1      12.875   8.872   6.964  0.00  0.00    +0.005 A 
ATOM     15  C   UNL     1      14.295   6.953   6.589  0.00  0.00    +0.005 A 
ATOM     17  C   UNL     1      13.916   9.717   6.578  0.00  0.00    +0.003 A 
ATOM     18  C   UNL     1      15.336   7.799   6.203  0.00  0.00    +0.003 A 
ATOM     19  C   UNL     1      15.146   9.181   6.197  0.00  0.00    -0.050 A 
ATOM     21  C   UNL     1      16.258  10.085   5.783  0.00  0.00    +0.044 C 
ENDBRANCH  11  13
ENDBRANCH   3  11
TORSDOF 5
ENDMDL
MODEL 8
REMARK VINA RESULT:      -6.2     26.220     28.789
REMARK  Name = 45783706
REMARK  7 active torsions:
REMARK  status: ('A' for Active; 'I' for Inactive)
REMARK    1  A    between atoms: O_2  and  C_25
REMARK    2  A    between atoms: O_2  and  C_26
REMARK    3  A    between atoms: N_3  and  C_11
REMARK    4  A    between atoms: C_7  and  C_12
REMARK    5  A    between atoms: C_11  and  C_13
REMARK    6  A    between atoms: C_16  and  C_20
REMARK    7  A    between atoms: C_19  and  C_21
REMARK                            x       y       z     vdW  Elec       q    Type
REMARK                         _______ _______ _______ _____ _____    ______ ____
ROOT
ATOM      3  N   UNL     1      -3.566  -9.726  11.558  0.00  0.00    -0.287 NA
ATOM      7  C   UNL     1      -2.717 -10.657  12.327  0.00  0.00    +0.146 C 
ATOM      8  C   UNL     1      -1.274 -10.225  12.009  0.00  0.00    +0.030 C 
ATOM      9  C   UNL     1      -1.411  -9.086  11.008  0.00  0.00    +0.017 C 
ATOM     10  C   UNL     1      -2.778  -9.312  10.396  0.00  0.00    +0.085 C 
ENDROOT
BRANCH   7  12
ATOM      1  O   UNL     1      -1.955 -10.525  14.645  0.00  0.00    -0.336 OA
ATOM      4  N   UNL     1      -4.176 -10.702  14.422  0.00  0.00    -0.190 NA
ATOM      5  N   UNL     1      -2.478 -10.523  15.945  0.00  0.00    -0.056 NA
ATOM     12  C   UNL     1      -3.021 -10.632  13.810  0.00  0.00    +0.245 A 
ATOM     16  C   UNL     1      -3.793 -10.631  15.729  0.00  0.00    +0.204 A 
BRANCH  16  20
ATOM      6  N   UNL     1      -6.909 -10.015  17.663  0.00  0.00    -0.221 NA
ATOM     20  C   UNL     1      -4.749 -10.669  16.799  0.00  0.00    +0.041 A 
ATOM     22  C   UNL     1      -4.478 -11.359  17.975  0.00  0.00    +0.018 A 
ATOM     23  C   UNL     1      -5.968 -10.019  16.693  0.00  0.00    +0.126 A 
ATOM     24  C   UNL     1      -5.422 -11.377  18.996  0.00  0.00    +0.068 A 
ATOM     25  C   UNL     1      -6.611 -10.696  18.792  0.00  0.00    +0.214 A 
BRANCH  25   2
ATOM      2  O   UNL     1      -7.557 -10.700  19.783  0.00  0.00    -0.480 OA
ATOM     26  C   UNL     1      -8.694 -11.531  19.579  0.00  0.00    +0.279 C 
ENDBRANCH  25   2
ENDBRANCH  16  20
ENDBRANCH   7  12
BRANCH   3  11
ATOM     11  C   UNL     1      -4.849 -10.301  11.174  0.00  0.00    +0.120 C 
BRANCH  11  13
ATOM     13  C   UNL     1      -4.914 -10.591   9.698  0.00  0.00    -0.033 A 
ATOM     14  C   UNL     1      -5.444  -9.641   8.825  0.00  0.00    +0.005 A 
ATOM     15  C   UNL     1      -4.447 -11.809   9.204  0.00  0.00    +0.005 A 
ATOM     17  C   UNL     1      -5.507  -9.908   7.458  0.00  0.00    +0.003 A 
ATOM     18  C   UNL     1      -4.511 -12.077   7.837  0.00  0.00    +0.003 A 
ATOM     19  C   UNL     1      -5.041 -11.127   6.964  0.00  0.00    -0.050 A 
ATOM     21  C   UNL     1      -5.110 -11.413   5.501  0.00  0.00    +0.044 C 
ENDBRANCH  11  13
ENDBRANCH   3  11
TORSDOF 5
ENDMDL
MODEL 9
REMARK VINA RESULT:      -6.2      3.192      7.555
REMARK  Name = 45783706
REMARK  7 active torsions:
REMARK  status: ('A' for Active; 'I' for Inactive)
REMARK    1  A    between atoms: O_2  and  C_25
REMARK    2  A    between atoms: O_2  and  C_26
REMARK    3  A    between atoms: N_3  and  C_11
REMARK    4  A    between atoms: C_7  and  C_12
REMARK    5  A    between atoms: C_11  and  C_13
REMARK    6  A    between atoms: C_16  and  C_20
REMARK    7  A    between atoms: C_19  and  C_21
REMARK                            x       y       z     vdW  Elec       q    Type
REMARK                         _______ _______ _______ _____ _____    ______ ____
ROOT
ATOM      3  N   UNL     1      14.890   7.583  19.126  0.00  0.00    -0.287 NA
ATOM      7  C   UNL     1      14.019   7.036  20.186  0.00  0.00    +0.146 C 
ATOM      8  C   UNL     1      14.987   6.375  21.185  0.00  0.00    +0.030 C 
ATOM      9  C   UNL     1      16.370   6.548  20.572  0.00  0.00    +0.017 C 
ATOM     10  C   UNL     1      16.085   6.740  19.097  0.00  0.00    +0.085 C 
ENDROOT
BRANCH   7  12
ATOM      1  O   UNL     1      11.920   8.282  20.280  0.00  0.00    -0.336 OA
ATOM      4  N   UNL     1      13.405   8.873  21.849  0.00  0.00    -0.190 NA
ATOM      5  N   UNL     1      11.310   9.296  21.031  0.00  0.00    -0.056 NA
ATOM     12  C   UNL     1      13.149   8.095  20.828  0.00  0.00    +0.245 A 
ATOM     16  C   UNL     1      12.248   9.591  21.936  0.00  0.00    +0.204 A 
BRANCH  16  20
ATOM      6  N   UNL     1      10.606  11.663  24.552  0.00  0.00    -0.221 NA
ATOM     20  C   UNL     1      12.060  10.598  22.941  0.00  0.00    +0.041 A 
ATOM     22  C   UNL     1      13.088  11.468  23.283  0.00  0.00    +0.018 A 
ATOM     23  C   UNL     1      10.848  10.735  23.599  0.00  0.00    +0.126 A 
ATOM     24  C   UNL     1      12.877  12.436  24.259  0.00  0.00    +0.068 A 
ATOM     25  C   UNL     1      11.629  12.491  24.858  0.00  0.00    +0.214 A 
BRANCH  25   2
ATOM      2  O   UNL     1      11.397  13.435  25.823  0.00  0.00    -0.480 OA
ATOM     26  C   UNL     1      10.804  14.657  25.395  0.00  0.00    +0.279 C 
ENDBRANCH  25   2
ENDBRANCH  16  20
ENDBRANCH   7  12
BRANCH   3  11
ATOM     11  C   UNL     1      14.236   7.654  17.825  0.00  0.00    +0.120 C 
BRANCH  11  13
ATOM     13  C   UNL     1      14.258   9.050  17.262  0.00  0.00    -0.033 A 
ATOM     14  C   UNL     1      14.419  10.142  18.113  0.00  0.00    +0.005 A 
ATOM     15  C   UNL     1      14.116   9.250  15.888  0.00  0.00    +0.005 A 
ATOM     17  C   UNL     1      14.438  11.436  17.592  0.00  0.00    +0.003 A 
ATOM     18  C   UNL     1      14.134  10.544  15.367  0.00  0.00    +0.003 A 
ATOM     19  C   UNL     1      14.294  11.637  16.219  0.00  0.00    -0.050 A 
ATOM     21  C   UNL     1      14.313  13.020  15.662  0.00  0.00    +0.044 C 
ENDBRANCH  11  13
ENDBRANCH   3  11
TORSDOF 5
ENDMDL
MODEL 10
REMARK VINA RESULT:      -6.2     26.168     29.092
REMARK  Name = 45783706
REMARK  7 active torsions:
REMARK  status: ('A' for Active; 'I' for Inactive)
REMARK    1  A    between atoms: O_2  and  C_25
REMARK    2  A    between atoms: O_2  and  C_26
REMARK    3  A    between atoms: N_3  and  C_11
REMARK    4  A    between atoms: C_7  and  C_12
REMARK    5  A    between atoms: C_11  and  C_13
REMARK    6  A    between atoms: C_16  and  C_20
REMARK    7  A    between atoms: C_19  and  C_21
REMARK                            x       y       z     vdW  Elec       q    Type
REMARK                         _______ _______ _______ _____ _____    ______ ____
ROOT
ATOM      3  N   UNL     1      -2.931 -10.501  14.243  0.00  0.00    -0.287 NA
ATOM      7  C   UNL     1      -3.195 -11.104  15.564  0.00  0.00    +0.146 C 
ATOM      8  C   UNL     1      -1.992 -10.688  16.432  0.00  0.00    +0.030 C 
ATOM      9  C   UNL     1      -1.079  -9.908  15.497  0.00  0.00    +0.017 C 
ATOM     10  C   UNL     1      -1.476 -10.397  14.119  0.00  0.00    +0.085 C 
ENDROOT
BRANCH   7  12
ATOM      1  O   UNL     1      -4.645 -10.757  17.500  0.00  0.00    -0.336 OA
ATOM      4  N   UNL     1      -5.581 -10.197  15.544  0.00  0.00    -0.190 NA
ATOM      5  N   UNL     1      -5.934 -10.301  17.803  0.00  0.00    -0.056 NA
ATOM     12  C   UNL     1      -4.519 -10.663  16.150  0.00  0.00    +0.245 A 
ATOM     16  C   UNL     1      -6.423  -9.989  16.598  0.00  0.00    +0.204 A 
BRANCH  16  20
ATOM      6  N   UNL     1      -9.629  -9.076  14.949  0.00  0.00    -0.221 NA
ATOM     20  C   UNL     1      -7.747  -9.467  16.414  0.00  0.00    +0.041 A 
ATOM     22  C   UNL     1      -8.428  -8.862  17.464  0.00  0.00    +0.018 A 
ATOM     23  C   UNL     1      -8.385  -9.550  15.188  0.00  0.00    +0.126 A 
ATOM     24  C   UNL     1      -9.710  -8.363  17.257  0.00  0.00    +0.068 A 
ATOM     25  C   UNL     1     -10.261  -8.494  15.993  0.00  0.00    +0.214 A 
BRANCH  25   2
ATOM      2  O   UNL     1     -11.522  -8.011  15.764  0.00  0.00    -0.480 OA
ATOM     26  C   UNL     1     -12.539  -8.421  16.672  0.00  0.00    +0.279 C 
ENDBRANCH  25   2
ENDBRANCH  16  20
ENDBRANCH   7  12
BRANCH   3  11
ATOM     11  C   UNL     1      -3.522 -11.251  13.141  0.00  0.00    +0.120 C 
BRANCH  11  13
ATOM     13  C   UNL     1      -4.153 -10.342  12.120  0.00  0.00    -0.033 A 
ATOM     14  C   UNL     1      -5.473  -9.922  12.282  0.00  0.00    +0.005 A 
ATOM     15  C   UNL     1      -3.418  -9.922  11.011  0.00  0.00    +0.005 A 
ATOM     17  C   UNL     1      -6.059  -9.081  11.335  0.00  0.00    +0.003 A 
ATOM     18  C   UNL     1      -4.004  -9.081  10.064  0.00  0.00    +0.003 A 
ATOM     19  C   UNL     1      -5.324  -8.662  10.226  0.00  0.00    -0.050 A 
ATOM     21  C   UNL     1      -5.951  -7.764   9.213  0.00  0.00    +0.044 C 
ENDBRANCH  11  13
ENDBRANCH   3  11
TORSDOF 5
ENDMDL
