MODEL 1
REMARK VINA RESULT:      -8.5      0.000      0.000
REMARK  Name = 45783302
REMARK  6 active torsions:
REMARK  status: ('A' for Active; 'I' for Inactive)
REMARK    1  A    between atoms: N_4  and  C_14
REMARK    2  A    between atoms: N_9  and  C_29
REMARK    3  A    between atoms: C_10  and  C_15
REMARK    4  A    between atoms: C_14  and  C_16
REMARK    5  A    between atoms: C_17  and  C_20
REMARK    6  A    between atoms: C_32  and  C_33
REMARK                            x       y       z     vdW  Elec       q    Type
REMARK                         _______ _______ _______ _____ _____    ______ ____
ROOT
ATOM      4  N   UNL     1      13.805   8.146  19.516  0.00  0.00    -0.287 NA
ATOM     10  C   UNL     1      14.404   7.096  18.667  0.00  0.00    +0.146 C 
ATOM     11  C   UNL     1      14.364   7.676  17.242  0.00  0.00    +0.030 C 
ATOM     12  C   UNL     1      13.672   9.024  17.379  0.00  0.00    +0.017 C 
ATOM     13  C   UNL     1      12.877   8.887  18.662  0.00  0.00    +0.085 C 
ENDROOT
BRANCH  10  15
ATOM      1  O   UNL     1      16.415   5.733  18.400  0.00  0.00    -0.336 OA
ATOM      5  N   UNL     1      16.527   7.208  20.083  0.00  0.00    -0.190 NA
ATOM      7  N   UNL     1      17.678   5.565  18.982  0.00  0.00    -0.056 NA
ATOM     15  C   UNL     1      15.804   6.720  19.106  0.00  0.00    +0.245 A 
ATOM     17  C   UNL     1      17.667   6.469  19.967  0.00  0.00    +0.202 A 
BRANCH  17  20
ATOM      2  O   UNL     1      24.188   3.379  21.707  0.00  0.00    -0.377 OA
ATOM      6  N   UNL     1      22.023   5.166  21.586  0.00  0.00    -0.311 N 
ATOM      8  N   UNL     1      20.951   7.032  22.573  0.00  0.00    -0.240 NA
ATOM     20  C   UNL     1      18.781   6.659  20.851  0.00  0.00    +0.027 A 
ATOM     21  C   UNL     1      21.792   3.735  21.825  0.00  0.00    +0.134 C 
ATOM     22  C   UNL     1      23.363   5.649  21.934  0.00  0.00    +0.134 C 
ATOM     25  C   UNL     1      20.927   6.033  21.662  0.00  0.00    +0.122 A 
ATOM     26  C   UNL     1      22.928   2.922  21.215  0.00  0.00    +0.178 C 
ATOM     27  C   UNL     1      24.416   4.734  21.320  0.00  0.00    +0.178 C 
ATOM     28  C   UNL     1      19.877   5.807  20.788  0.00  0.00    +0.055 A 
ATOM     30  C   UNL     1      18.768   7.698  21.776  0.00  0.00    +0.031 A 
ATOM     31  C   UNL     1      19.868   7.840  22.607  0.00  0.00    +0.113 A 
ENDBRANCH  17  20
ENDBRANCH  10  15
BRANCH   4  14
ATOM     14  C   UNL     1      13.152   7.618  20.707  0.00  0.00    +0.120 C 
BRANCH  14  16
ATOM     16  C   UNL     1      12.565   8.714  21.556  0.00  0.00    -0.033 A 
ATOM     18  C   UNL     1      11.225   8.659  21.937  0.00  0.00    +0.007 A 
ATOM     19  C   UNL     1      13.361   9.786  21.960  0.00  0.00    +0.007 A 
ATOM     23  C   UNL     1      10.680   9.674  22.723  0.00  0.00    +0.023 A 
ATOM     24  C   UNL     1      12.816  10.803  22.746  0.00  0.00    +0.023 A 
ATOM     29  C   UNL     1      11.476  10.747  23.127  0.00  0.00    +0.033 A 
BRANCH  29   9
ATOM      3  O   UNL     1      12.444  11.948  25.713  0.00  0.00    -0.276 OA
ATOM      9  N   UNL     1      10.932  11.762  23.913  0.00  0.00    -0.286 N 
ATOM     32  C   UNL     1      11.426  12.285  25.116  0.00  0.00    +0.214 C 
ATOM     33  C   UNL     1      10.542  13.381  25.655  0.00  0.00    +0.109 C 
ATOM     34  H   UNL     1      10.068  12.170  23.561  0.00  0.00    +0.155 HD
ENDBRANCH  29   9
ENDBRANCH  14  16
ENDBRANCH   4  14
TORSDOF 5
ENDMDL
MODEL 2
REMARK VINA RESULT:      -7.9     27.299     30.775
REMARK  Name = 45783302
REMARK  6 active torsions:
REMARK  status: ('A' for Active; 'I' for Inactive)
REMARK    1  A    between atoms: N_4  and  C_14
REMARK    2  A    between atoms: N_9  and  C_29
REMARK    3  A    between atoms: C_10  and  C_15
REMARK    4  A    between atoms: C_14  and  C_16
REMARK    5  A    between atoms: C_17  and  C_20
REMARK    6  A    between atoms: C_32  and  C_33
REMARK                            x       y       z     vdW  Elec       q    Type
REMARK                         _______ _______ _______ _____ _____    ______ ____
ROOT
ATOM      4  N   UNL     1      -2.663 -10.631  13.720  0.00  0.00    -0.287 NA
ATOM     10  C   UNL     1      -2.486 -11.626  14.797  0.00  0.00    +0.146 C 
ATOM     11  C   UNL     1      -1.471 -10.983  15.760  0.00  0.00    +0.030 C 
ATOM     12  C   UNL     1      -1.090  -9.660  15.112  0.00  0.00    +0.017 C 
ATOM     13  C   UNL     1      -1.413  -9.875  13.646  0.00  0.00    +0.085 C 
ENDROOT
BRANCH  10  15
ATOM      1  O   UNL     1      -4.317 -13.201  15.171  0.00  0.00    -0.336 OA
ATOM      5  N   UNL     1      -4.502 -11.292  16.329  0.00  0.00    -0.190 NA
ATOM      7  N   UNL     1      -5.502 -13.307  15.909  0.00  0.00    -0.056 NA
ATOM     15  C   UNL     1      -3.790 -11.987  15.477  0.00  0.00    +0.245 A 
ATOM     17  C   UNL     1      -5.542 -12.143  16.565  0.00  0.00    +0.202 A 
BRANCH  17  20
ATOM      2  O   UNL     1     -11.448  -7.668  17.004  0.00  0.00    -0.377 OA
ATOM      6  N   UNL     1      -9.557  -9.665  17.580  0.00  0.00    -0.311 N 
ATOM      8  N   UNL     1      -8.680 -11.135  19.216  0.00  0.00    -0.240 NA
ATOM     20  C   UNL     1      -6.606 -11.800  17.464  0.00  0.00    +0.027 A 
ATOM     21  C   UNL     1      -9.119  -8.308  17.228  0.00  0.00    +0.134 C 
ATOM     22  C   UNL     1     -10.922  -9.764  18.107  0.00  0.00    +0.134 C 
ATOM     25  C   UNL     1      -8.585 -10.589  17.983  0.00  0.00    +0.122 A 
ATOM     26  C   UNL     1     -10.175  -7.636  16.358  0.00  0.00    +0.178 C 
ATOM     27  C   UNL     1     -11.883  -9.014  17.191  0.00  0.00    +0.178 C 
ATOM     28  C   UNL     1      -7.579 -10.885  17.079  0.00  0.00    +0.055 A 
ATOM     30  C   UNL     1      -6.668 -12.383  18.725  0.00  0.00    +0.031 A 
ATOM     31  C   UNL     1      -7.716 -12.019  19.556  0.00  0.00    +0.113 A 
ENDBRANCH  17  20
ENDBRANCH  10  15
BRANCH   4  14
ATOM     14  C   UNL     1      -3.018 -11.229  12.439  0.00  0.00    +0.120 C 
BRANCH  14  16
ATOM     16  C   UNL     1      -3.821 -10.285  11.584  0.00  0.00    -0.033 A 
ATOM     18  C   UNL     1      -3.319  -9.858  10.355  0.00  0.00    +0.007 A 
ATOM     19  C   UNL     1      -5.068  -9.837  12.021  0.00  0.00    +0.007 A 
ATOM     23  C   UNL     1      -4.062  -8.983   9.563  0.00  0.00    +0.023 A 
ATOM     24  C   UNL     1      -5.812  -8.962  11.229  0.00  0.00    +0.023 A 
ATOM     29  C   UNL     1      -5.308  -8.535  10.000  0.00  0.00    +0.033 A 
BRANCH  29   9
ATOM      3  O   UNL     1      -8.143  -8.731   9.004  0.00  0.00    -0.276 OA
ATOM      9  N   UNL     1      -6.053  -7.660   9.208  0.00  0.00    -0.286 N 
ATOM     32  C   UNL     1      -7.376  -7.802   8.770  0.00  0.00    +0.214 C 
ATOM     33  C   UNL     1      -7.816  -6.630   7.929  0.00  0.00    +0.109 C 
ATOM     34  H   UNL     1      -5.565  -6.815   8.917  0.00  0.00    +0.155 HD
ENDBRANCH  29   9
ENDBRANCH  14  16
ENDBRANCH   4  14
TORSDOF 5
ENDMDL
MODEL 3
REMARK VINA RESULT:      -7.7     27.456     31.146
REMARK  Name = 45783302
REMARK  6 active torsions:
REMARK  status: ('A' for Active; 'I' for Inactive)
REMARK    1  A    between atoms: N_4  and  C_14
REMARK    2  A    between atoms: N_9  and  C_29
REMARK    3  A    between atoms: C_10  and  C_15
REMARK    4  A    between atoms: C_14  and  C_16
REMARK    5  A    between atoms: C_17  and  C_20
REMARK    6  A    between atoms: C_32  and  C_33
REMARK                            x       y       z     vdW  Elec       q    Type
REMARK                         _______ _______ _______ _____ _____    ______ ____
ROOT
ATOM      4  N   UNL     1      -2.909 -10.449  13.903  0.00  0.00    -0.287 NA
ATOM     10  C   UNL     1      -3.167 -11.133  15.188  0.00  0.00    +0.146 C 
ATOM     11  C   UNL     1      -1.991 -10.721  16.092  0.00  0.00    +0.030 C 
ATOM     12  C   UNL     1      -1.095  -9.860  15.214  0.00  0.00    +0.017 C 
ATOM     13  C   UNL     1      -1.458 -10.288  13.806  0.00  0.00    +0.085 C 
ENDROOT
BRANCH  10  15
ATOM      1  O   UNL     1      -4.497  -9.980  16.884  0.00  0.00    -0.336 OA
ATOM      5  N   UNL     1      -5.713 -11.113  15.382  0.00  0.00    -0.190 NA
ATOM      7  N   UNL     1      -5.837  -9.785  17.241  0.00  0.00    -0.056 NA
ATOM     15  C   UNL     1      -4.513 -10.771  15.779  0.00  0.00    +0.245 A 
ATOM     17  C   UNL     1      -6.492 -10.485  16.310  0.00  0.00    +0.202 A 
BRANCH  17  20
ATOM      2  O   UNL     1     -12.479  -6.179  15.466  0.00  0.00    -0.377 OA
ATOM      6  N   UNL     1     -10.822  -8.432  15.743  0.00  0.00    -0.311 N 
ATOM      8  N   UNL     1     -10.712 -10.750  16.209  0.00  0.00    -0.240 NA
ATOM     20  C   UNL     1      -7.923 -10.574  16.277  0.00  0.00    +0.027 A 
ATOM     21  C   UNL     1     -10.693  -7.297  16.667  0.00  0.00    +0.134 C 
ATOM     22  C   UNL     1     -12.122  -8.546  15.073  0.00  0.00    +0.134 C 
ATOM     25  C   UNL     1     -10.066  -9.581  16.000  0.00  0.00    +0.122 A 
ATOM     26  C   UNL     1     -11.156  -6.018  15.979  0.00  0.00    +0.178 C 
ATOM     27  C   UNL     1     -12.510  -7.200  14.470  0.00  0.00    +0.178 C 
ATOM     28  C   UNL     1      -8.688  -9.442  16.022  0.00  0.00    +0.055 A 
ATOM     30  C   UNL     1      -8.551 -11.795  16.498  0.00  0.00    +0.031 A 
ATOM     31  C   UNL     1      -9.936 -11.829  16.454  0.00  0.00    +0.113 A 
ENDBRANCH  17  20
ENDBRANCH  10  15
BRANCH   4  14
ATOM     14  C   UNL     1      -3.460 -11.158  12.756  0.00  0.00    +0.120 C 
BRANCH  14  16
ATOM     16  C   UNL     1      -4.184 -10.229  11.818  0.00  0.00    -0.033 A 
ATOM     18  C   UNL     1      -5.397  -9.657  12.201  0.00  0.00    +0.007 A 
ATOM     19  C   UNL     1      -3.643  -9.941  10.565  0.00  0.00    +0.007 A 
ATOM     23  C   UNL     1      -6.069  -8.797  11.333  0.00  0.00    +0.023 A 
ATOM     24  C   UNL     1      -4.315  -9.081   9.696  0.00  0.00    +0.023 A 
ATOM     29  C   UNL     1      -5.528  -8.509  10.080  0.00  0.00    +0.033 A 
BRANCH  29   9
ATOM      3  O   UNL     1      -8.229  -8.765   8.774  0.00  0.00    -0.276 OA
ATOM      9  N   UNL     1      -6.199  -7.649   9.211  0.00  0.00    -0.286 N 
ATOM     32  C   UNL     1      -7.462  -7.818   8.628  0.00  0.00    +0.214 C 
ATOM     33  C   UNL     1      -7.832  -6.654   7.744  0.00  0.00    +0.109 C 
ATOM     34  H   UNL     1      -5.701  -6.792   8.977  0.00  0.00    +0.155 HD
ENDBRANCH  29   9
ENDBRANCH  14  16
ENDBRANCH   4  14
TORSDOF 5
ENDMDL
MODEL 4
REMARK VINA RESULT:      -7.4     27.750     31.194
REMARK  Name = 45783302
REMARK  6 active torsions:
REMARK  status: ('A' for Active; 'I' for Inactive)
REMARK    1  A    between atoms: N_4  and  C_14
REMARK    2  A    between atoms: N_9  and  C_29
REMARK    3  A    between atoms: C_10  and  C_15
REMARK    4  A    between atoms: C_14  and  C_16
REMARK    5  A    between atoms: C_17  and  C_20
REMARK    6  A    between atoms: C_32  and  C_33
REMARK                            x       y       z     vdW  Elec       q    Type
REMARK                         _______ _______ _______ _____ _____    ______ ____
ROOT
ATOM      4  N   UNL     1      -2.787 -10.489  13.808  0.00  0.00    -0.287 NA
ATOM     10  C   UNL     1      -2.736 -11.382  14.985  0.00  0.00    +0.146 C 
ATOM     11  C   UNL     1      -1.635 -10.786  15.880  0.00  0.00    +0.030 C 
ATOM     12  C   UNL     1      -1.084  -9.601  15.100  0.00  0.00    +0.017 C 
ATOM     13  C   UNL     1      -1.446  -9.922  13.663  0.00  0.00    +0.085 C 
ENDROOT
BRANCH  10  15
ATOM      1  O   UNL     1      -4.362 -12.689  16.258  0.00  0.00    -0.336 OA
ATOM      5  N   UNL     1      -5.006 -10.585  15.841  0.00  0.00    -0.190 NA
ATOM      7  N   UNL     1      -5.627 -12.546  16.842  0.00  0.00    -0.056 NA
ATOM     15  C   UNL     1      -4.071 -11.489  15.692  0.00  0.00    +0.245 A 
ATOM     17  C   UNL     1      -5.940 -11.280  16.553  0.00  0.00    +0.202 A 
BRANCH  17  20
ATOM      2  O   UNL     1     -12.399 -13.072  19.741  0.00  0.00    -0.377 OA
ATOM      6  N   UNL     1     -10.283 -11.591  18.633  0.00  0.00    -0.311 N 
ATOM      8  N   UNL     1      -9.585  -9.505  17.761  0.00  0.00    -0.240 NA
ATOM     20  C   UNL     1      -7.176 -10.678  16.962  0.00  0.00    +0.027 A 
ATOM     21  C   UNL     1     -10.828 -12.755  17.920  0.00  0.00    +0.134 C 
ATOM     22  C   UNL     1     -11.191 -10.973  19.605  0.00  0.00    +0.134 C 
ATOM     25  C   UNL     1      -9.319 -10.811  17.984  0.00  0.00    +0.122 A 
ATOM     26  C   UNL     1     -11.435 -13.733  18.920  0.00  0.00    +0.178 C 
ATOM     27  C   UNL     1     -11.780 -12.045  20.514  0.00  0.00    +0.178 C 
ATOM     28  C   UNL     1      -8.143 -11.439  17.609  0.00  0.00    +0.055 A 
ATOM     30  C   UNL     1      -7.412  -9.331  16.714  0.00  0.00    +0.031 A 
ATOM     31  C   UNL     1      -8.622  -8.797  17.129  0.00  0.00    +0.113 A 
ENDBRANCH  17  20
ENDBRANCH  10  15
BRANCH   4  14
ATOM     14  C   UNL     1      -3.231 -11.164  12.595  0.00  0.00    +0.120 C 
BRANCH  14  16
ATOM     16  C   UNL     1      -4.005 -10.240  11.693  0.00  0.00    -0.033 A 
ATOM     18  C   UNL     1      -3.521  -9.940  10.420  0.00  0.00    +0.007 A 
ATOM     19  C   UNL     1      -5.207  -9.683  12.130  0.00  0.00    +0.007 A 
ATOM     23  C   UNL     1      -4.237  -9.084   9.584  0.00  0.00    +0.023 A 
ATOM     24  C   UNL     1      -5.924  -8.826  11.295  0.00  0.00    +0.023 A 
ATOM     29  C   UNL     1      -5.439  -8.527  10.021  0.00  0.00    +0.033 A 
BRANCH  29   9
ATOM      3  O   UNL     1      -8.098  -8.901   8.659  0.00  0.00    -0.276 OA
ATOM      9  N   UNL     1      -6.157  -7.671   9.186  0.00  0.00    -0.286 N 
ATOM     32  C   UNL     1      -7.397  -7.898   8.574  0.00  0.00    +0.214 C 
ATOM     33  C   UNL     1      -7.836  -6.717   7.744  0.00  0.00    +0.109 C 
ATOM     34  H   UNL     1      -5.717  -6.771   9.004  0.00  0.00    +0.155 HD
ENDBRANCH  29   9
ENDBRANCH  14  16
ENDBRANCH   4  14
TORSDOF 5
ENDMDL
MODEL 5
REMARK VINA RESULT:      -7.4     15.082     18.755
REMARK  Name = 45783302
REMARK  6 active torsions:
REMARK  status: ('A' for Active; 'I' for Inactive)
REMARK    1  A    between atoms: N_4  and  C_14
REMARK    2  A    between atoms: N_9  and  C_29
REMARK    3  A    between atoms: C_10  and  C_15
REMARK    4  A    between atoms: C_14  and  C_16
REMARK    5  A    between atoms: C_17  and  C_20
REMARK    6  A    between atoms: C_32  and  C_33
REMARK                            x       y       z     vdW  Elec       q    Type
REMARK                         _______ _______ _______ _____ _____    ______ ____
ROOT
ATOM      4  N   UNL     1      10.323   6.027   5.509  0.00  0.00    -0.287 NA
ATOM     10  C   UNL     1      10.980   6.921   6.485  0.00  0.00    +0.146 C 
ATOM     11  C   UNL     1      10.717   6.266   7.853  0.00  0.00    +0.030 C 
ATOM     12  C   UNL     1       9.855   5.048   7.553  0.00  0.00    +0.017 C 
ATOM     13  C   UNL     1       9.218   5.383   6.219  0.00  0.00    +0.085 C 
ENDROOT
BRANCH  10  15
ATOM      1  O   UNL     1      13.314   6.744   7.190  0.00  0.00    -0.336 OA
ATOM      5  N   UNL     1      13.042   7.578   5.128  0.00  0.00    -0.190 NA
ATOM      7  N   UNL     1      14.600   7.006   6.703  0.00  0.00    -0.056 NA
ATOM     15  C   UNL     1      12.456   7.108   6.201  0.00  0.00    +0.245 A 
ATOM     17  C   UNL     1      14.356   7.496   5.483  0.00  0.00    +0.202 A 
BRANCH  17  20
ATOM      2  O   UNL     1      21.762   7.847   5.134  0.00  0.00    -0.377 OA
ATOM      6  N   UNL     1      19.044   7.955   4.431  0.00  0.00    -0.311 N 
ATOM      8  N   UNL     1      17.444   8.716   2.862  0.00  0.00    -0.240 NA
ATOM     20  C   UNL     1      15.403   7.911   4.595  0.00  0.00    +0.027 A 
ATOM     21  C   UNL     1      19.520   8.611   5.656  0.00  0.00    +0.134 C 
ATOM     22  C   UNL     1      20.066   7.734   3.403  0.00  0.00    +0.134 C 
ATOM     25  C   UNL     1      17.708   8.144   4.058  0.00  0.00    +0.122 A 
ATOM     26  C   UNL     1      20.774   7.906   6.163  0.00  0.00    +0.178 C 
ATOM     27  C   UNL     1      21.292   7.077   4.029  0.00  0.00    +0.178 C 
ATOM     28  C   UNL     1      16.735   7.728   4.951  0.00  0.00    +0.055 A 
ATOM     30  C   UNL     1      15.091   8.496   3.373  0.00  0.00    +0.031 A 
ATOM     31  C   UNL     1      16.138   8.878   2.550  0.00  0.00    +0.113 A 
ENDBRANCH  17  20
ENDBRANCH  10  15
BRANCH   4  14
ATOM     14  C   UNL     1       9.873   6.720   4.309  0.00  0.00    +0.120 C 
BRANCH  14  16
ATOM     16  C   UNL     1      10.176   5.934   3.061  0.00  0.00    -0.033 A 
ATOM     18  C   UNL     1      10.751   4.668   3.156  0.00  0.00    +0.007 A 
ATOM     19  C   UNL     1       9.883   6.474   1.808  0.00  0.00    +0.007 A 
ATOM     23  C   UNL     1      11.033   3.939   2.001  0.00  0.00    +0.023 A 
ATOM     24  C   UNL     1      10.165   5.746   0.652  0.00  0.00    +0.023 A 
ATOM     29  C   UNL     1      10.740   4.479   0.748  0.00  0.00    +0.033 A 
BRANCH  29   9
ATOM      3  O   UNL     1      13.371   3.572  -0.400  0.00  0.00    -0.276 OA
ATOM      9  N   UNL     1      11.021   3.751  -0.408  0.00  0.00    -0.286 N 
ATOM     32  C   UNL     1      12.272   3.355  -0.900  0.00  0.00    +0.214 C 
ATOM     33  C   UNL     1      12.148   2.578  -2.186  0.00  0.00    +0.109 C 
ATOM     34  H   UNL     1      10.208   3.478  -0.958  0.00  0.00    +0.155 HD
ENDBRANCH  29   9
ENDBRANCH  14  16
ENDBRANCH   4  14
TORSDOF 5
ENDMDL
MODEL 6
REMARK VINA RESULT:      -7.4     27.875     30.488
REMARK  Name = 45783302
REMARK  6 active torsions:
REMARK  status: ('A' for Active; 'I' for Inactive)
REMARK    1  A    between atoms: N_4  and  C_14
REMARK    2  A    between atoms: N_9  and  C_29
REMARK    3  A    between atoms: C_10  and  C_15
REMARK    4  A    between atoms: C_14  and  C_16
REMARK    5  A    between atoms: C_17  and  C_20
REMARK    6  A    between atoms: C_32  and  C_33
REMARK                            x       y       z     vdW  Elec       q    Type
REMARK                         _______ _______ _______ _____ _____    ______ ____
ROOT
ATOM      4  N   UNL     1      -7.404 -10.650  17.572  0.00  0.00    -0.287 NA
ATOM     10  C   UNL     1      -6.070 -11.050  18.068  0.00  0.00    +0.146 C 
ATOM     11  C   UNL     1      -6.264 -12.483  18.596  0.00  0.00    +0.030 C 
ATOM     12  C   UNL     1      -7.746 -12.778  18.414  0.00  0.00    +0.017 C 
ATOM     13  C   UNL     1      -8.379 -11.402  18.361  0.00  0.00    +0.085 C 
ENDROOT
BRANCH  10  15
ATOM      1  O   UNL     1      -3.713 -11.054  17.421  0.00  0.00    -0.336 OA
ATOM      5  N   UNL     1      -5.132 -10.801  15.705  0.00  0.00    -0.190 NA
ATOM      7  N   UNL     1      -2.920 -10.946  16.272  0.00  0.00    -0.056 NA
ATOM     15  C   UNL     1      -5.002 -10.960  16.998  0.00  0.00    +0.245 A 
ATOM     17  C   UNL     1      -3.829 -10.799  15.303  0.00  0.00    +0.202 A 
BRANCH  17  20
ATOM      2  O   UNL     1      -6.955  -9.875   8.635  0.00  0.00    -0.377 OA
ATOM      6  N   UNL     1      -5.050 -10.082  10.689  0.00  0.00    -0.311 N 
ATOM      8  N   UNL     1      -2.762 -10.351  11.234  0.00  0.00    -0.240 NA
ATOM     20  C   UNL     1      -3.467 -10.648  13.923  0.00  0.00    +0.027 A 
ATOM     21  C   UNL     1      -6.090 -11.108  10.535  0.00  0.00    +0.134 C 
ATOM     22  C   UNL     1      -4.754  -9.306   9.480  0.00  0.00    +0.134 C 
ATOM     25  C   UNL     1      -4.049 -10.295  11.644  0.00  0.00    +0.122 A 
ATOM     26  C   UNL     1      -7.317 -10.501   9.866  0.00  0.00    +0.178 C 
ATOM     27  C   UNL     1      -6.053  -8.795   8.867  0.00  0.00    +0.178 C 
ATOM     28  C   UNL     1      -4.449 -10.435  12.962  0.00  0.00    +0.055 A 
ATOM     30  C   UNL     1      -2.132 -10.713  13.540  0.00  0.00    +0.031 A 
ATOM     31  C   UNL     1      -1.835 -10.561  12.195  0.00  0.00    +0.113 A 
ENDBRANCH  17  20
ENDBRANCH  10  15
BRANCH   4  14
ATOM     14  C   UNL     1      -7.634  -9.213  17.643  0.00  0.00    +0.120 C 
BRANCH  14  16
ATOM     16  C   UNL     1      -8.850  -8.801  16.856  0.00  0.00    -0.033 A 
ATOM     18  C   UNL     1      -9.852  -8.047  17.463  0.00  0.00    +0.007 A 
ATOM     19  C   UNL     1      -8.975  -9.177  15.518  0.00  0.00    +0.007 A 
ATOM     23  C   UNL     1     -10.979  -7.666  16.735  0.00  0.00    +0.023 A 
ATOM     24  C   UNL     1     -10.102  -8.797  14.788  0.00  0.00    +0.023 A 
ATOM     29  C   UNL     1     -11.104  -8.041  15.397  0.00  0.00    +0.033 A 
BRANCH  29   9
ATOM      3  O   UNL     1     -11.859  -5.377  14.215  0.00  0.00    -0.276 OA
ATOM      9  N   UNL     1     -12.230  -7.661  14.668  0.00  0.00    -0.286 N 
ATOM     32  C   UNL     1     -12.534  -6.399  14.139  0.00  0.00    +0.214 C 
ATOM     33  C   UNL     1     -13.854  -6.400  13.410  0.00  0.00    +0.109 C 
ATOM     34  H   UNL     1     -12.912  -8.399  14.503  0.00  0.00    +0.155 HD
ENDBRANCH  29   9
ENDBRANCH  14  16
ENDBRANCH   4  14
TORSDOF 5
ENDMDL
MODEL 7
REMARK VINA RESULT:      -7.4     27.217     30.451
REMARK  Name = 45783302
REMARK  6 active torsions:
REMARK  status: ('A' for Active; 'I' for Inactive)
REMARK    1  A    between atoms: N_4  and  C_14
REMARK    2  A    between atoms: N_9  and  C_29
REMARK    3  A    between atoms: C_10  and  C_15
REMARK    4  A    between atoms: C_14  and  C_16
REMARK    5  A    between atoms: C_17  and  C_20
REMARK    6  A    between atoms: C_32  and  C_33
REMARK                            x       y       z     vdW  Elec       q    Type
REMARK                         _______ _______ _______ _____ _____    ______ ____
ROOT
ATOM      4  N   UNL     1      -3.594 -10.077  11.543  0.00  0.00    -0.287 NA
ATOM     10  C   UNL     1      -2.522 -10.717  12.332  0.00  0.00    +0.146 C 
ATOM     11  C   UNL     1      -1.244  -9.949  11.950  0.00  0.00    +0.030 C 
ATOM     12  C   UNL     1      -1.684  -8.940  10.899  0.00  0.00    +0.017 C 
ATOM     13  C   UNL     1      -2.957  -9.543  10.339  0.00  0.00    +0.085 C 
ENDROOT
BRANCH  10  15
ATOM      1  O   UNL     1      -1.742 -10.408  14.628  0.00  0.00    -0.336 OA
ATOM      5  N   UNL     1      -3.921 -10.898  14.461  0.00  0.00    -0.190 NA
ATOM      7  N   UNL     1      -2.236 -10.437  15.938  0.00  0.00    -0.056 NA
ATOM     15  C   UNL     1      -2.799 -10.688  13.821  0.00  0.00    +0.245 A 
ATOM     17  C   UNL     1      -3.526 -10.733  15.756  0.00  0.00    +0.202 A 
BRANCH  17  20
ATOM      2  O   UNL     1     -10.576  -9.221  17.520  0.00  0.00    -0.377 OA
ATOM      6  N   UNL     1      -7.946 -10.207  17.620  0.00  0.00    -0.311 N 
ATOM      8  N   UNL     1      -6.243 -11.140  18.973  0.00  0.00    -0.240 NA
ATOM     20  C   UNL     1      -4.447 -10.870  16.847  0.00  0.00    +0.027 A 
ATOM     21  C   UNL     1      -8.199  -8.797  17.293  0.00  0.00    +0.134 C 
ATOM     22  C   UNL     1      -9.017 -10.876  18.367  0.00  0.00    +0.134 C 
ATOM     25  C   UNL     1      -6.619 -10.620  17.783  0.00  0.00    +0.122 A 
ATOM     26  C   UNL     1      -9.581  -8.654  16.667  0.00  0.00    +0.178 C 
ATOM     27  C   UNL     1     -10.357 -10.621  17.684  0.00  0.00    +0.178 C 
ATOM     28  C   UNL     1      -5.769 -10.466  16.701  0.00  0.00    +0.055 A 
ATOM     30  C   UNL     1      -4.022 -11.409  18.056  0.00  0.00    +0.031 A 
ATOM     31  C   UNL     1      -4.950 -11.521  19.079  0.00  0.00    +0.113 A 
ENDBRANCH  17  20
ENDBRANCH  10  15
BRANCH   4  14
ATOM     14  C   UNL     1      -4.692 -10.981  11.227  0.00  0.00    +0.120 C 
BRANCH  14  16
ATOM     16  C   UNL     1      -5.761 -10.301  10.413  0.00  0.00    -0.033 A 
ATOM     18  C   UNL     1      -6.571  -9.328  10.998  0.00  0.00    +0.007 A 
ATOM     19  C   UNL     1      -5.944 -10.646   9.074  0.00  0.00    +0.007 A 
ATOM     23  C   UNL     1      -7.562  -8.699  10.245  0.00  0.00    +0.023 A 
ATOM     24  C   UNL     1      -6.935 -10.018   8.320  0.00  0.00    +0.023 A 
ATOM     29  C   UNL     1      -7.744  -9.044   8.906  0.00  0.00    +0.033 A 
BRANCH  29   9
ATOM      3  O   UNL     1      -8.035  -6.165   8.074  0.00  0.00    -0.276 OA
ATOM      9  N   UNL     1      -8.735  -8.415   8.152  0.00  0.00    -0.286 N 
ATOM     32  C   UNL     1      -8.823  -7.063   7.793  0.00  0.00    +0.214 C 
ATOM     33  C   UNL     1     -10.053  -6.781   6.968  0.00  0.00    +0.109 C 
ATOM     34  H   UNL     1      -9.484  -9.023   7.825  0.00  0.00    +0.155 HD
ENDBRANCH  29   9
ENDBRANCH  14  16
ENDBRANCH   4  14
TORSDOF 5
ENDMDL
MODEL 8
REMARK VINA RESULT:      -7.4     27.533     30.336
REMARK  Name = 45783302
REMARK  6 active torsions:
REMARK  status: ('A' for Active; 'I' for Inactive)
REMARK    1  A    between atoms: N_4  and  C_14
REMARK    2  A    between atoms: N_9  and  C_29
REMARK    3  A    between atoms: C_10  and  C_15
REMARK    4  A    between atoms: C_14  and  C_16
REMARK    5  A    between atoms: C_17  and  C_20
REMARK    6  A    between atoms: C_32  and  C_33
REMARK                            x       y       z     vdW  Elec       q    Type
REMARK                         _______ _______ _______ _____ _____    ______ ____
ROOT
ATOM      4  N   UNL     1      -8.478 -10.236  17.913  0.00  0.00    -0.287 NA
ATOM     10  C   UNL     1      -7.288 -10.717  18.644  0.00  0.00    +0.146 C 
ATOM     11  C   UNL     1      -7.799 -11.898  19.488  0.00  0.00    +0.030 C 
ATOM     12  C   UNL     1      -9.295 -11.966  19.215  0.00  0.00    +0.017 C 
ATOM     13  C   UNL     1      -9.635 -10.565  18.746  0.00  0.00    +0.085 C 
ENDROOT
BRANCH  10  15
ATOM      1  O   UNL     1      -5.742 -12.401  17.779  0.00  0.00    -0.336 OA
ATOM      5  N   UNL     1      -5.501 -10.376  16.851  0.00  0.00    -0.190 NA
ATOM      7  N   UNL     1      -4.703 -12.520  16.847  0.00  0.00    -0.056 NA
ATOM     15  C   UNL     1      -6.155 -11.108  17.717  0.00  0.00    +0.245 A 
ATOM     17  C   UNL     1      -4.621 -11.285  16.342  0.00  0.00    +0.202 A 
BRANCH  17  20
ATOM      2  O   UNL     1      -4.132 -10.515   8.976  0.00  0.00    -0.377 OA
ATOM      6  N   UNL     1      -3.519 -10.456  11.718  0.00  0.00    -0.311 N 
ATOM      8  N   UNL     1      -1.821 -10.229  13.352  0.00  0.00    -0.240 NA
ATOM     20  C   UNL     1      -3.671 -10.928  15.328  0.00  0.00    +0.027 A 
ATOM     21  C   UNL     1      -4.051 -11.680  11.102  0.00  0.00    +0.134 C 
ATOM     22  C   UNL     1      -2.865  -9.525  10.792  0.00  0.00    +0.134 C 
ATOM     25  C   UNL     1      -3.109 -10.514  13.055  0.00  0.00    +0.122 A 
ATOM     26  C   UNL     1      -4.889 -11.319   9.881  0.00  0.00    +0.178 C 
ATOM     27  C   UNL     1      -3.766  -9.279   9.587  0.00  0.00    +0.178 C 
ATOM     28  C   UNL     1      -4.063 -10.865  13.996  0.00  0.00    +0.055 A 
ATOM     30  C   UNL     1      -2.355 -10.642  15.674  0.00  0.00    +0.031 A 
ATOM     31  C   UNL     1      -1.477 -10.302  14.657  0.00  0.00    +0.113 A 
ENDBRANCH  17  20
ENDBRANCH  10  15
BRANCH   4  14
ATOM     14  C   UNL     1      -8.420  -8.815  17.594  0.00  0.00    +0.120 C 
BRANCH  14  16
ATOM     16  C   UNL     1      -9.537  -8.401  16.673  0.00  0.00    -0.033 A 
ATOM     18  C   UNL     1     -10.485  -7.472  17.100  0.00  0.00    +0.007 A 
ATOM     19  C   UNL     1      -9.626  -8.950  15.393  0.00  0.00    +0.007 A 
ATOM     23  C   UNL     1     -11.520  -7.088  16.248  0.00  0.00    +0.023 A 
ATOM     24  C   UNL     1     -10.662  -8.567  14.541  0.00  0.00    +0.023 A 
ATOM     29  C   UNL     1     -11.609  -7.637  14.968  0.00  0.00    +0.033 A 
BRANCH  29   9
ATOM      3  O   UNL     1     -12.011  -5.100  13.398  0.00  0.00    -0.276 OA
ATOM      9  N   UNL     1     -12.644  -7.254  14.115  0.00  0.00    -0.286 N 
ATOM     32  C   UNL     1     -12.783  -6.053  13.406  0.00  0.00    +0.214 C 
ATOM     33  C   UNL     1     -14.051  -6.028  12.590  0.00  0.00    +0.109 C 
ATOM     34  H   UNL     1     -13.388  -7.940  13.999  0.00  0.00    +0.155 HD
ENDBRANCH  29   9
ENDBRANCH  14  16
ENDBRANCH   4  14
TORSDOF 5
ENDMDL
MODEL 9
REMARK VINA RESULT:      -7.3     15.172     17.973
REMARK  Name = 45783302
REMARK  6 active torsions:
REMARK  status: ('A' for Active; 'I' for Inactive)
REMARK    1  A    between atoms: N_4  and  C_14
REMARK    2  A    between atoms: N_9  and  C_29
REMARK    3  A    between atoms: C_10  and  C_15
REMARK    4  A    between atoms: C_14  and  C_16
REMARK    5  A    between atoms: C_17  and  C_20
REMARK    6  A    between atoms: C_32  and  C_33
REMARK                            x       y       z     vdW  Elec       q    Type
REMARK                         _______ _______ _______ _____ _____    ______ ____
ROOT
ATOM      4  N   UNL     1      10.006   5.507   6.308  0.00  0.00    -0.287 NA
ATOM     10  C   UNL     1       9.345   6.402   7.280  0.00  0.00    +0.146 C 
ATOM     11  C   UNL     1       9.336   5.607   8.599  0.00  0.00    +0.030 C 
ATOM     12  C   UNL     1       9.954   4.259   8.256  0.00  0.00    +0.017 C 
ATOM     13  C   UNL     1       9.742   4.141   6.760  0.00  0.00    +0.085 C 
ENDROOT
BRANCH  10  15
ATOM      1  O   UNL     1       9.284   8.782   7.834  0.00  0.00    -0.336 OA
ATOM      5  N   UNL     1      11.294   8.050   7.166  0.00  0.00    -0.190 NA
ATOM      7  N   UNL     1      10.136   9.893   7.873  0.00  0.00    -0.056 NA
ATOM     15  C   UNL     1      10.045   7.739   7.409  0.00  0.00    +0.245 A 
ATOM     17  C   UNL     1      11.302   9.381   7.465  0.00  0.00    +0.202 A 
BRANCH  17  20
ATOM      2  O   UNL     1      17.957   9.251   4.181  0.00  0.00    -0.377 OA
ATOM      6  N   UNL     1      15.701  10.109   5.620  0.00  0.00    -0.311 N 
ATOM      8  N   UNL     1      14.812  11.715   7.114  0.00  0.00    -0.240 NA
ATOM     20  C   UNL     1      12.492  10.172   7.346  0.00  0.00    +0.027 A 
ATOM     21  C   UNL     1      16.325   8.813   5.921  0.00  0.00    +0.134 C 
ATOM     22  C   UNL     1      16.576  11.086   4.963  0.00  0.00    +0.134 C 
ATOM     25  C   UNL     1      14.661  10.549   6.447  0.00  0.00    +0.122 A 
ATOM     26  C   UNL     1      17.034   8.283   4.680  0.00  0.00    +0.178 C 
ATOM     27  C   UNL     1      17.273  10.434   3.773  0.00  0.00    +0.178 C 
ATOM     28  C   UNL     1      13.534   9.749   6.528  0.00  0.00    +0.055 A 
ATOM     30  C   UNL     1      12.610  11.366   8.049  0.00  0.00    +0.031 A 
ATOM     31  C   UNL     1      13.779  12.094   7.900  0.00  0.00    +0.113 A 
ENDBRANCH  17  20
ENDBRANCH  10  15
BRANCH   4  14
ATOM     14  C   UNL     1       9.565   5.725   4.936  0.00  0.00    +0.120 C 
BRANCH  14  16
ATOM     16  C   UNL     1      10.686   5.534   3.950  0.00  0.00    -0.033 A 
ATOM     18  C   UNL     1      10.692   4.423   3.107  0.00  0.00    +0.007 A 
ATOM     19  C   UNL     1      11.721   6.467   3.880  0.00  0.00    +0.007 A 
ATOM     23  C   UNL     1      11.731   4.245   2.194  0.00  0.00    +0.023 A 
ATOM     24  C   UNL     1      12.761   6.289   2.967  0.00  0.00    +0.023 A 
ATOM     29  C   UNL     1      12.766   5.178   2.124  0.00  0.00    +0.033 A 
BRANCH  29   9
ATOM      3  O   UNL     1      14.951   3.110   2.027  0.00  0.00    -0.276 OA
ATOM      9  N   UNL     1      13.805   5.001   1.211  0.00  0.00    -0.286 N 
ATOM     32  C   UNL     1      14.802   4.016   1.214  0.00  0.00    +0.214 C 
ATOM     33  C   UNL     1      15.744   4.169   0.046  0.00  0.00    +0.109 C 
ATOM     34  H   UNL     1      13.835   5.677   0.450  0.00  0.00    +0.155 HD
ENDBRANCH  29   9
ENDBRANCH  14  16
ENDBRANCH   4  14
TORSDOF 5
ENDMDL
MODEL 10
REMARK VINA RESULT:      -7.2     27.738     30.269
REMARK  Name = 45783302
REMARK  6 active torsions:
REMARK  status: ('A' for Active; 'I' for Inactive)
REMARK    1  A    between atoms: N_4  and  C_14
REMARK    2  A    between atoms: N_9  and  C_29
REMARK    3  A    between atoms: C_10  and  C_15
REMARK    4  A    between atoms: C_14  and  C_16
REMARK    5  A    between atoms: C_17  and  C_20
REMARK    6  A    between atoms: C_32  and  C_33
REMARK                            x       y       z     vdW  Elec       q    Type
REMARK                         _______ _______ _______ _____ _____    ______ ____
ROOT
ATOM      4  N   UNL     1     -11.109   8.742  18.587  0.00  0.00    -0.287 NA
ATOM     10  C   UNL     1     -10.546  10.008  19.100  0.00  0.00    +0.146 C 
ATOM     11  C   UNL     1     -10.134  10.791  17.841  0.00  0.00    +0.030 C 
ATOM     12  C   UNL     1     -10.444   9.863  16.675  0.00  0.00    +0.017 C 
ATOM     13  C   UNL     1     -10.447   8.485  17.307  0.00  0.00    +0.085 C 
ENDROOT
BRANCH  10  15
ATOM      1  O   UNL     1     -12.332  11.660  19.331  0.00  0.00    -0.336 OA
ATOM      5  N   UNL     1     -11.718  10.703  21.261  0.00  0.00    -0.190 NA
ATOM      7  N   UNL     1     -13.138  12.233  20.324  0.00  0.00    -0.056 NA
ATOM     15  C   UNL     1     -11.526  10.770  19.967  0.00  0.00    +0.245 A 
ATOM     17  C   UNL     1     -12.715  11.617  21.433  0.00  0.00    +0.202 A 
BRANCH  17  20
ATOM      2  O   UNL     1     -11.207  10.633  28.633  0.00  0.00    -0.377 OA
ATOM      6  N   UNL     1     -12.425  11.483  26.248  0.00  0.00    -0.311 N 
ATOM      8  N   UNL     1     -14.349  12.432  25.248  0.00  0.00    -0.240 NA
ATOM     20  C   UNL     1     -13.270  11.893  22.727  0.00  0.00    +0.027 A 
ATOM     21  C   UNL     1     -12.091  10.066  26.447  0.00  0.00    +0.134 C 
ATOM     22  C   UNL     1     -12.578  12.268  27.478  0.00  0.00    +0.134 C 
ATOM     25  C   UNL     1     -13.145  11.837  25.101  0.00  0.00    +0.122 A 
ATOM     26  C   UNL     1     -10.920   9.945  27.416  0.00  0.00    +0.178 C 
ATOM     27  C   UNL     1     -11.382  12.028  28.393  0.00  0.00    +0.178 C 
ATOM     28  C   UNL     1     -12.567  11.549  23.876  0.00  0.00    +0.055 A 
ATOM     30  C   UNL     1     -14.512  12.506  22.837  0.00  0.00    +0.031 A 
ATOM     31  C   UNL     1     -15.004  12.752  24.109  0.00  0.00    +0.113 A 
ENDBRANCH  17  20
ENDBRANCH  10  15
BRANCH   4  14
ATOM     14  C   UNL     1     -10.957   7.629  19.515  0.00  0.00    +0.120 C 
BRANCH  14  16
ATOM     16  C   UNL     1     -12.276   7.211  20.110  0.00  0.00    -0.033 A 
ATOM     18  C   UNL     1     -13.468   7.703  19.580  0.00  0.00    +0.007 A 
ATOM     19  C   UNL     1     -12.305   6.334  21.194  0.00  0.00    +0.007 A 
ATOM     23  C   UNL     1     -14.689   7.318  20.131  0.00  0.00    +0.023 A 
ATOM     24  C   UNL     1     -13.527   5.948  21.747  0.00  0.00    +0.023 A 
ATOM     29  C   UNL     1     -14.719   6.440  21.215  0.00  0.00    +0.033 A 
BRANCH  29   9
ATOM      3  O   UNL     1     -16.833   4.570  20.168  0.00  0.00    -0.276 OA
ATOM      9  N   UNL     1     -15.940   6.054  21.767  0.00  0.00    -0.286 N 
ATOM     32  C   UNL     1     -16.893   5.175  21.233  0.00  0.00    +0.214 C 
ATOM     33  C   UNL     1     -18.084   5.020  22.145  0.00  0.00    +0.109 C 
ATOM     34  H   UNL     1     -16.158   6.467  22.672  0.00  0.00    +0.155 HD
ENDBRANCH  29   9
ENDBRANCH  14  16
ENDBRANCH   4  14
TORSDOF 5
ENDMDL
