MODEL 1
REMARK VINA RESULT:      -7.4      0.000      0.000
REMARK  Name = 38026931
REMARK  12 active torsions:
REMARK  status: ('A' for Active; 'I' for Inactive)
REMARK    1  A    between atoms: O_4  and  C_33
REMARK    2  A    between atoms: O_4  and  C_34
REMARK    3  A    between atoms: N_5  and  C_16
REMARK    4  A    between atoms: C_8  and  C_12
REMARK    5  A    between atoms: C_9  and  C_16
REMARK    6  A    between atoms: C_11  and  C_15
REMARK    7  A    between atoms: C_12  and  C_17
REMARK    8  A    between atoms: C_12  and  C_18
REMARK    9  A    between atoms: C_13  and  C_19
REMARK   10  A    between atoms: C_15  and  C_20
REMARK   11  A    between atoms: C_25  and  C_27
REMARK   12  A    between atoms: C_26  and  C_28
REMARK                            x       y       z     vdW  Elec       q    Type
REMARK                         _______ _______ _______ _____ _____    ______ ____
ROOT
ATOM      8  C   UNL     1      -2.963 -12.337  12.859  0.00  0.00    +0.000 C 
ATOM      9  C   UNL     1      -1.901 -11.210  12.794  0.00  0.00    +0.032 C 
ATOM     10  C   UNL     1      -3.423 -12.721  11.445  0.00  0.00    +0.012 C 
ATOM     11  C   UNL     1      -4.025 -11.526  10.683  0.00  0.00    +0.023 C 
ATOM     13  C   UNL     1      -3.157 -10.289  10.799  0.00  0.00    -0.073 C 
ATOM     14  C   UNL     1      -2.204 -10.171  11.740  0.00  0.00    -0.022 C 
ATOM     19  C   UNL     1      -3.379  -9.208   9.778  0.00  0.00    +0.039 C 
ENDROOT
BRANCH   8  12
ATOM     12  C   UNL     1      -2.433 -13.576  13.588  0.00  0.00    -0.013 C 
ATOM     17  C   UNL     1      -3.447 -14.059  14.620  0.00  0.00    +0.007 C 
ATOM     18  C   UNL     1      -2.110 -14.683  12.589  0.00  0.00    +0.007 C 
ENDBRANCH   8  12
BRANCH  11  15
ATOM     15  C   UNL     1      -5.456 -11.237  11.149  0.00  0.00    +0.103 C 
BRANCH  15  20
ATOM      1  O   UNL     1      -6.539 -12.561   9.508  0.00  0.00    -0.276 OA
ATOM      3  O   UNL     1      -8.376  -5.790   8.141  0.00  0.00    -0.276 OA
ATOM      6  N   UNL     1      -7.121 -10.314   9.576  0.00  0.00    -0.298 N 
ATOM      7  N   UNL     1      -7.744  -8.022   8.031  0.00  0.00    -0.299 N 
ATOM     20  C   UNL     1      -6.419 -11.438  10.006  0.00  0.00    +0.216 C 
ATOM     21  C   UNL     1      -8.073 -10.424   8.468  0.00  0.00    +0.126 C 
ATOM     22  C   UNL     1      -7.056  -8.982  10.195  0.00  0.00    +0.126 C 
ATOM     23  C   UNL     1      -7.809  -9.354   7.413  0.00  0.00    +0.126 C 
ATOM     24  C   UNL     1      -6.792  -7.912   9.140  0.00  0.00    +0.126 C 
ATOM     26  C   UNL     1      -8.448  -6.898   7.604  0.00  0.00    +0.213 C 
ATOM     28  C   UNL     1      -9.350  -7.081   6.408  0.00  0.00    +0.109 C 
ENDBRANCH  15  20
ENDBRANCH  11  15
BRANCH   9  16
ATOM     16  C   UNL     1      -1.738 -10.524  14.155  0.00  0.00    +0.112 C 
BRANCH  16   5
ATOM      2  O   UNL     1      -2.402 -11.092  16.890  0.00  0.00    -0.270 OA
ATOM      5  N   UNL     1      -3.009 -10.334  14.782  0.00  0.00    -0.311 N 
ATOM     25  C   UNL     1      -3.246 -10.637  16.122  0.00  0.00    +0.244 C 
ATOM     35  H   UNL     1      -3.730  -9.874  14.236  0.00  0.00    +0.149 HD
BRANCH  25  27
ATOM     27  C   UNL     1      -4.628 -10.407  16.617  0.00  0.00    +0.037 A 
ATOM     29  C   UNL     1      -5.583  -9.834  15.778  0.00  0.00    +0.016 A 
ATOM     30  C   UNL     1      -4.968 -10.761  17.923  0.00  0.00    +0.016 A 
ATOM     31  C   UNL     1      -6.880  -9.616  16.244  0.00  0.00    +0.046 A 
ATOM     32  C   UNL     1      -6.265 -10.543  18.389  0.00  0.00    +0.046 A 
ATOM     33  C   UNL     1      -7.220  -9.970  17.550  0.00  0.00    +0.120 A 
BRANCH  33   4
ATOM      4  O   UNL     1      -8.486  -9.758  18.005  0.00  0.00    -0.495 OA
ATOM     34  C   UNL     1      -9.279  -8.807  17.295  0.00  0.00    +0.277 C 
ENDBRANCH  33   4
ENDBRANCH  25  27
ENDBRANCH  16   5
ENDBRANCH   9  16
TORSDOF 7
ENDMDL
MODEL 2
REMARK VINA RESULT:      -6.8     27.164     29.757
REMARK  Name = 38026931
REMARK  12 active torsions:
REMARK  status: ('A' for Active; 'I' for Inactive)
REMARK    1  A    between atoms: O_4  and  C_33
REMARK    2  A    between atoms: O_4  and  C_34
REMARK    3  A    between atoms: N_5  and  C_16
REMARK    4  A    between atoms: C_8  and  C_12
REMARK    5  A    between atoms: C_9  and  C_16
REMARK    6  A    between atoms: C_11  and  C_15
REMARK    7  A    between atoms: C_12  and  C_17
REMARK    8  A    between atoms: C_12  and  C_18
REMARK    9  A    between atoms: C_13  and  C_19
REMARK   10  A    between atoms: C_15  and  C_20
REMARK   11  A    between atoms: C_25  and  C_27
REMARK   12  A    between atoms: C_26  and  C_28
REMARK                            x       y       z     vdW  Elec       q    Type
REMARK                         _______ _______ _______ _____ _____    ______ ____
ROOT
ATOM      8  C   UNL     1      13.067   9.266  19.998  0.00  0.00    +0.000 C 
ATOM      9  C   UNL     1      12.173   8.228  19.272  0.00  0.00    +0.032 C 
ATOM     10  C   UNL     1      12.905  10.653  19.359  0.00  0.00    +0.012 C 
ATOM     11  C   UNL     1      13.274  10.652  17.863  0.00  0.00    +0.023 C 
ATOM     13  C   UNL     1      12.639   9.489  17.126  0.00  0.00    -0.073 C 
ATOM     14  C   UNL     1      12.140   8.421  17.774  0.00  0.00    -0.022 C 
ATOM     19  C   UNL     1      12.548   9.603  15.631  0.00  0.00    +0.039 C 
ENDROOT
BRANCH   8  12
ATOM     12  C   UNL     1      12.747   9.343  21.494  0.00  0.00    -0.013 C 
ATOM     17  C   UNL     1      13.996   9.723  22.285  0.00  0.00    +0.007 C 
ATOM     18  C   UNL     1      11.623  10.343  21.747  0.00  0.00    +0.007 C 
ENDBRANCH   8  12
BRANCH  11  15
ATOM     15  C   UNL     1      14.795  10.658  17.668  0.00  0.00    +0.103 C 
BRANCH  15  20
ATOM      1  O   UNL     1      15.172  12.950  18.144  0.00  0.00    -0.276 OA
ATOM      3  O   UNL     1      16.447  12.124  11.159  0.00  0.00    -0.276 OA
ATOM      6  N   UNL     1      15.763  12.220  16.020  0.00  0.00    -0.298 N 
ATOM      7  N   UNL     1      15.793  12.865  13.261  0.00  0.00    -0.299 N 
ATOM     20  C   UNL     1      15.259  12.047  17.307  0.00  0.00    +0.216 C 
ATOM     21  C   UNL     1      16.233  13.540  15.589  0.00  0.00    +0.126 C 
ATOM     22  C   UNL     1      15.950  11.153  15.027  0.00  0.00    +0.126 C 
ATOM     23  C   UNL     1      15.608  13.933  14.254  0.00  0.00    +0.126 C 
ATOM     24  C   UNL     1      15.324  11.545  13.692  0.00  0.00    +0.126 C 
ATOM     26  C   UNL     1      16.300  13.038  11.975  0.00  0.00    +0.213 C 
ATOM     28  C   UNL     1      16.689  14.442  11.586  0.00  0.00    +0.109 C 
ENDBRANCH  15  20
ENDBRANCH  11  15
BRANCH   9  16
ATOM     16  C   UNL     1      12.615   6.796  19.593  0.00  0.00    +0.112 C 
BRANCH  16   5
ATOM      2  O   UNL     1      14.941   6.898  17.912  0.00  0.00    -0.270 OA
ATOM      5  N   UNL     1      13.979   6.770  20.020  0.00  0.00    -0.311 N 
ATOM     25  C   UNL     1      15.053   6.823  19.133  0.00  0.00    +0.244 C 
ATOM     35  H   UNL     1      14.151   6.803  21.019  0.00  0.00    +0.149 HD
BRANCH  25  27
ATOM     27  C   UNL     1      16.410   6.760  19.734  0.00  0.00    +0.037 A 
ATOM     29  C   UNL     1      17.345   5.845  19.252  0.00  0.00    +0.016 A 
ATOM     30  C   UNL     1      16.749   7.617  20.783  0.00  0.00    +0.016 A 
ATOM     31  C   UNL     1      18.619   5.784  19.818  0.00  0.00    +0.046 A 
ATOM     32  C   UNL     1      18.022   7.557  21.348  0.00  0.00    +0.046 A 
ATOM     33  C   UNL     1      18.957   6.641  20.866  0.00  0.00    +0.120 A 
BRANCH  33   4
ATOM      4  O   UNL     1      20.200   6.583  21.418  0.00  0.00    -0.495 OA
ATOM     34  C   UNL     1      21.017   5.468  21.062  0.00  0.00    +0.277 C 
ENDBRANCH  33   4
ENDBRANCH  25  27
ENDBRANCH  16   5
ENDBRANCH   9  16
TORSDOF 7
ENDMDL
MODEL 3
REMARK VINA RESULT:      -6.7     23.742     26.598
REMARK  Name = 38026931
REMARK  12 active torsions:
REMARK  status: ('A' for Active; 'I' for Inactive)
REMARK    1  A    between atoms: O_4  and  C_33
REMARK    2  A    between atoms: O_4  and  C_34
REMARK    3  A    between atoms: N_5  and  C_16
REMARK    4  A    between atoms: C_8  and  C_12
REMARK    5  A    between atoms: C_9  and  C_16
REMARK    6  A    between atoms: C_11  and  C_15
REMARK    7  A    between atoms: C_12  and  C_17
REMARK    8  A    between atoms: C_12  and  C_18
REMARK    9  A    between atoms: C_13  and  C_19
REMARK   10  A    between atoms: C_15  and  C_20
REMARK   11  A    between atoms: C_25  and  C_27
REMARK   12  A    between atoms: C_26  and  C_28
REMARK                            x       y       z     vdW  Elec       q    Type
REMARK                         _______ _______ _______ _____ _____    ______ ____
ROOT
ATOM      8  C   UNL     1       8.969   8.488   4.877  0.00  0.00    +0.000 C 
ATOM      9  C   UNL     1       8.660   9.180   6.229  0.00  0.00    +0.032 C 
ATOM     10  C   UNL     1       8.453   7.042   4.884  0.00  0.00    +0.012 C 
ATOM     11  C   UNL     1       9.080   6.205   6.015  0.00  0.00    +0.023 C 
ATOM     13  C   UNL     1       9.054   6.939   7.341  0.00  0.00    -0.073 C 
ATOM     14  C   UNL     1       8.851   8.266   7.418  0.00  0.00    -0.022 C 
ATOM     19  C   UNL     1       9.220   6.105   8.580  0.00  0.00    +0.039 C 
ENDROOT
BRANCH   8  12
ATOM     12  C   UNL     1       8.360   9.251   3.697  0.00  0.00    -0.013 C 
ATOM     17  C   UNL     1       8.525   8.454   2.407  0.00  0.00    +0.007 C 
ATOM     18  C   UNL     1       6.889   9.553   3.961  0.00  0.00    +0.007 C 
ENDBRANCH   8  12
BRANCH  11  15
ATOM     15  C   UNL     1      10.506   5.772   5.657  0.00  0.00    +0.103 C 
BRANCH  15  20
ATOM      1  O   UNL     1       9.954   3.541   5.074  0.00  0.00    -0.276 OA
ATOM      3  O   UNL     1      13.965   6.068  -0.276  0.00  0.00    -0.276 OA
ATOM      6  N   UNL     1      11.019   4.806   3.443  0.00  0.00    -0.298 N 
ATOM      7  N   UNL     1      12.960   4.785   1.379  0.00  0.00    -0.299 N 
ATOM     20  C   UNL     1      10.463   4.603   4.704  0.00  0.00    +0.216 C 
ATOM     21  C   UNL     1      11.020   3.719   2.460  0.00  0.00    +0.126 C 
ATOM     22  C   UNL     1      11.564   6.077   2.947  0.00  0.00    +0.126 C 
ATOM     23  C   UNL     1      12.414   3.514   1.874  0.00  0.00    +0.126 C 
ATOM     24  C   UNL     1      12.959   5.872   2.362  0.00  0.00    +0.126 C 
ATOM     26  C   UNL     1      13.513   4.989   0.116  0.00  0.00    +0.213 C 
ATOM     28  C   UNL     1      13.543   3.797  -0.808  0.00  0.00    +0.109 C 
ENDBRANCH  15  20
ENDBRANCH  11  15
BRANCH   9  16
ATOM     16  C   UNL     1       9.511  10.441   6.413  0.00  0.00    +0.112 C 
BRANCH  16   5
ATOM      2  O   UNL     1      11.559  10.437   8.425  0.00  0.00    -0.270 OA
ATOM      5  N   UNL     1      10.897  10.151   6.220  0.00  0.00    -0.311 N 
ATOM     25  C   UNL     1      11.829  10.172   7.256  0.00  0.00    +0.244 C 
ATOM     35  H   UNL     1      11.178   9.833   5.298  0.00  0.00    +0.149 HD
BRANCH  25  27
ATOM     27  C   UNL     1      13.236   9.873   6.886  0.00  0.00    +0.037 A 
ATOM     29  C   UNL     1      13.625   8.559   6.629  0.00  0.00    +0.016 A 
ATOM     30  C   UNL     1      14.169  10.907   6.799  0.00  0.00    +0.016 A 
ATOM     31  C   UNL     1      14.947   8.278   6.284  0.00  0.00    +0.046 A 
ATOM     32  C   UNL     1      15.491  10.626   6.454  0.00  0.00    +0.046 A 
ATOM     33  C   UNL     1      15.880   9.312   6.197  0.00  0.00    +0.120 A 
BRANCH  33   4
ATOM      4  O   UNL     1      17.170   9.038   5.859  0.00  0.00    -0.495 OA
ATOM     34  C   UNL     1      17.393   8.432   4.586  0.00  0.00    +0.277 C 
ENDBRANCH  33   4
ENDBRANCH  25  27
ENDBRANCH  16   5
ENDBRANCH   9  16
TORSDOF 7
ENDMDL
MODEL 4
REMARK VINA RESULT:      -6.7     23.381     25.749
REMARK  Name = 38026931
REMARK  12 active torsions:
REMARK  status: ('A' for Active; 'I' for Inactive)
REMARK    1  A    between atoms: O_4  and  C_33
REMARK    2  A    between atoms: O_4  and  C_34
REMARK    3  A    between atoms: N_5  and  C_16
REMARK    4  A    between atoms: C_8  and  C_12
REMARK    5  A    between atoms: C_9  and  C_16
REMARK    6  A    between atoms: C_11  and  C_15
REMARK    7  A    between atoms: C_12  and  C_17
REMARK    8  A    between atoms: C_12  and  C_18
REMARK    9  A    between atoms: C_13  and  C_19
REMARK   10  A    between atoms: C_15  and  C_20
REMARK   11  A    between atoms: C_25  and  C_27
REMARK   12  A    between atoms: C_26  and  C_28
REMARK                            x       y       z     vdW  Elec       q    Type
REMARK                         _______ _______ _______ _____ _____    ______ ____
ROOT
ATOM      8  C   UNL     1       8.941   8.565   4.823  0.00  0.00    +0.000 C 
ATOM      9  C   UNL     1       8.622   9.224   6.189  0.00  0.00    +0.032 C 
ATOM     10  C   UNL     1       8.455   7.108   4.804  0.00  0.00    +0.012 C 
ATOM     11  C   UNL     1       9.104   6.263   5.917  0.00  0.00    +0.023 C 
ATOM     13  C   UNL     1       9.066   6.972   7.257  0.00  0.00    -0.073 C 
ATOM     14  C   UNL     1       8.836   8.293   7.359  0.00  0.00    -0.022 C 
ATOM     19  C   UNL     1       9.253   6.118   8.479  0.00  0.00    +0.039 C 
ENDROOT
BRANCH   8  12
ATOM     12  C   UNL     1       8.313   9.337   3.659  0.00  0.00    -0.013 C 
ATOM     17  C   UNL     1       8.483   8.564   2.355  0.00  0.00    +0.007 C 
ATOM     18  C   UNL     1       6.838   9.610   3.937  0.00  0.00    +0.007 C 
ENDBRANCH   8  12
BRANCH  11  15
ATOM     15  C   UNL     1      10.537   5.867   5.547  0.00  0.00    +0.103 C 
BRANCH  15  20
ATOM      1  O   UNL     1      10.020   3.614   5.020  0.00  0.00    -0.276 OA
ATOM      3  O   UNL     1      14.036   6.053  -0.366  0.00  0.00    -0.276 OA
ATOM      6  N   UNL     1      11.079   4.850   3.364  0.00  0.00    -0.298 N 
ATOM      7  N   UNL     1      13.037   4.801   1.315  0.00  0.00    -0.299 N 
ATOM     20  C   UNL     1      10.517   4.673   4.626  0.00  0.00    +0.216 C 
ATOM     21  C   UNL     1      11.103   3.737   2.410  0.00  0.00    +0.126 C 
ATOM     22  C   UNL     1      11.611   6.115   2.838  0.00  0.00    +0.126 C 
ATOM     23  C   UNL     1      12.504   3.536   1.840  0.00  0.00    +0.126 C 
ATOM     24  C   UNL     1      13.013   5.913   2.269  0.00  0.00    +0.126 C 
ATOM     26  C   UNL     1      13.596   4.979   0.051  0.00  0.00    +0.213 C 
ATOM     28  C   UNL     1      13.650   3.763  -0.840  0.00  0.00    +0.109 C 
ENDBRANCH  15  20
ENDBRANCH  11  15
BRANCH   9  16
ATOM     16  C   UNL     1       9.447  10.499   6.394  0.00  0.00    +0.112 C 
BRANCH  16   5
ATOM      2  O   UNL     1      11.442  10.612   8.456  0.00  0.00    -0.270 OA
ATOM      5  N   UNL     1       9.277  11.006   7.720  0.00  0.00    -0.311 N 
ATOM     25  C   UNL     1      10.303  11.024   8.663  0.00  0.00    +0.244 C 
ATOM     35  H   UNL     1       8.389  11.449   7.935  0.00  0.00    +0.149 HD
BRANCH  25  27
ATOM     27  C   UNL     1       9.958  11.560  10.005  0.00  0.00    +0.037 A 
ATOM     29  C   UNL     1       8.630  11.840  10.325  0.00  0.00    +0.016 A 
ATOM     30  C   UNL     1      10.964  11.785  10.945  0.00  0.00    +0.016 A 
ATOM     31  C   UNL     1       8.307  12.345  11.584  0.00  0.00    +0.046 A 
ATOM     32  C   UNL     1      10.642  12.290  12.205  0.00  0.00    +0.046 A 
ATOM     33  C   UNL     1       9.313  12.571  12.524  0.00  0.00    +0.120 A 
BRANCH  33   4
ATOM      4  O   UNL     1       8.998  13.063  13.753  0.00  0.00    -0.495 OA
ATOM     34  C   UNL     1       8.676  14.451  13.834  0.00  0.00    +0.277 C 
ENDBRANCH  33   4
ENDBRANCH  25  27
ENDBRANCH  16   5
ENDBRANCH   9  16
TORSDOF 7
ENDMDL
MODEL 5
REMARK VINA RESULT:      -6.6      2.356      4.188
REMARK  Name = 38026931
REMARK  12 active torsions:
REMARK  status: ('A' for Active; 'I' for Inactive)
REMARK    1  A    between atoms: O_4  and  C_33
REMARK    2  A    between atoms: O_4  and  C_34
REMARK    3  A    between atoms: N_5  and  C_16
REMARK    4  A    between atoms: C_8  and  C_12
REMARK    5  A    between atoms: C_9  and  C_16
REMARK    6  A    between atoms: C_11  and  C_15
REMARK    7  A    between atoms: C_12  and  C_17
REMARK    8  A    between atoms: C_12  and  C_18
REMARK    9  A    between atoms: C_13  and  C_19
REMARK   10  A    between atoms: C_15  and  C_20
REMARK   11  A    between atoms: C_25  and  C_27
REMARK   12  A    between atoms: C_26  and  C_28
REMARK                            x       y       z     vdW  Elec       q    Type
REMARK                         _______ _______ _______ _____ _____    ______ ____
ROOT
ATOM      8  C   UNL     1      -5.050 -12.073  15.896  0.00  0.00    +0.000 C 
ATOM      9  C   UNL     1      -4.245 -11.646  17.150  0.00  0.00    +0.032 C 
ATOM     10  C   UNL     1      -4.101 -12.541  14.783  0.00  0.00    +0.012 C 
ATOM     11  C   UNL     1      -3.102 -11.444  14.371  0.00  0.00    +0.023 C 
ATOM     13  C   UNL     1      -2.459 -10.785  15.575  0.00  0.00    -0.073 C 
ATOM     14  C   UNL     1      -2.977 -10.898  16.811  0.00  0.00    -0.022 C 
ATOM     19  C   UNL     1      -1.182 -10.032  15.333  0.00  0.00    +0.039 C 
ENDROOT
BRANCH   8  12
ATOM     12  C   UNL     1      -6.058 -13.181  16.219  0.00  0.00    -0.013 C 
ATOM     17  C   UNL     1      -6.828 -13.581  14.964  0.00  0.00    +0.007 C 
ATOM     18  C   UNL     1      -5.347 -14.387  16.824  0.00  0.00    +0.007 C 
ENDBRANCH   8  12
BRANCH  11  15
ATOM     15  C   UNL     1      -3.767 -10.401  13.465  0.00  0.00    +0.103 C 
BRANCH  15  20
ATOM      1  O   UNL     1      -2.214 -10.948  11.760  0.00  0.00    -0.276 OA
ATOM      3  O   UNL     1      -8.205  -8.920   8.430  0.00  0.00    -0.276 OA
ATOM      6  N   UNL     1      -4.391 -10.514  11.080  0.00  0.00    -0.298 N 
ATOM      7  N   UNL     1      -6.014  -9.288   9.106  0.00  0.00    -0.299 N 
ATOM     20  C   UNL     1      -3.381 -10.648  12.029  0.00  0.00    +0.216 C 
ATOM     21  C   UNL     1      -4.097 -10.734   9.661  0.00  0.00    +0.126 C 
ATOM     22  C   UNL     1      -5.804 -10.233  11.373  0.00  0.00    +0.126 C 
ATOM     23  C   UNL     1      -4.602  -9.570   8.812  0.00  0.00    +0.126 C 
ATOM     24  C   UNL     1      -6.308  -9.069  10.524  0.00  0.00    +0.126 C 
ATOM     26  C   UNL     1      -7.025  -9.157   8.157  0.00  0.00    +0.213 C 
ATOM     28  C   UNL     1      -6.622  -9.324   6.713  0.00  0.00    +0.109 C 
ENDBRANCH  15  20
ENDBRANCH  11  15
BRANCH   9  16
ATOM     16  C   UNL     1      -5.102 -10.796  18.095  0.00  0.00    +0.112 C 
BRANCH  16   5
ATOM      2  O   UNL     1      -7.844 -10.540  18.908  0.00  0.00    -0.270 OA
ATOM      5  N   UNL     1      -6.147 -10.136  17.377  0.00  0.00    -0.311 N 
ATOM     25  C   UNL     1      -7.458 -10.058  17.846  0.00  0.00    +0.244 C 
ATOM     35  H   UNL     1      -5.885  -9.633  16.536  0.00  0.00    +0.149 HD
BRANCH  25  27
ATOM     27  C   UNL     1      -8.433  -9.359  16.970  0.00  0.00    +0.037 A 
ATOM     29  C   UNL     1      -9.247  -8.355  17.493  0.00  0.00    +0.016 A 
ATOM     30  C   UNL     1      -8.536  -9.710  15.623  0.00  0.00    +0.016 A 
ATOM     31  C   UNL     1     -10.164  -7.701  16.670  0.00  0.00    +0.046 A 
ATOM     32  C   UNL     1      -9.452  -9.056  14.800  0.00  0.00    +0.046 A 
ATOM     33  C   UNL     1     -10.267  -8.052  15.324  0.00  0.00    +0.120 A 
BRANCH  33   4
ATOM      4  O   UNL     1     -11.161  -7.413  14.520  0.00  0.00    -0.495 OA
ATOM     34  C   UNL     1     -11.758  -6.222  15.032  0.00  0.00    +0.277 C 
ENDBRANCH  33   4
ENDBRANCH  25  27
ENDBRANCH  16   5
ENDBRANCH   9  16
TORSDOF 7
ENDMDL
MODEL 6
REMARK VINA RESULT:      -6.6     27.573     30.753
REMARK  Name = 38026931
REMARK  12 active torsions:
REMARK  status: ('A' for Active; 'I' for Inactive)
REMARK    1  A    between atoms: O_4  and  C_33
REMARK    2  A    between atoms: O_4  and  C_34
REMARK    3  A    between atoms: N_5  and  C_16
REMARK    4  A    between atoms: C_8  and  C_12
REMARK    5  A    between atoms: C_9  and  C_16
REMARK    6  A    between atoms: C_11  and  C_15
REMARK    7  A    between atoms: C_12  and  C_17
REMARK    8  A    between atoms: C_12  and  C_18
REMARK    9  A    between atoms: C_13  and  C_19
REMARK   10  A    between atoms: C_15  and  C_20
REMARK   11  A    between atoms: C_25  and  C_27
REMARK   12  A    between atoms: C_26  and  C_28
REMARK                            x       y       z     vdW  Elec       q    Type
REMARK                         _______ _______ _______ _____ _____    ______ ____
ROOT
ATOM      8  C   UNL     1      13.039   9.430  20.489  0.00  0.00    +0.000 C 
ATOM      9  C   UNL     1      12.118   8.461  19.705  0.00  0.00    +0.032 C 
ATOM     10  C   UNL     1      13.012  10.828  19.853  0.00  0.00    +0.012 C 
ATOM     11  C   UNL     1      13.465  10.808  18.381  0.00  0.00    +0.023 C 
ATOM     13  C   UNL     1      12.793   9.696  17.600  0.00  0.00    -0.073 C 
ATOM     14  C   UNL     1      12.185   8.663  18.209  0.00  0.00    -0.022 C 
ATOM     19  C   UNL     1      12.797   9.824  16.102  0.00  0.00    +0.039 C 
ENDROOT
BRANCH   8  12
ATOM     12  C   UNL     1      12.641   9.523  21.965  0.00  0.00    -0.013 C 
ATOM     17  C   UNL     1      13.498  10.561  22.682  0.00  0.00    +0.007 C 
ATOM     18  C   UNL     1      11.160   9.860  22.096  0.00  0.00    +0.007 C 
ENDBRANCH   8  12
BRANCH  11  15
ATOM     15  C   UNL     1      14.991  10.708  18.273  0.00  0.00    +0.103 C 
BRANCH  15  20
ATOM      1  O   UNL     1      15.386  13.041  18.135  0.00  0.00    -0.276 OA
ATOM      3  O   UNL     1      19.868  10.549  23.114  0.00  0.00    -0.276 OA
ATOM      6  N   UNL     1      16.455  11.909  19.857  0.00  0.00    -0.298 N 
ATOM      7  N   UNL     1      18.852  11.667  21.351  0.00  0.00    -0.299 N 
ATOM     20  C   UNL     1      15.623  11.994  18.743  0.00  0.00    +0.216 C 
ATOM     21  C   UNL     1      17.111  13.113  20.375  0.00  0.00    +0.126 C 
ATOM     22  C   UNL     1      16.698  10.694  20.648  0.00  0.00    +0.126 C 
ATOM     23  C   UNL     1      18.608  12.882  20.561  0.00  0.00    +0.126 C 
ATOM     24  C   UNL     1      18.196  10.463  20.833  0.00  0.00    +0.126 C 
ATOM     26  C   UNL     1      19.681  11.582  22.467  0.00  0.00    +0.213 C 
ATOM     28  C   UNL     1      20.377  12.852  22.888  0.00  0.00    +0.109 C 
ENDBRANCH  15  20
ENDBRANCH  11  15
BRANCH   9  16
ATOM     16  C   UNL     1      12.440   7.000  20.037  0.00  0.00    +0.112 C 
BRANCH  16   5
ATOM      2  O   UNL     1      14.538   6.708  18.099  0.00  0.00    -0.270 OA
ATOM      5  N   UNL     1      13.835   6.836  20.306  0.00  0.00    -0.311 N 
ATOM     25  C   UNL     1      14.791   6.700  19.301  0.00  0.00    +0.244 C 
ATOM     35  H   UNL     1      14.131   6.914  21.274  0.00  0.00    +0.149 HD
BRANCH  25  27
ATOM     27  C   UNL     1      16.196   6.512  19.746  0.00  0.00    +0.037 A 
ATOM     29  C   UNL     1      16.612   7.021  20.976  0.00  0.00    +0.016 A 
ATOM     30  C   UNL     1      17.099   5.828  18.932  0.00  0.00    +0.016 A 
ATOM     31  C   UNL     1      17.932   6.847  21.392  0.00  0.00    +0.046 A 
ATOM     32  C   UNL     1      18.419   5.653  19.348  0.00  0.00    +0.046 A 
ATOM     33  C   UNL     1      18.835   6.162  20.578  0.00  0.00    +0.120 A 
BRANCH  33   4
ATOM      4  O   UNL     1      20.123   5.991  20.984  0.00  0.00    -0.495 OA
ATOM     34  C   UNL     1      20.818   4.853  20.475  0.00  0.00    +0.277 C 
ENDBRANCH  33   4
ENDBRANCH  25  27
ENDBRANCH  16   5
ENDBRANCH   9  16
TORSDOF 7
ENDMDL
MODEL 7
REMARK VINA RESULT:      -6.4     19.488     22.375
REMARK  Name = 38026931
REMARK  12 active torsions:
REMARK  status: ('A' for Active; 'I' for Inactive)
REMARK    1  A    between atoms: O_4  and  C_33
REMARK    2  A    between atoms: O_4  and  C_34
REMARK    3  A    between atoms: N_5  and  C_16
REMARK    4  A    between atoms: C_8  and  C_12
REMARK    5  A    between atoms: C_9  and  C_16
REMARK    6  A    between atoms: C_11  and  C_15
REMARK    7  A    between atoms: C_12  and  C_17
REMARK    8  A    between atoms: C_12  and  C_18
REMARK    9  A    between atoms: C_13  and  C_19
REMARK   10  A    between atoms: C_15  and  C_20
REMARK   11  A    between atoms: C_25  and  C_27
REMARK   12  A    between atoms: C_26  and  C_28
REMARK                            x       y       z     vdW  Elec       q    Type
REMARK                         _______ _______ _______ _____ _____    ______ ____
ROOT
ATOM      8  C   UNL     1     -11.988  10.036  18.367  0.00  0.00    +0.000 C 
ATOM      9  C   UNL     1     -10.746   9.109  18.335  0.00  0.00    +0.032 C 
ATOM     10  C   UNL     1     -12.526  10.161  19.800  0.00  0.00    +0.012 C 
ATOM     11  C   UNL     1     -12.921   8.797  20.396  0.00  0.00    +0.023 C 
ATOM     13  C   UNL     1     -11.849   7.750  20.165  0.00  0.00    -0.073 C 
ATOM     14  C   UNL     1     -10.877   7.913  19.249  0.00  0.00    -0.022 C 
ATOM     19  C   UNL     1     -11.892   6.531  21.044  0.00  0.00    +0.039 C 
ENDROOT
BRANCH   8  12
ATOM     12  C   UNL     1     -11.674  11.427  17.807  0.00  0.00    -0.013 C 
ATOM     17  C   UNL     1     -12.708  11.824  16.759  0.00  0.00    +0.007 C 
ATOM     18  C   UNL     1     -11.623  12.454  18.933  0.00  0.00    +0.007 C 
ENDBRANCH   8  12
BRANCH  11  15
ATOM     15  C   UNL     1     -14.273   8.325  19.851  0.00  0.00    +0.103 C 
BRANCH  15  20
ATOM      1  O   UNL     1     -15.663   9.511  21.361  0.00  0.00    -0.276 OA
ATOM      3  O   UNL     1     -16.353   2.593  23.024  0.00  0.00    -0.276 OA
ATOM      6  N   UNL     1     -15.835   7.196  21.394  0.00  0.00    -0.298 N 
ATOM      7  N   UNL     1     -16.131   4.905  23.036  0.00  0.00    -0.299 N 
ATOM     20  C   UNL     1     -15.319   8.405  20.934  0.00  0.00    +0.216 C 
ATOM     21  C   UNL     1     -16.853   7.186  22.448  0.00  0.00    +0.126 C 
ATOM     22  C   UNL     1     -15.502   5.869  20.856  0.00  0.00    +0.126 C 
ATOM     23  C   UNL     1     -16.465   6.232  23.573  0.00  0.00    +0.126 C 
ATOM     24  C   UNL     1     -15.113   4.914  21.982  0.00  0.00    +0.126 C 
ATOM     26  C   UNL     1     -16.649   3.695  23.493  0.00  0.00    +0.213 C 
ATOM     28  C   UNL     1     -17.635   3.771  24.633  0.00  0.00    +0.109 C 
ENDBRANCH  15  20
ENDBRANCH  11  15
BRANCH   9  16
ATOM     16  C   UNL     1     -10.449   8.631  16.910  0.00  0.00    +0.112 C 
BRANCH  16   5
ATOM      2  O   UNL     1     -11.588   9.395  14.387  0.00  0.00    -0.270 OA
ATOM      5  N   UNL     1     -11.623   8.085  16.302  0.00  0.00    -0.311 N 
ATOM     25  C   UNL     1     -12.109   8.516  15.069  0.00  0.00    +0.244 C 
ATOM     35  H   UNL     1     -12.054   7.291  16.762  0.00  0.00    +0.149 HD
BRANCH  25  27
ATOM     27  C   UNL     1     -13.355   7.866  14.586  0.00  0.00    +0.037 A 
ATOM     29  C   UNL     1     -13.367   7.209  13.356  0.00  0.00    +0.016 A 
ATOM     30  C   UNL     1     -14.513   7.916  15.363  0.00  0.00    +0.016 A 
ATOM     31  C   UNL     1     -14.537   6.601  12.902  0.00  0.00    +0.046 A 
ATOM     32  C   UNL     1     -15.683   7.308  14.909  0.00  0.00    +0.046 A 
ATOM     33  C   UNL     1     -15.695   6.651  13.678  0.00  0.00    +0.120 A 
BRANCH  33   4
ATOM      4  O   UNL     1     -16.838   6.056  13.236  0.00  0.00    -0.495 OA
ATOM     34  C   UNL     1     -16.732   5.230  12.077  0.00  0.00    +0.277 C 
ENDBRANCH  33   4
ENDBRANCH  25  27
ENDBRANCH  16   5
ENDBRANCH   9  16
TORSDOF 7
ENDMDL
MODEL 8
REMARK VINA RESULT:      -6.3     20.105     22.439
REMARK  Name = 38026931
REMARK  12 active torsions:
REMARK  status: ('A' for Active; 'I' for Inactive)
REMARK    1  A    between atoms: O_4  and  C_33
REMARK    2  A    between atoms: O_4  and  C_34
REMARK    3  A    between atoms: N_5  and  C_16
REMARK    4  A    between atoms: C_8  and  C_12
REMARK    5  A    between atoms: C_9  and  C_16
REMARK    6  A    between atoms: C_11  and  C_15
REMARK    7  A    between atoms: C_12  and  C_17
REMARK    8  A    between atoms: C_12  and  C_18
REMARK    9  A    between atoms: C_13  and  C_19
REMARK   10  A    between atoms: C_15  and  C_20
REMARK   11  A    between atoms: C_25  and  C_27
REMARK   12  A    between atoms: C_26  and  C_28
REMARK                            x       y       z     vdW  Elec       q    Type
REMARK                         _______ _______ _______ _____ _____    ______ ____
ROOT
ATOM      8  C   UNL     1     -10.791  10.508  17.122  0.00  0.00    +0.000 C 
ATOM      9  C   UNL     1     -10.286   9.082  16.785  0.00  0.00    +0.032 C 
ATOM     10  C   UNL     1     -10.577  10.815  18.611  0.00  0.00    +0.012 C 
ATOM     11  C   UNL     1     -11.306   9.810  19.524  0.00  0.00    +0.023 C 
ATOM     13  C   UNL     1     -11.070   8.378  19.088  0.00  0.00    -0.073 C 
ATOM     14  C   UNL     1     -10.601   8.073  17.865  0.00  0.00    -0.022 C 
ATOM     19  C   UNL     1     -11.342   7.307  20.106  0.00  0.00    +0.039 C 
ENDROOT
BRANCH   8  12
ATOM     12  C   UNL     1     -10.098  11.573  16.267  0.00  0.00    -0.013 C 
ATOM     17  C   UNL     1     -11.118  12.311  15.406  0.00  0.00    +0.007 C 
ATOM     18  C   UNL     1      -9.332  12.550  17.153  0.00  0.00    +0.007 C 
ENDBRANCH   8  12
BRANCH  11  15
ATOM     15  C   UNL     1     -12.805  10.120  19.601  0.00  0.00    +0.103 C 
BRANCH  15  20
ATOM      1  O   UNL     1     -12.832  10.558  21.930  0.00  0.00    -0.276 OA
ATOM      3  O   UNL     1     -16.923   4.781  20.937  0.00  0.00    -0.276 OA
ATOM      6  N   UNL     1     -14.286   8.916  21.167  0.00  0.00    -0.298 N 
ATOM      7  N   UNL     1     -15.421   6.376  21.707  0.00  0.00    -0.299 N 
ATOM     20  C   UNL     1     -13.305   9.891  21.005  0.00  0.00    +0.216 C 
ATOM     21  C   UNL     1     -14.822   8.631  22.500  0.00  0.00    +0.126 C 
ATOM     22  C   UNL     1     -14.922   8.159  20.079  0.00  0.00    +0.126 C 
ATOM     23  C   UNL     1     -14.786   7.134  22.795  0.00  0.00    +0.126 C 
ATOM     24  C   UNL     1     -14.885   6.662  20.373  0.00  0.00    +0.126 C 
ATOM     26  C   UNL     1     -16.406   5.404  21.868  0.00  0.00    +0.213 C 
ATOM     28  C   UNL     1     -16.847   5.118  23.282  0.00  0.00    +0.109 C 
ENDBRANCH  15  20
ENDBRANCH  11  15
BRANCH   9  16
ATOM     16  C   UNL     1     -10.856   8.594  15.449  0.00  0.00    +0.112 C 
BRANCH  16   5
ATOM      2  O   UNL     1     -13.161   9.148  13.830  0.00  0.00    -0.270 OA
ATOM      5  N   UNL     1     -12.170   8.058  15.622  0.00  0.00    -0.311 N 
ATOM     25  C   UNL     1     -13.238   8.381  14.787  0.00  0.00    +0.244 C 
ATOM     35  H   UNL     1     -12.288   7.346  16.335  0.00  0.00    +0.149 HD
BRANCH  25  27
ATOM     27  C   UNL     1     -14.546   7.760  15.116  0.00  0.00    +0.037 A 
ATOM     29  C   UNL     1     -15.191   6.954  14.179  0.00  0.00    +0.016 A 
ATOM     30  C   UNL     1     -15.131   7.986  16.363  0.00  0.00    +0.016 A 
ATOM     31  C   UNL     1     -16.421   6.372  14.488  0.00  0.00    +0.046 A 
ATOM     32  C   UNL     1     -16.361   7.405  16.672  0.00  0.00    +0.046 A 
ATOM     33  C   UNL     1     -17.006   6.598  15.734  0.00  0.00    +0.120 A 
BRANCH  33   4
ATOM      4  O   UNL     1     -18.205   6.030  16.036  0.00  0.00    -0.495 OA
ATOM     34  C   UNL     1     -18.439   5.697  17.404  0.00  0.00    +0.277 C 
ENDBRANCH  33   4
ENDBRANCH  25  27
ENDBRANCH  16   5
ENDBRANCH   9  16
TORSDOF 7
ENDMDL
MODEL 9
REMARK VINA RESULT:      -6.3     19.838     22.531
REMARK  Name = 38026931
REMARK  12 active torsions:
REMARK  status: ('A' for Active; 'I' for Inactive)
REMARK    1  A    between atoms: O_4  and  C_33
REMARK    2  A    between atoms: O_4  and  C_34
REMARK    3  A    between atoms: N_5  and  C_16
REMARK    4  A    between atoms: C_8  and  C_12
REMARK    5  A    between atoms: C_9  and  C_16
REMARK    6  A    between atoms: C_11  and  C_15
REMARK    7  A    between atoms: C_12  and  C_17
REMARK    8  A    between atoms: C_12  and  C_18
REMARK    9  A    between atoms: C_13  and  C_19
REMARK   10  A    between atoms: C_15  and  C_20
REMARK   11  A    between atoms: C_25  and  C_27
REMARK   12  A    between atoms: C_26  and  C_28
REMARK                            x       y       z     vdW  Elec       q    Type
REMARK                         _______ _______ _______ _____ _____    ______ ____
ROOT
ATOM      8  C   UNL     1     -13.007   8.061  20.510  0.00  0.00    +0.000 C 
ATOM      9  C   UNL     1     -12.325   9.221  21.279  0.00  0.00    +0.032 C 
ATOM     10  C   UNL     1     -12.046   7.471  19.468  0.00  0.00    +0.012 C 
ATOM     11  C   UNL     1     -11.576   8.524  18.446  0.00  0.00    +0.023 C 
ATOM     13  C   UNL     1     -11.136   9.808  19.122  0.00  0.00    -0.073 C 
ATOM     14  C   UNL     1     -11.469  10.095  20.393  0.00  0.00    -0.022 C 
ATOM     19  C   UNL     1     -10.265  10.732  18.319  0.00  0.00    +0.039 C 
ENDROOT
BRANCH   8  12
ATOM     12  C   UNL     1     -13.488   6.957  21.456  0.00  0.00    -0.013 C 
ATOM     17  C   UNL     1     -14.826   6.397  20.983  0.00  0.00    +0.007 C 
ATOM     18  C   UNL     1     -12.444   5.850  21.556  0.00  0.00    +0.007 C 
ENDBRANCH   8  12
BRANCH  11  15
ATOM     15  C   UNL     1     -12.660   8.801  17.398  0.00  0.00    +0.103 C 
BRANCH  15  20
ATOM      1  O   UNL     1     -10.935   8.415  15.819  0.00  0.00    -0.276 OA
ATOM      3  O   UNL     1     -17.072   8.230  12.159  0.00  0.00    -0.276 OA
ATOM      6  N   UNL     1     -13.113   8.145  15.062  0.00  0.00    -0.298 N 
ATOM      7  N   UNL     1     -14.896   8.566  12.900  0.00  0.00    -0.299 N 
ATOM     20  C   UNL     1     -12.151   8.436  16.026  0.00  0.00    +0.216 C 
ATOM     21  C   UNL     1     -12.702   7.785  13.702  0.00  0.00    +0.126 C 
ATOM     22  C   UNL     1     -14.563   8.088  15.295  0.00  0.00    +0.126 C 
ATOM     23  C   UNL     1     -13.446   8.621  12.666  0.00  0.00    +0.126 C 
ATOM     24  C   UNL     1     -15.308   8.926  14.260  0.00  0.00    +0.126 C 
ATOM     26  C   UNL     1     -15.859   8.271  11.936  0.00  0.00    +0.213 C 
ATOM     28  C   UNL     1     -15.354   7.986  10.544  0.00  0.00    +0.109 C 
ENDBRANCH  15  20
ENDBRANCH  11  15
BRANCH   9  16
ATOM     16  C   UNL     1     -13.360  10.088  22.005  0.00  0.00    +0.112 C 
BRANCH  16   5
ATOM      2  O   UNL     1     -11.640  11.766  23.576  0.00  0.00    -0.270 OA
ATOM      5  N   UNL     1     -13.170  10.028  23.420  0.00  0.00    -0.311 N 
ATOM     25  C   UNL     1     -12.311  10.885  24.107  0.00  0.00    +0.244 C 
ATOM     35  H   UNL     1     -13.761   9.388  23.940  0.00  0.00    +0.149 HD
BRANCH  25  27
ATOM     27  C   UNL     1     -12.205  10.678  25.574  0.00  0.00    +0.037 A 
ATOM     29  C   UNL     1     -13.356  10.652  26.360  0.00  0.00    +0.016 A 
ATOM     30  C   UNL     1     -10.952  10.511  26.166  0.00  0.00    +0.016 A 
ATOM     31  C   UNL     1     -13.256  10.460  27.739  0.00  0.00    +0.046 A 
ATOM     32  C   UNL     1     -10.851  10.318  27.544  0.00  0.00    +0.046 A 
ATOM     33  C   UNL     1     -12.003  10.293  28.330  0.00  0.00    +0.120 A 
BRANCH  33   4
ATOM      4  O   UNL     1     -11.905  10.105  29.675  0.00  0.00    -0.495 OA
ATOM     34  C   UNL     1     -11.270  11.135  30.430  0.00  0.00    +0.277 C 
ENDBRANCH  33   4
ENDBRANCH  25  27
ENDBRANCH  16   5
ENDBRANCH   9  16
TORSDOF 7
ENDMDL
MODEL 10
REMARK VINA RESULT:      -6.3     28.132     31.232
REMARK  Name = 38026931
REMARK  12 active torsions:
REMARK  status: ('A' for Active; 'I' for Inactive)
REMARK    1  A    between atoms: O_4  and  C_33
REMARK    2  A    between atoms: O_4  and  C_34
REMARK    3  A    between atoms: N_5  and  C_16
REMARK    4  A    between atoms: C_8  and  C_12
REMARK    5  A    between atoms: C_9  and  C_16
REMARK    6  A    between atoms: C_11  and  C_15
REMARK    7  A    between atoms: C_12  and  C_17
REMARK    8  A    between atoms: C_12  and  C_18
REMARK    9  A    between atoms: C_13  and  C_19
REMARK   10  A    between atoms: C_15  and  C_20
REMARK   11  A    between atoms: C_25  and  C_27
REMARK   12  A    between atoms: C_26  and  C_28
REMARK                            x       y       z     vdW  Elec       q    Type
REMARK                         _______ _______ _______ _____ _____    ______ ____
ROOT
ATOM      8  C   UNL     1      12.985   9.060  20.577  0.00  0.00    +0.000 C 
ATOM      9  C   UNL     1      12.899   7.969  19.479  0.00  0.00    +0.032 C 
ATOM     10  C   UNL     1      12.633  10.436  19.994  0.00  0.00    +0.012 C 
ATOM     11  C   UNL     1      13.567  10.834  18.836  0.00  0.00    +0.023 C 
ATOM     13  C   UNL     1      13.746   9.704  17.842  0.00  0.00    -0.073 C 
ATOM     14  C   UNL     1      13.429   8.432  18.143  0.00  0.00    -0.022 C 
ATOM     19  C   UNL     1      14.254  10.077  16.477  0.00  0.00    +0.039 C 
ENDROOT
BRANCH   8  12
ATOM     12  C   UNL     1      12.066   8.747  21.762  0.00  0.00    -0.013 C 
ATOM     17  C   UNL     1      11.826  10.003  22.594  0.00  0.00    +0.007 C 
ATOM     18  C   UNL     1      10.745   8.164  21.271  0.00  0.00    +0.007 C 
ENDBRANCH   8  12
BRANCH  11  15
ATOM     15  C   UNL     1      14.923  11.322  19.361  0.00  0.00    +0.103 C 
BRANCH  15  20
ATOM      1  O   UNL     1      14.273  13.600  19.454  0.00  0.00    -0.276 OA
ATOM      3  O   UNL     1      17.692  12.247  25.583  0.00  0.00    -0.276 OA
ATOM      6  N   UNL     1      15.166  12.696  21.397  0.00  0.00    -0.298 N 
ATOM      7  N   UNL     1      16.861  13.166  23.619  0.00  0.00    -0.299 N 
ATOM     20  C   UNL     1      14.754  12.643  20.068  0.00  0.00    +0.216 C 
ATOM     21  C   UNL     1      15.039  13.944  22.155  0.00  0.00    +0.126 C 
ATOM     22  C   UNL     1      15.672  11.558  22.178  0.00  0.00    +0.126 C 
ATOM     23  C   UNL     1      16.354  14.304  22.839  0.00  0.00    +0.126 C 
ATOM     24  C   UNL     1      16.988  11.918  22.862  0.00  0.00    +0.126 C 
ATOM     26  C   UNL     1      17.270  13.218  24.950  0.00  0.00    +0.213 C 
ATOM     28  C   UNL     1      17.177  14.560  25.633  0.00  0.00    +0.109 C 
ENDBRANCH  15  20
ENDBRANCH  11  15
BRANCH   9  16
ATOM     16  C   UNL     1      13.635   6.694  19.906  0.00  0.00    +0.112 C 
BRANCH  16   5
ATOM      2  O   UNL     1      16.166   5.970  18.760  0.00  0.00    -0.270 OA
ATOM      5  N   UNL     1      14.929   7.006  20.428  0.00  0.00    -0.311 N 
ATOM     25  C   UNL     1      16.113   6.614  19.805  0.00  0.00    +0.244 C 
ATOM     35  H   UNL     1      14.966   7.615  21.239  0.00  0.00    +0.149 HD
BRANCH  25  27
ATOM     27  C   UNL     1      17.376   6.994  20.488  0.00  0.00    +0.037 A 
ATOM     29  C   UNL     1      17.447   8.184  21.211  0.00  0.00    +0.016 A 
ATOM     30  C   UNL     1      18.492   6.161  20.403  0.00  0.00    +0.016 A 
ATOM     31  C   UNL     1      18.635   8.542  21.850  0.00  0.00    +0.046 A 
ATOM     32  C   UNL     1      19.679   6.518  21.042  0.00  0.00    +0.046 A 
ATOM     33  C   UNL     1      19.751   7.709  21.765  0.00  0.00    +0.120 A 
BRANCH  33   4
ATOM      4  O   UNL     1      20.909   8.057  22.389  0.00  0.00    -0.495 OA
ATOM     34  C   UNL     1      20.800   8.595  23.707  0.00  0.00    +0.277 C 
ENDBRANCH  33   4
ENDBRANCH  25  27
ENDBRANCH  16   5
ENDBRANCH   9  16
TORSDOF 7
ENDMDL
