MODEL 1
REMARK VINA RESULT:      -6.6      0.000      0.000
REMARK  Name = 75367637
REMARK  3 active torsions:
REMARK  status: ('A' for Active; 'I' for Inactive)
REMARK    1  A    between atoms: O_2  and  C_9
REMARK    2  A    between atoms: O_2  and  C_18
REMARK    3  A    between atoms: C_20  and  C_23
REMARK                            x       y       z     vdW  Elec       q    Type
REMARK                         _______ _______ _______ _____ _____    ______ ____
ROOT
ATOM      1  O   UNL     1      11.286   6.955  20.556  0.00  0.00    -0.375 OA
ATOM      3  O   UNL     1      11.226  13.699  22.862  0.00  0.00    -0.377 OA
ATOM      4  O   UNL     1      14.692  10.130  23.104  0.00  0.00    -0.252 OA
ATOM      5  N   UNL     1      12.952   9.077  21.998  0.00  0.00    -0.280 N 
ATOM      6  N   UNL     1      12.810  11.377  22.650  0.00  0.00    -0.281 N 
ATOM      8  C   UNL     1      13.778   7.901  21.694  0.00  0.00    +0.156 C 
ATOM      9  C   UNL     1      13.695   7.539  20.212  0.00  0.00    +0.218 C 
ATOM     10  C   UNL     1      11.494   8.875  21.989  0.00  0.00    +0.137 C 
ATOM     11  C   UNL     1      13.557  10.189  22.613  0.00  0.00    +0.305 C 
ATOM     12  C   UNL     1      12.487   6.674  19.849  0.00  0.00    +0.206 C 
ATOM     13  C   UNL     1      13.006  12.312  23.756  0.00  0.00    +0.137 C 
ATOM     14  C   UNL     1      12.208  11.989  21.460  0.00  0.00    +0.137 C 
ATOM     15  C   UNL     1      10.958   8.334  20.669  0.00  0.00    +0.179 C 
ATOM     16  C   UNL     1      11.712  13.060  24.046  0.00  0.00    +0.179 C 
ATOM     17  C   UNL     1      10.941  12.741  21.837  0.00  0.00    +0.179 C 
ENDROOT
BRANCH   9   2
ATOM      2  O   UNL     1      14.869   6.827  19.820  0.00  0.00    -0.469 OA
BRANCH   2  18
ATOM      7  N   UNL     1      16.266   8.607  20.326  0.00  0.00    -0.218 NA
ATOM     18  C   UNL     1      16.053   7.272  20.339  0.00  0.00    +0.215 A 
ATOM     19  C   UNL     1      16.957   6.347  20.838  0.00  0.00    +0.067 A 
ATOM     20  C   UNL     1      17.442   9.032  20.841  0.00  0.00    +0.042 A 
ATOM     21  C   UNL     1      18.155   6.823  21.360  0.00  0.00    +0.007 A 
ATOM     22  C   UNL     1      18.409   8.190  21.365  0.00  0.00    +0.023 A 
ATOM     23  C   UNL     1      17.683  10.505  20.827  0.00  0.00    +0.066 C 
ENDBRANCH   2  18
ENDBRANCH   9   2
TORSDOF 2
ENDMDL
MODEL 2
REMARK VINA RESULT:      -6.6      1.806      2.464
REMARK  Name = 75367637
REMARK  3 active torsions:
REMARK  status: ('A' for Active; 'I' for Inactive)
REMARK    1  A    between atoms: O_2  and  C_9
REMARK    2  A    between atoms: O_2  and  C_18
REMARK    3  A    between atoms: C_20  and  C_23
REMARK                            x       y       z     vdW  Elec       q    Type
REMARK                         _______ _______ _______ _____ _____    ______ ____
ROOT
ATOM      1  O   UNL     1      13.641  10.739  18.314  0.00  0.00    -0.375 OA
ATOM      3  O   UNL     1      11.889  13.137  24.794  0.00  0.00    -0.377 OA
ATOM      4  O   UNL     1      11.572   8.620  22.718  0.00  0.00    -0.252 OA
ATOM      5  N   UNL     1      12.480   9.901  21.016  0.00  0.00    -0.280 N 
ATOM      6  N   UNL     1      12.009  10.835  23.171  0.00  0.00    -0.281 N 
ATOM      8  C   UNL     1      12.738   8.718  20.184  0.00  0.00    +0.156 C 
ATOM      9  C   UNL     1      14.178   8.708  19.673  0.00  0.00    +0.218 C 
ATOM     10  C   UNL     1      12.383  11.190  20.314  0.00  0.00    +0.137 C 
ATOM     11  C   UNL     1      11.995   9.715  22.325  0.00  0.00    +0.305 C 
ATOM     12  C   UNL     1      14.395   9.538  18.407  0.00  0.00    +0.206 C 
ATOM     13  C   UNL     1      10.996  10.954  24.218  0.00  0.00    +0.137 C 
ATOM     14  C   UNL     1      13.205  11.649  23.412  0.00  0.00    +0.137 C 
ATOM     15  C   UNL     1      13.620  11.535  19.493  0.00  0.00    +0.179 C 
ATOM     16  C   UNL     1      10.689  12.422  24.486  0.00  0.00    +0.179 C 
ATOM     17  C   UNL     1      12.813  13.090  23.701  0.00  0.00    +0.179 C 
ENDROOT
BRANCH   9   2
ATOM      2  O   UNL     1      14.583   7.369  19.387  0.00  0.00    -0.469 OA
BRANCH   2  18
ATOM      7  N   UNL     1      16.520   7.804  20.584  0.00  0.00    -0.218 NA
ATOM     18  C   UNL     1      15.888   7.057  19.651  0.00  0.00    +0.215 A 
ATOM     19  C   UNL     1      16.482   6.014  18.959  0.00  0.00    +0.067 A 
ATOM     20  C   UNL     1      17.810   7.486  20.834  0.00  0.00    +0.042 A 
ATOM     21  C   UNL     1      17.810   5.717  19.244  0.00  0.00    +0.007 A 
ATOM     22  C   UNL     1      18.493   6.462  20.198  0.00  0.00    +0.023 A 
ATOM     23  C   UNL     1      18.514   8.309  21.861  0.00  0.00    +0.066 C 
ENDBRANCH   2  18
ENDBRANCH   9   2
TORSDOF 2
ENDMDL
MODEL 3
REMARK VINA RESULT:      -6.2     26.710     29.014
REMARK  Name = 75367637
REMARK  3 active torsions:
REMARK  status: ('A' for Active; 'I' for Inactive)
REMARK    1  A    between atoms: O_2  and  C_9
REMARK    2  A    between atoms: O_2  and  C_18
REMARK    3  A    between atoms: C_20  and  C_23
REMARK                            x       y       z     vdW  Elec       q    Type
REMARK                         _______ _______ _______ _____ _____    ______ ____
ROOT
ATOM      1  O   UNL     1      -1.265 -10.820  15.079  0.00  0.00    -0.375 OA
ATOM      3  O   UNL     1      -4.730  -9.305   9.037  0.00  0.00    -0.377 OA
ATOM      4  O   UNL     1      -5.162 -13.073  12.266  0.00  0.00    -0.252 OA
ATOM      5  N   UNL     1      -3.466 -11.798  13.194  0.00  0.00    -0.280 N 
ATOM      6  N   UNL     1      -4.589 -11.120  11.190  0.00  0.00    -0.281 N 
ATOM      8  C   UNL     1      -3.461 -12.596  14.427  0.00  0.00    +0.156 C 
ATOM      9  C   UNL     1      -3.534 -11.700  15.663  0.00  0.00    +0.218 C 
ATOM     10  C   UNL     1      -2.237 -11.048  12.891  0.00  0.00    +0.137 C 
ATOM     11  C   UNL     1      -4.451 -12.060  12.222  0.00  0.00    +0.305 C 
ATOM     12  C   UNL     1      -2.179 -11.152  16.115  0.00  0.00    +0.206 C 
ATOM     13  C   UNL     1      -5.036 -11.564   9.871  0.00  0.00    +0.137 C 
ATOM     14  C   UNL     1      -4.783  -9.684  11.426  0.00  0.00    +0.137 C 
ATOM     15  C   UNL     1      -1.819 -10.085  13.995  0.00  0.00    +0.179 C 
ATOM     16  C   UNL     1      -4.432 -10.682   8.787  0.00  0.00    +0.179 C 
ATOM     17  C   UNL     1      -4.180  -8.876  10.287  0.00  0.00    +0.179 C 
ENDROOT
BRANCH   9   2
ATOM      2  O   UNL     1      -4.093 -12.427  16.757  0.00  0.00    -0.469 OA
BRANCH   2  18
ATOM      7  N   UNL     1      -5.817 -10.891  16.970  0.00  0.00    -0.218 NA
ATOM     18  C   UNL     1      -4.952 -11.740  17.570  0.00  0.00    +0.215 A 
ATOM     19  C   UNL     1      -4.888 -11.943  18.939  0.00  0.00    +0.067 A 
ATOM     20  C   UNL     1      -6.659 -10.217  17.785  0.00  0.00    +0.042 A 
ATOM     21  C   UNL     1      -5.770 -11.232  19.745  0.00  0.00    +0.007 A 
ATOM     22  C   UNL     1      -6.675 -10.351  19.164  0.00  0.00    +0.023 A 
ATOM     23  C   UNL     1      -7.615  -9.278  17.129  0.00  0.00    +0.066 C 
ENDBRANCH   2  18
ENDBRANCH   9   2
TORSDOF 2
ENDMDL
MODEL 4
REMARK VINA RESULT:      -6.2      2.835      3.803
REMARK  Name = 75367637
REMARK  3 active torsions:
REMARK  status: ('A' for Active; 'I' for Inactive)
REMARK    1  A    between atoms: O_2  and  C_9
REMARK    2  A    between atoms: O_2  and  C_18
REMARK    3  A    between atoms: C_20  and  C_23
REMARK                            x       y       z     vdW  Elec       q    Type
REMARK                         _______ _______ _______ _____ _____    ______ ____
ROOT
ATOM      1  O   UNL     1      10.609   7.700  22.543  0.00  0.00    -0.375 OA
ATOM      3  O   UNL     1      11.215  14.763  23.281  0.00  0.00    -0.377 OA
ATOM      4  O   UNL     1      14.397  11.304  21.632  0.00  0.00    -0.252 OA
ATOM      5  N   UNL     1      12.517  10.059  22.158  0.00  0.00    -0.280 N 
ATOM      6  N   UNL     1      12.545  12.442  22.393  0.00  0.00    -0.281 N 
ATOM      8  C   UNL     1      13.078   8.845  21.549  0.00  0.00    +0.156 C 
ATOM      9  C   UNL     1      12.083   8.203  20.584  0.00  0.00    +0.218 C 
ATOM     10  C   UNL     1      11.461   9.861  23.163  0.00  0.00    +0.137 C 
ATOM     11  C   UNL     1      13.226  11.269  22.034  0.00  0.00    +0.305 C 
ATOM     12  C   UNL     1      11.063   7.286  21.262  0.00  0.00    +0.206 C 
ATOM     13  C   UNL     1      13.301  13.574  22.928  0.00  0.00    +0.137 C 
ATOM     14  C   UNL     1      11.234  12.813  21.850  0.00  0.00    +0.137 C 
ATOM     15  C   UNL     1      10.262   9.075  22.647  0.00  0.00    +0.179 C 
ATOM     16  C   UNL     1      12.440  14.366  23.903  0.00  0.00    +0.179 C 
ATOM     17  C   UNL     1      10.450  13.625  22.870  0.00  0.00    +0.179 C 
ENDROOT
BRANCH   9   2
ATOM      2  O   UNL     1      12.782   7.427  19.611  0.00  0.00    -0.469 OA
BRANCH   2  18
ATOM      7  N   UNL     1      11.764   8.264  17.703  0.00  0.00    -0.218 NA
ATOM     18  C   UNL     1      12.908   7.980  18.366  0.00  0.00    +0.215 A 
ATOM     19  C   UNL     1      14.177   8.211  17.860  0.00  0.00    +0.067 A 
ATOM     20  C   UNL     1      11.903   8.809  16.474  0.00  0.00    +0.042 A 
ATOM     21  C   UNL     1      14.279   8.772  16.591  0.00  0.00    +0.007 A 
ATOM     22  C   UNL     1      13.125   9.080  15.879  0.00  0.00    +0.023 A 
ATOM     23  C   UNL     1      10.644   9.123  15.737  0.00  0.00    +0.066 C 
ENDBRANCH   2  18
ENDBRANCH   9   2
TORSDOF 2
ENDMDL
MODEL 5
REMARK VINA RESULT:      -6.0     27.715     29.107
REMARK  Name = 75367637
REMARK  3 active torsions:
REMARK  status: ('A' for Active; 'I' for Inactive)
REMARK    1  A    between atoms: O_2  and  C_9
REMARK    2  A    between atoms: O_2  and  C_18
REMARK    3  A    between atoms: C_20  and  C_23
REMARK                            x       y       z     vdW  Elec       q    Type
REMARK                         _______ _______ _______ _____ _____    ______ ____
ROOT
ATOM      1  O   UNL     1      -3.399 -14.234  14.784  0.00  0.00    -0.375 OA
ATOM      3  O   UNL     1      -9.031 -11.777  18.398  0.00  0.00    -0.377 OA
ATOM      4  O   UNL     1      -4.803  -9.588  16.933  0.00  0.00    -0.252 OA
ATOM      5  N   UNL     1      -4.560 -11.750  16.140  0.00  0.00    -0.280 N 
ATOM      6  N   UNL     1      -6.548 -11.051  17.278  0.00  0.00    -0.281 N 
ATOM      8  C   UNL     1      -3.352 -11.399  15.382  0.00  0.00    +0.156 C 
ATOM      9  C   UNL     1      -3.450 -11.880  13.935  0.00  0.00    +0.218 C 
ATOM     10  C   UNL     1      -4.731 -13.171  16.481  0.00  0.00    +0.137 C 
ATOM     11  C   UNL     1      -5.273 -10.725  16.791  0.00  0.00    +0.305 C 
ATOM     12  C   UNL     1      -3.044 -13.341  13.737  0.00  0.00    +0.206 C 
ATOM     13  C   UNL     1      -7.059 -10.365  18.463  0.00  0.00    +0.137 C 
ATOM     14  C   UNL     1      -7.596 -11.662  16.453  0.00  0.00    +0.137 C 
ATOM     15  C   UNL     1      -4.729 -14.097  15.271  0.00  0.00    +0.179 C 
ATOM     16  C   UNL     1      -7.988 -11.285  19.244  0.00  0.00    +0.179 C 
ATOM     17  C   UNL     1      -8.498 -12.539  17.309  0.00  0.00    +0.179 C 
ENDROOT
BRANCH   9   2
ATOM      2  O   UNL     1      -2.613 -11.081  13.099  0.00  0.00    -0.469 OA
BRANCH   2  18
ATOM      7  N   UNL     1      -4.551 -10.063  12.337  0.00  0.00    -0.218 NA
ATOM     18  C   UNL     1      -3.242 -10.335  12.141  0.00  0.00    +0.215 A 
ATOM     19  C   UNL     1      -2.518  -9.910  11.039  0.00  0.00    +0.067 A 
ATOM     20  C   UNL     1      -5.161  -9.326  11.382  0.00  0.00    +0.042 A 
ATOM     21  C   UNL     1      -3.180  -9.154  10.077  0.00  0.00    +0.007 A 
ATOM     22  C   UNL     1      -4.526  -8.852  10.245  0.00  0.00    +0.023 A 
ATOM     23  C   UNL     1      -6.608  -9.024  11.593  0.00  0.00    +0.066 C 
ENDBRANCH   2  18
ENDBRANCH   9   2
TORSDOF 2
ENDMDL
MODEL 6
REMARK VINA RESULT:      -5.9      2.896      6.942
REMARK  Name = 75367637
REMARK  3 active torsions:
REMARK  status: ('A' for Active; 'I' for Inactive)
REMARK    1  A    between atoms: O_2  and  C_9
REMARK    2  A    between atoms: O_2  and  C_18
REMARK    3  A    between atoms: C_20  and  C_23
REMARK                            x       y       z     vdW  Elec       q    Type
REMARK                         _______ _______ _______ _____ _____    ______ ____
ROOT
ATOM      1  O   UNL     1      15.519  10.025  22.290  0.00  0.00    -0.375 OA
ATOM      3  O   UNL     1      14.249  10.186  15.278  0.00  0.00    -0.377 OA
ATOM      4  O   UNL     1      11.447   8.745  19.136  0.00  0.00    -0.252 OA
ATOM      5  N   UNL     1      13.416   9.411  20.156  0.00  0.00    -0.280 N 
ATOM      6  N   UNL     1      13.111   9.592  17.788  0.00  0.00    -0.281 N 
ATOM      8  C   UNL     1      12.829   9.296  21.497  0.00  0.00    +0.156 C 
ATOM      9  C   UNL     1      13.075  10.562  22.317  0.00  0.00    +0.218 C 
ATOM     10  C   UNL     1      14.883   9.344  20.073  0.00  0.00    +0.137 C 
ATOM     11  C   UNL     1      12.586   9.221  19.035  0.00  0.00    +0.305 C 
ATOM     12  C   UNL     1      14.437  10.598  23.012  0.00  0.00    +0.206 C 
ATOM     13  C   UNL     1      12.680   8.877  16.587  0.00  0.00    +0.137 C 
ATOM     14  C   UNL     1      13.678  10.918  17.512  0.00  0.00    +0.137 C 
ATOM     15  C   UNL     1      15.594  10.393  20.918  0.00  0.00    +0.179 C 
ATOM     16  C   UNL     1      13.802   8.857  15.558  0.00  0.00    +0.179 C 
ATOM     17  C   UNL     1      14.767  10.816  16.455  0.00  0.00    +0.179 C 
ENDROOT
BRANCH   9   2
ATOM      2  O   UNL     1      12.072  10.690  23.325  0.00  0.00    -0.469 OA
BRANCH   2  18
ATOM      7  N   UNL     1      11.310  12.434  24.648  0.00  0.00    -0.218 NA
ATOM     18  C   UNL     1      11.448  11.904  23.413  0.00  0.00    +0.215 A 
ATOM     19  C   UNL     1      10.995  12.511  22.253  0.00  0.00    +0.067 A 
ATOM     20  C   UNL     1      10.690  13.634  24.721  0.00  0.00    +0.042 A 
ATOM     21  C   UNL     1      10.362  13.744  22.367  0.00  0.00    +0.007 A 
ATOM     22  C   UNL     1      10.203  14.322  23.621  0.00  0.00    +0.023 A 
ATOM     23  C   UNL     1      10.533  14.224  26.083  0.00  0.00    +0.066 C 
ENDBRANCH   2  18
ENDBRANCH   9   2
TORSDOF 2
ENDMDL
MODEL 7
REMARK VINA RESULT:      -5.9     16.136     17.947
REMARK  Name = 75367637
REMARK  3 active torsions:
REMARK  status: ('A' for Active; 'I' for Inactive)
REMARK    1  A    between atoms: O_2  and  C_9
REMARK    2  A    between atoms: O_2  and  C_18
REMARK    3  A    between atoms: C_20  and  C_23
REMARK                            x       y       z     vdW  Elec       q    Type
REMARK                         _______ _______ _______ _____ _____    ______ ____
ROOT
ATOM      1  O   UNL     1      15.581   7.789   5.858  0.00  0.00    -0.375 OA
ATOM      3  O   UNL     1       9.086   6.264   8.370  0.00  0.00    -0.377 OA
ATOM      4  O   UNL     1      10.594   8.535   4.200  0.00  0.00    -0.252 OA
ATOM      5  N   UNL     1      12.591   8.027   5.255  0.00  0.00    -0.280 N 
ATOM      6  N   UNL     1      10.483   7.384   6.192  0.00  0.00    -0.281 N 
ATOM      8  C   UNL     1      13.381   8.427   4.083  0.00  0.00    +0.156 C 
ATOM      9  C   UNL     1      14.389   7.344   3.703  0.00  0.00    +0.218 C 
ATOM     10  C   UNL     1      13.290   8.032   6.550  0.00  0.00    +0.137 C 
ATOM     11  C   UNL     1      11.187   8.014   5.154  0.00  0.00    +0.305 C 
ATOM     12  C   UNL     1      15.696   7.406   4.495  0.00  0.00    +0.206 C 
ATOM     13  C   UNL     1       9.144   7.857   6.539  0.00  0.00    +0.137 C 
ATOM     14  C   UNL     1      10.758   6.014   6.639  0.00  0.00    +0.137 C 
ATOM     15  C   UNL     1      14.534   7.151   6.579  0.00  0.00    +0.179 C 
ATOM     16  C   UNL     1       8.877   7.636   8.022  0.00  0.00    +0.179 C 
ATOM     17  C   UNL     1      10.439   5.868   8.119  0.00  0.00    +0.179 C 
ENDROOT
BRANCH   9   2
ATOM      2  O   UNL     1      14.718   7.451   2.317  0.00  0.00    -0.469 OA
BRANCH   2  18
ATOM      7  N   UNL     1      13.904   5.319   1.911  0.00  0.00    -0.218 NA
ATOM     18  C   UNL     1      14.811   6.278   1.621  0.00  0.00    +0.215 A 
ATOM     19  C   UNL     1      15.814   6.137   0.675  0.00  0.00    +0.067 A 
ATOM     20  C   UNL     1      14.009   4.164   1.216  0.00  0.00    +0.042 A 
ATOM     21  C   UNL     1      15.890   4.935  -0.019  0.00  0.00    +0.007 A 
ATOM     22  C   UNL     1      14.973   3.925   0.251  0.00  0.00    +0.023 A 
ATOM     23  C   UNL     1      13.011   3.100   1.534  0.00  0.00    +0.066 C 
ENDBRANCH   2  18
ENDBRANCH   9   2
TORSDOF 2
ENDMDL
MODEL 8
REMARK VINA RESULT:      -5.8     17.749     19.421
REMARK  Name = 75367637
REMARK  3 active torsions:
REMARK  status: ('A' for Active; 'I' for Inactive)
REMARK    1  A    between atoms: O_2  and  C_9
REMARK    2  A    between atoms: O_2  and  C_18
REMARK    3  A    between atoms: C_20  and  C_23
REMARK                            x       y       z     vdW  Elec       q    Type
REMARK                         _______ _______ _______ _____ _____    ______ ____
ROOT
ATOM      1  O   UNL     1      10.029   7.281   0.823  0.00  0.00    -0.375 OA
ATOM      3  O   UNL     1      10.418   7.978   7.907  0.00  0.00    -0.377 OA
ATOM      4  O   UNL     1      10.165   3.965   4.965  0.00  0.00    -0.252 OA
ATOM      5  N   UNL     1      10.129   5.713   3.448  0.00  0.00    -0.280 N 
ATOM      6  N   UNL     1      10.335   6.104   5.802  0.00  0.00    -0.281 N 
ATOM      8  C   UNL     1      10.266   4.802   2.305  0.00  0.00    +0.156 C 
ATOM      9  C   UNL     1      11.389   5.253   1.372  0.00  0.00    +0.218 C 
ATOM     10  C   UNL     1       9.548   7.036   3.167  0.00  0.00    +0.137 C 
ATOM     11  C   UNL     1      10.208   5.184   4.750  0.00  0.00    +0.305 C 
ATOM     12  C   UNL     1      10.965   6.318   0.359  0.00  0.00    +0.206 C 
ATOM     13  C   UNL     1       9.781   5.774   7.113  0.00  0.00    +0.137 C 
ATOM     14  C   UNL     1      11.369   7.145   5.843  0.00  0.00    +0.137 C 
ATOM     15  C   UNL     1      10.307   7.826   2.107  0.00  0.00    +0.179 C 
ATOM     16  C   UNL     1       9.338   7.042   7.831  0.00  0.00    +0.179 C 
ATOM     17  C   UNL     1      10.861   8.363   6.601  0.00  0.00    +0.179 C 
ENDROOT
BRANCH   9   2
ATOM      2  O   UNL     1      11.890   4.135   0.639  0.00  0.00    -0.469 OA
BRANCH   2  18
ATOM      7  N   UNL     1      13.772   4.373  -0.694  0.00  0.00    -0.218 NA
ATOM     18  C   UNL     1      13.249   4.051   0.510  0.00  0.00    +0.215 A 
ATOM     19  C   UNL     1      14.002   3.644   1.599  0.00  0.00    +0.067 A 
ATOM     20  C   UNL     1      15.116   4.284  -0.808  0.00  0.00    +0.042 A 
ATOM     21  C   UNL     1      15.382   3.564   1.444  0.00  0.00    +0.007 A 
ATOM     22  C   UNL     1      15.957   3.889   0.220  0.00  0.00    +0.023 A 
ATOM     23  C   UNL     1      15.699   4.637  -2.136  0.00  0.00    +0.066 C 
ENDBRANCH   2  18
ENDBRANCH   9   2
TORSDOF 2
ENDMDL
MODEL 9
REMARK VINA RESULT:      -5.8     27.573     29.257
REMARK  Name = 75367637
REMARK  3 active torsions:
REMARK  status: ('A' for Active; 'I' for Inactive)
REMARK    1  A    between atoms: O_2  and  C_9
REMARK    2  A    between atoms: O_2  and  C_18
REMARK    3  A    between atoms: C_20  and  C_23
REMARK                            x       y       z     vdW  Elec       q    Type
REMARK                         _______ _______ _______ _____ _____    ______ ____
ROOT
ATOM      1  O   UNL     1      -4.493 -15.098  13.812  0.00  0.00    -0.375 OA
ATOM      3  O   UNL     1      -7.519 -10.775  18.605  0.00  0.00    -0.377 OA
ATOM      4  O   UNL     1      -3.083 -10.650  16.342  0.00  0.00    -0.252 OA
ATOM      5  N   UNL     1      -4.055 -12.555  15.454  0.00  0.00    -0.280 N 
ATOM      6  N   UNL     1      -5.229 -11.159  17.007  0.00  0.00    -0.281 N 
ATOM      8  C   UNL     1      -2.979 -12.716  14.468  0.00  0.00    +0.156 C 
ATOM      9  C   UNL     1      -3.544 -12.907  13.061  0.00  0.00    +0.218 C 
ATOM     10  C   UNL     1      -4.831 -13.761  15.783  0.00  0.00    +0.137 C 
ATOM     11  C   UNL     1      -4.060 -11.407  16.270  0.00  0.00    +0.305 C 
ATOM     12  C   UNL     1      -3.936 -14.350  12.740  0.00  0.00    +0.206 C 
ATOM     13  C   UNL     1      -5.132 -10.470  18.292  0.00  0.00    +0.137 C 
ATOM     14  C   UNL     1      -6.565 -11.098  16.404  0.00  0.00    +0.137 C 
ATOM     15  C   UNL     1      -5.484 -14.418  14.573  0.00  0.00    +0.179 C 
ATOM     16  C   UNL     1      -6.241 -10.939  19.224  0.00  0.00    +0.179 C 
ATOM     17  C   UNL     1      -7.616 -11.553  17.406  0.00  0.00    +0.179 C 
ENDROOT
BRANCH   9   2
ATOM      2  O   UNL     1      -2.583 -12.493  12.091  0.00  0.00    -0.469 OA
BRANCH   2  18
ATOM      7  N   UNL     1      -3.785 -11.777  10.242  0.00  0.00    -0.218 NA
ATOM     18  C   UNL     1      -2.953 -11.470  11.263  0.00  0.00    +0.215 A 
ATOM     19  C   UNL     1      -2.463 -10.197  11.508  0.00  0.00    +0.067 A 
ATOM     20  C   UNL     1      -4.142 -10.756   9.431  0.00  0.00    +0.042 A 
ATOM     21  C   UNL     1      -2.853  -9.173  10.652  0.00  0.00    +0.007 A 
ATOM     22  C   UNL     1      -3.708  -9.450   9.592  0.00  0.00    +0.023 A 
ATOM     23  C   UNL     1      -5.059 -11.090   8.301  0.00  0.00    +0.066 C 
ENDBRANCH   2  18
ENDBRANCH   9   2
TORSDOF 2
ENDMDL
MODEL 10
REMARK VINA RESULT:      -5.6     27.183     29.443
REMARK  Name = 75367637
REMARK  3 active torsions:
REMARK  status: ('A' for Active; 'I' for Inactive)
REMARK    1  A    between atoms: O_2  and  C_9
REMARK    2  A    between atoms: O_2  and  C_18
REMARK    3  A    between atoms: C_20  and  C_23
REMARK                            x       y       z     vdW  Elec       q    Type
REMARK                         _______ _______ _______ _____ _____    ______ ____
ROOT
ATOM      1  O   UNL     1      -1.728 -10.069  11.455  0.00  0.00    -0.375 OA
ATOM      3  O   UNL     1      -7.933  -8.831   8.173  0.00  0.00    -0.377 OA
ATOM      4  O   UNL     1      -6.484 -12.419  11.310  0.00  0.00    -0.252 OA
ATOM      5  N   UNL     1      -4.580 -11.117  11.109  0.00  0.00    -0.280 N 
ATOM      6  N   UNL     1      -6.619 -10.532   9.997  0.00  0.00    -0.281 N 
ATOM      8  C   UNL     1      -3.895 -11.849  12.182  0.00  0.00    +0.156 C 
ATOM      9  C   UNL     1      -3.306 -10.890  13.215  0.00  0.00    +0.218 C 
ATOM     10  C   UNL     1      -3.723 -10.399  10.153  0.00  0.00    +0.137 C 
ATOM     11  C   UNL     1      -5.929 -11.419  10.837  0.00  0.00    +0.305 C 
ATOM     12  C   UNL     1      -1.932 -10.335  12.836  0.00  0.00    +0.206 C 
ATOM     13  C   UNL     1      -7.699 -11.039   9.153  0.00  0.00    +0.137 C 
ATOM     14  C   UNL     1      -6.682  -9.084  10.228  0.00  0.00    +0.137 C 
ATOM     15  C   UNL     1      -2.793  -9.384  10.806  0.00  0.00    +0.179 C 
ATOM     16  C   UNL     1      -7.792 -10.222   7.871  0.00  0.00    +0.179 C 
ATOM     17  C   UNL     1      -6.804  -8.343   8.905  0.00  0.00    +0.179 C 
ENDROOT
BRANCH   9   2
ATOM      2  O   UNL     1      -3.173 -11.551  14.473  0.00  0.00    -0.469 OA
BRANCH   2  18
ATOM      7  N   UNL     1      -3.793 -11.645  16.705  0.00  0.00    -0.218 NA
ATOM     18  C   UNL     1      -4.012 -11.139  15.471  0.00  0.00    +0.215 A 
ATOM     19  C   UNL     1      -5.025 -10.244  15.168  0.00  0.00    +0.067 A 
ATOM     20  C   UNL     1      -4.631 -11.230  17.681  0.00  0.00    +0.042 A 
ATOM     21  C   UNL     1      -5.867  -9.840  16.199  0.00  0.00    +0.007 A 
ATOM     22  C   UNL     1      -5.672 -10.338  17.482  0.00  0.00    +0.023 A 
ATOM     23  C   UNL     1      -4.395 -11.787  19.046  0.00  0.00    +0.066 C 
ENDBRANCH   2  18
ENDBRANCH   9   2
TORSDOF 2
ENDMDL
