MODEL 1
REMARK VINA RESULT:      -7.9      0.000      0.000
REMARK  Name = 11913359
REMARK  5 active torsions:
REMARK  status: ('A' for Active; 'I' for Inactive)
REMARK    1  A    between atoms: N_5  and  C_12
REMARK    2  A    between atoms: N_6  and  C_13
REMARK    3  A    between atoms: N_7  and  C_18
REMARK    4  A    between atoms: C_18  and  C_22
REMARK    5  A    between atoms: C_19  and  C_23
REMARK                            x       y       z     vdW  Elec       q    Type
REMARK                         _______ _______ _______ _____ _____    ______ ____
ROOT
ATOM      2  O   UNL     1      10.827  13.204  23.906  0.00  0.00    -0.370 OA
ATOM      3  O   UNL     1      13.796  12.405  23.374  0.00  0.00    -0.370 OA
ATOM     10  C   UNL     1      12.604  11.645  23.638  0.00  0.00    +0.171 C 
ATOM     11  C   UNL     1      11.785  12.429  24.645  0.00  0.00    +0.171 C 
ATOM     12  C   UNL     1      11.730  11.598  22.407  0.00  0.00    +0.130 C 
ATOM     13  C   UNL     1      12.793  13.337  25.313  0.00  0.00    +0.131 C 
ATOM     14  C   UNL     1      10.939  12.889  22.510  0.00  0.00    +0.185 C 
ATOM     15  C   UNL     1      13.799  13.578  24.202  0.00  0.00    +0.185 C 
ENDROOT
BRANCH  12   5
ATOM      5  N   UNL     1      10.840  10.459  22.476  0.00  0.00    -0.306 N 
ATOM      8  N   UNL     1      12.497   8.978  21.724  0.00  0.00    -0.214 NA
ATOM      9  N   UNL     1      10.282   8.192  22.253  0.00  0.00    -0.223 NA
ATOM     16  C   UNL     1      11.217   9.171  22.141  0.00  0.00    +0.216 A 
ATOM     19  C   UNL     1      12.831   7.710  21.406  0.00  0.00    +0.076 A 
ATOM     20  C   UNL     1      10.684   6.947  21.918  0.00  0.00    +0.116 A 
ATOM     21  C   UNL     1      11.958   6.644  21.484  0.00  0.00    +0.048 A 
ATOM     34  H   UNL     1       9.900  10.583  22.835  0.00  0.00    +0.149 HD
BRANCH  19  23
ATOM      1  F   UNL     1      17.571   8.435  21.980  0.00  0.00    -0.205 F 
ATOM     23  C   UNL     1      14.194   7.527  20.967  0.00  0.00    +0.003 A 
ATOM     26  C   UNL     1      15.247   8.081  21.700  0.00  0.00    +0.048 A 
ATOM     27  C   UNL     1      14.466   6.798  19.808  0.00  0.00    +0.010 A 
ATOM     30  C   UNL     1      16.563   7.904  21.276  0.00  0.00    +0.124 A 
ATOM     31  C   UNL     1      15.782   6.621  19.384  0.00  0.00    +0.003 A 
ATOM     33  C   UNL     1      16.831   7.174  20.118  0.00  0.00    +0.038 A 
ENDBRANCH  19  23
ENDBRANCH  12   5
BRANCH  13   6
ATOM      4  O   UNL     1      13.531  14.554  27.823  0.00  0.00    -0.253 OA
ATOM      6  N   UNL     1      13.409  12.689  26.445  0.00  0.00    -0.292 N 
ATOM      7  N   UNL     1      14.316  12.495  28.551  0.00  0.00    -0.295 N 
ATOM     17  C   UNL     1      13.733  13.356  27.625  0.00  0.00    +0.300 C 
ATOM     35  H   UNL     1      13.557  11.684  26.406  0.00  0.00    +0.151 HD
ATOM     36  H   UNL     1      14.423  11.515  28.306  0.00  0.00    +0.151 HD
BRANCH   7  18
ATOM     18  C   UNL     1      14.748  12.928  29.858  0.00  0.00    +0.141 C 
BRANCH  18  22
ATOM     22  C   UNL     1      13.988  12.243  30.957  0.00  0.00    -0.030 A 
ATOM     24  C   UNL     1      13.064  12.961  31.705  0.00  0.00    +0.005 A 
ATOM     25  C   UNL     1      14.216  10.896  31.215  0.00  0.00    +0.005 A 
ATOM     28  C   UNL     1      12.356  12.325  32.726  0.00  0.00    +0.000 A 
ATOM     29  C   UNL     1      13.510  10.260  32.236  0.00  0.00    +0.000 A 
ATOM     32  C   UNL     1      12.580  10.974  32.991  0.00  0.00    +0.000 A 
ENDBRANCH  18  22
ENDBRANCH   7  18
ENDBRANCH  13   6
TORSDOF 5
ENDMDL
MODEL 2
REMARK VINA RESULT:      -7.7     28.428     33.056
REMARK  Name = 11913359
REMARK  5 active torsions:
REMARK  status: ('A' for Active; 'I' for Inactive)
REMARK    1  A    between atoms: N_5  and  C_12
REMARK    2  A    between atoms: N_6  and  C_13
REMARK    3  A    between atoms: N_7  and  C_18
REMARK    4  A    between atoms: C_18  and  C_22
REMARK    5  A    between atoms: C_19  and  C_23
REMARK                            x       y       z     vdW  Elec       q    Type
REMARK                         _______ _______ _______ _____ _____    ______ ____
ROOT
ATOM      2  O   UNL     1      -4.636  -8.900  10.268  0.00  0.00    -0.370 OA
ATOM      3  O   UNL     1      -6.071 -11.669  10.178  0.00  0.00    -0.370 OA
ATOM     10  C   UNL     1      -4.727 -11.266  10.492  0.00  0.00    +0.171 C 
ATOM     11  C   UNL     1      -4.371 -10.123   9.563  0.00  0.00    +0.171 C 
ATOM     12  C   UNL     1      -4.673 -10.652  11.871  0.00  0.00    +0.130 C 
ATOM     13  C   UNL     1      -5.328 -10.279   8.403  0.00  0.00    +0.131 C 
ATOM     14  C   UNL     1      -5.053  -9.207  11.607  0.00  0.00    +0.185 C 
ATOM     15  C   UNL     1      -6.548 -10.892   9.069  0.00  0.00    +0.185 C 
ENDROOT
BRANCH  12   5
ATOM      5  N   UNL     1      -3.327 -10.728  12.394  0.00  0.00    -0.306 N 
ATOM      8  N   UNL     1      -4.065 -10.602  14.618  0.00  0.00    -0.214 NA
ATOM      9  N   UNL     1      -1.719 -10.785  14.102  0.00  0.00    -0.223 NA
ATOM     16  C   UNL     1      -3.027 -10.704  13.745  0.00  0.00    +0.216 A 
ATOM     19  C   UNL     1      -3.738 -10.581  15.926  0.00  0.00    +0.076 A 
ATOM     20  C   UNL     1      -1.463 -10.758  15.427  0.00  0.00    +0.116 A 
ATOM     21  C   UNL     1      -2.441 -10.657  16.394  0.00  0.00    +0.048 A 
ATOM     34  H   UNL     1      -2.550 -10.857  11.755  0.00  0.00    +0.149 HD
BRANCH  19  23
ATOM      1  F   UNL     1      -5.702 -11.288  20.281  0.00  0.00    -0.205 F 
ATOM     23  C   UNL     1      -4.854 -10.473  16.836  0.00  0.00    +0.003 A 
ATOM     26  C   UNL     1      -4.738 -10.942  18.147  0.00  0.00    +0.048 A 
ATOM     27  C   UNL     1      -6.054  -9.901  16.408  0.00  0.00    +0.010 A 
ATOM     30  C   UNL     1      -5.816 -10.838  19.025  0.00  0.00    +0.124 A 
ATOM     31  C   UNL     1      -7.131  -9.797  17.287  0.00  0.00    +0.003 A 
ATOM     33  C   UNL     1      -7.013 -10.265  18.595  0.00  0.00    +0.038 A 
ENDBRANCH  19  23
ENDBRANCH  12   5
BRANCH  13   6
ATOM      4  O   UNL     1      -5.974 -10.302   5.590  0.00  0.00    -0.253 OA
ATOM      6  N   UNL     1      -4.787 -11.156   7.394  0.00  0.00    -0.292 N 
ATOM      7  N   UNL     1      -4.484 -12.056   5.298  0.00  0.00    -0.295 N 
ATOM     17  C   UNL     1      -5.156 -11.099   6.052  0.00  0.00    +0.300 C 
ATOM     35  H   UNL     1      -4.054 -11.808   7.661  0.00  0.00    +0.151 HD
ATOM     36  H   UNL     1      -3.810 -12.658   5.762  0.00  0.00    +0.151 HD
BRANCH   7  18
ATOM     18  C   UNL     1      -4.681 -12.214   3.876  0.00  0.00    +0.141 C 
BRANCH  18  22
ATOM     22  C   UNL     1      -3.506 -12.879   3.218  0.00  0.00    -0.030 A 
ATOM     24  C   UNL     1      -2.460 -13.357   3.997  0.00  0.00    +0.005 A 
ATOM     25  C   UNL     1      -3.476 -13.007   1.834  0.00  0.00    +0.005 A 
ATOM     28  C   UNL     1      -1.369 -13.975   3.385  0.00  0.00    +0.000 A 
ATOM     29  C   UNL     1      -2.385 -13.623   1.222  0.00  0.00    +0.000 A 
ATOM     32  C   UNL     1      -1.331 -14.107   1.997  0.00  0.00    +0.000 A 
ENDBRANCH  18  22
ENDBRANCH   7  18
ENDBRANCH  13   6
TORSDOF 5
ENDMDL
MODEL 3
REMARK VINA RESULT:      -7.6     29.225     32.404
REMARK  Name = 11913359
REMARK  5 active torsions:
REMARK  status: ('A' for Active; 'I' for Inactive)
REMARK    1  A    between atoms: N_5  and  C_12
REMARK    2  A    between atoms: N_6  and  C_13
REMARK    3  A    between atoms: N_7  and  C_18
REMARK    4  A    between atoms: C_18  and  C_22
REMARK    5  A    between atoms: C_19  and  C_23
REMARK                            x       y       z     vdW  Elec       q    Type
REMARK                         _______ _______ _______ _____ _____    ______ ____
ROOT
ATOM      2  O   UNL     1      -4.705 -11.592  19.595  0.00  0.00    -0.370 OA
ATOM      3  O   UNL     1      -6.383 -10.611  17.154  0.00  0.00    -0.370 OA
ATOM     10  C   UNL     1      -6.333 -11.851  17.880  0.00  0.00    +0.171 C 
ATOM     11  C   UNL     1      -4.885 -12.091  18.260  0.00  0.00    +0.171 C 
ATOM     12  C   UNL     1      -7.045 -11.712  19.205  0.00  0.00    +0.130 C 
ATOM     13  C   UNL     1      -4.101 -11.254  17.275  0.00  0.00    +0.131 C 
ATOM     14  C   UNL     1      -5.967 -11.134  20.103  0.00  0.00    +0.185 C 
ATOM     15  C   UNL     1      -5.050 -10.100  17.003  0.00  0.00    +0.185 C 
ENDROOT
BRANCH  12   5
ATOM      5  N   UNL     1      -7.453 -13.013  19.686  0.00  0.00    -0.306 N 
ATOM      8  N   UNL     1      -9.693 -12.351  19.912  0.00  0.00    -0.214 NA
ATOM      9  N   UNL     1      -9.002 -14.591  20.471  0.00  0.00    -0.223 NA
ATOM     16  C   UNL     1      -8.754 -13.328  20.034  0.00  0.00    +0.216 A 
ATOM     19  C   UNL     1     -10.951 -12.692  20.259  0.00  0.00    +0.076 A 
ATOM     20  C   UNL     1     -10.282 -14.863  20.801  0.00  0.00    +0.116 A 
ATOM     21  C   UNL     1     -11.308 -13.945  20.714  0.00  0.00    +0.048 A 
ATOM     34  H   UNL     1      -6.772 -13.764  19.731  0.00  0.00    +0.149 HD
BRANCH  19  23
ATOM      1  F   UNL     1     -12.716  -8.866  17.900  0.00  0.00    -0.205 F 
ATOM     23  C   UNL     1     -11.931 -11.641  20.121  0.00  0.00    +0.003 A 
ATOM     26  C   UNL     1     -11.850 -10.742  19.056  0.00  0.00    +0.048 A 
ATOM     27  C   UNL     1     -12.962 -11.518  21.054  0.00  0.00    +0.010 A 
ATOM     30  C   UNL     1     -12.796  -9.726  18.923  0.00  0.00    +0.124 A 
ATOM     31  C   UNL     1     -13.909 -10.503  20.921  0.00  0.00    +0.003 A 
ATOM     33  C   UNL     1     -13.826  -9.607  19.856  0.00  0.00    +0.038 A 
ENDBRANCH  19  23
ENDBRANCH  12   5
BRANCH  13   6
ATOM      4  O   UNL     1      -2.174 -10.585  15.234  0.00  0.00    -0.253 OA
ATOM      6  N   UNL     1      -3.820 -11.994  16.069  0.00  0.00    -0.292 N 
ATOM      7  N   UNL     1      -2.799 -12.491  14.067  0.00  0.00    -0.295 N 
ATOM     17  C   UNL     1      -2.867 -11.597  15.133  0.00  0.00    +0.300 C 
ATOM     35  H   UNL     1      -4.293 -12.882  15.924  0.00  0.00    +0.151 HD
ATOM     36  H   UNL     1      -3.397 -13.312  14.080  0.00  0.00    +0.151 HD
BRANCH   7  18
ATOM     18  C   UNL     1      -1.894 -12.317  12.956  0.00  0.00    +0.141 C 
BRANCH  18  22
ATOM     22  C   UNL     1      -2.474 -11.426  11.895  0.00  0.00    -0.030 A 
ATOM     24  C   UNL     1      -3.545 -11.874  11.131  0.00  0.00    +0.005 A 
ATOM     25  C   UNL     1      -1.933 -10.162  11.687  0.00  0.00    +0.005 A 
ATOM     28  C   UNL     1      -4.084 -11.047  10.145  0.00  0.00    +0.000 A 
ATOM     29  C   UNL     1      -2.471  -9.336  10.701  0.00  0.00    +0.000 A 
ATOM     32  C   UNL     1      -3.546  -9.778   9.930  0.00  0.00    +0.000 A 
ENDBRANCH  18  22
ENDBRANCH   7  18
ENDBRANCH  13   6
TORSDOF 5
ENDMDL
MODEL 4
REMARK VINA RESULT:      -7.5     29.093     31.834
REMARK  Name = 11913359
REMARK  5 active torsions:
REMARK  status: ('A' for Active; 'I' for Inactive)
REMARK    1  A    between atoms: N_5  and  C_12
REMARK    2  A    between atoms: N_6  and  C_13
REMARK    3  A    between atoms: N_7  and  C_18
REMARK    4  A    between atoms: C_18  and  C_22
REMARK    5  A    between atoms: C_19  and  C_23
REMARK                            x       y       z     vdW  Elec       q    Type
REMARK                         _______ _______ _______ _____ _____    ______ ____
ROOT
ATOM      2  O   UNL     1      -5.170 -11.642  19.280  0.00  0.00    -0.370 OA
ATOM      3  O   UNL     1      -5.749  -9.761  16.859  0.00  0.00    -0.370 OA
ATOM     10  C   UNL     1      -6.411 -10.925  17.380  0.00  0.00    +0.171 C 
ATOM     11  C   UNL     1      -5.333 -11.873  17.871  0.00  0.00    +0.171 C 
ATOM     12  C   UNL     1      -7.188 -10.573  18.627  0.00  0.00    +0.130 C 
ATOM     13  C   UNL     1      -4.094 -11.442  17.120  0.00  0.00    +0.131 C 
ATOM     14  C   UNL     1      -6.136 -10.674  19.715  0.00  0.00    +0.185 C 
ATOM     15  C   UNL     1      -4.328  -9.953  16.935  0.00  0.00    +0.185 C 
ENDROOT
BRANCH  12   5
ATOM      5  N   UNL     1      -8.234 -11.547  18.850  0.00  0.00    -0.306 N 
ATOM      8  N   UNL     1      -9.888 -10.138  17.963  0.00  0.00    -0.214 NA
ATOM      9  N   UNL     1     -10.443 -12.335  18.785  0.00  0.00    -0.223 NA
ATOM     16  C   UNL     1      -9.561 -11.334  18.523  0.00  0.00    +0.216 A 
ATOM     19  C   UNL     1     -11.190  -9.965  17.657  0.00  0.00    +0.076 A 
ATOM     20  C   UNL     1     -11.729 -12.094  18.453  0.00  0.00    +0.116 A 
ATOM     21  C   UNL     1     -12.165 -10.917  17.881  0.00  0.00    +0.048 A 
ATOM     34  H   UNL     1      -7.993 -12.461  19.218  0.00  0.00    +0.149 HD
BRANCH  19  23
ATOM      1  F   UNL     1     -14.338  -7.010  15.494  0.00  0.00    -0.205 F 
ATOM     23  C   UNL     1     -11.515  -8.690  17.063  0.00  0.00    +0.003 A 
ATOM     26  C   UNL     1     -12.796  -8.459  16.554  0.00  0.00    +0.048 A 
ATOM     27  C   UNL     1     -10.550  -7.683  16.992  0.00  0.00    +0.010 A 
ATOM     30  C   UNL     1     -13.109  -7.228  15.980  0.00  0.00    +0.124 A 
ATOM     31  C   UNL     1     -10.864  -6.452  16.418  0.00  0.00    +0.003 A 
ATOM     33  C   UNL     1     -12.143  -6.224  15.912  0.00  0.00    +0.038 A 
ENDBRANCH  19  23
ENDBRANCH  12   5
BRANCH  13   6
ATOM      4  O   UNL     1      -2.118 -10.991  15.065  0.00  0.00    -0.253 OA
ATOM      6  N   UNL     1      -3.991 -12.117  15.850  0.00  0.00    -0.292 N 
ATOM      7  N   UNL     1      -3.135 -12.631  13.777  0.00  0.00    -0.295 N 
ATOM     17  C   UNL     1      -3.001 -11.836  14.912  0.00  0.00    +0.300 C 
ATOM     35  H   UNL     1      -4.634 -12.880  15.654  0.00  0.00    +0.151 HD
ATOM     36  H   UNL     1      -3.883 -13.318  13.748  0.00  0.00    +0.151 HD
BRANCH   7  18
ATOM     18  C   UNL     1      -2.239 -12.544  12.649  0.00  0.00    +0.141 C 
BRANCH  18  22
ATOM     22  C   UNL     1      -2.642 -11.456  11.695  0.00  0.00    -0.030 A 
ATOM     24  C   UNL     1      -3.762 -11.627  10.891  0.00  0.00    +0.005 A 
ATOM     25  C   UNL     1      -1.891 -10.288  11.626  0.00  0.00    +0.005 A 
ATOM     28  C   UNL     1      -4.137 -10.617  10.005  0.00  0.00    +0.000 A 
ATOM     29  C   UNL     1      -2.265  -9.279  10.740  0.00  0.00    +0.000 A 
ATOM     32  C   UNL     1      -3.388  -9.442   9.929  0.00  0.00    +0.000 A 
ENDBRANCH  18  22
ENDBRANCH   7  18
ENDBRANCH  13   6
TORSDOF 5
ENDMDL
MODEL 5
REMARK VINA RESULT:      -7.5     27.848     30.968
REMARK  Name = 11913359
REMARK  5 active torsions:
REMARK  status: ('A' for Active; 'I' for Inactive)
REMARK    1  A    between atoms: N_5  and  C_12
REMARK    2  A    between atoms: N_6  and  C_13
REMARK    3  A    between atoms: N_7  and  C_18
REMARK    4  A    between atoms: C_18  and  C_22
REMARK    5  A    between atoms: C_19  and  C_23
REMARK                            x       y       z     vdW  Elec       q    Type
REMARK                         _______ _______ _______ _____ _____    ______ ____
ROOT
ATOM      2  O   UNL     1      -6.624 -11.084  18.447  0.00  0.00    -0.370 OA
ATOM      3  O   UNL     1      -7.387 -11.363  15.434  0.00  0.00    -0.370 OA
ATOM     10  C   UNL     1      -6.287 -10.738  16.117  0.00  0.00    +0.171 C 
ATOM     11  C   UNL     1      -6.836 -10.131  17.394  0.00  0.00    +0.171 C 
ATOM     12  C   UNL     1      -5.307 -11.783  16.597  0.00  0.00    +0.130 C 
ATOM     13  C   UNL     1      -8.314  -9.971  17.119  0.00  0.00    +0.131 C 
ATOM     14  C   UNL     1      -5.900 -12.210  17.927  0.00  0.00    +0.185 C 
ATOM     15  C   UNL     1      -8.595 -11.125  16.173  0.00  0.00    +0.185 C 
ENDROOT
BRANCH  12   5
ATOM      5  N   UNL     1      -4.006 -11.184  16.799  0.00  0.00    -0.306 N 
ATOM      8  N   UNL     1      -3.584 -11.057  14.494  0.00  0.00    -0.214 NA
ATOM      9  N   UNL     1      -1.963 -10.271  16.094  0.00  0.00    -0.223 NA
ATOM     16  C   UNL     1      -3.159 -10.826  15.765  0.00  0.00    +0.216 A 
ATOM     19  C   UNL     1      -2.734 -10.696  13.511  0.00  0.00    +0.076 A 
ATOM     20  C   UNL     1      -1.162  -9.934  15.061  0.00  0.00    +0.116 A 
ATOM     21  C   UNL     1      -1.498 -10.125  13.737  0.00  0.00    +0.048 A 
ATOM     34  H   UNL     1      -3.700 -10.960  17.740  0.00  0.00    +0.149 HD
BRANCH  19  23
ATOM      1  F   UNL     1      -3.771  -9.152   9.055  0.00  0.00    -0.205 F 
ATOM     23  C   UNL     1      -3.206 -10.948  12.170  0.00  0.00    +0.003 A 
ATOM     26  C   UNL     1      -3.263  -9.908  11.240  0.00  0.00    +0.048 A 
ATOM     27  C   UNL     1      -3.609 -12.232  11.798  0.00  0.00    +0.010 A 
ATOM     30  C   UNL     1      -3.718 -10.151   9.945  0.00  0.00    +0.124 A 
ATOM     31  C   UNL     1      -4.064 -12.475  10.503  0.00  0.00    +0.003 A 
ATOM     33  C   UNL     1      -4.119 -11.435   9.576  0.00  0.00    +0.038 A 
ENDBRANCH  19  23
ENDBRANCH  12   5
BRANCH  13   6
ATOM      4  O   UNL     1     -10.800  -8.507  17.197  0.00  0.00    -0.253 OA
ATOM      6  N   UNL     1      -8.596  -8.702  16.494  0.00  0.00    -0.292 N 
ATOM      7  N   UNL     1      -9.828  -6.855  15.888  0.00  0.00    -0.295 N 
ATOM     17  C   UNL     1      -9.830  -8.062  16.582  0.00  0.00    +0.300 C 
ATOM     35  H   UNL     1      -7.839  -8.219  16.017  0.00  0.00    +0.151 HD
ATOM     36  H   UNL     1      -8.972  -6.559  15.427  0.00  0.00    +0.151 HD
BRANCH   7  18
ATOM     18  C   UNL     1     -10.982  -5.991  15.817  0.00  0.00    +0.141 C 
BRANCH  18  22
ATOM     22  C   UNL     1     -11.724  -6.152  14.522  0.00  0.00    -0.030 A 
ATOM     24  C   UNL     1     -12.042  -7.425  14.065  0.00  0.00    +0.005 A 
ATOM     25  C   UNL     1     -12.087  -5.026  13.792  0.00  0.00    +0.005 A 
ATOM     28  C   UNL     1     -12.732  -7.576  12.862  0.00  0.00    +0.000 A 
ATOM     29  C   UNL     1     -12.776  -5.176  12.589  0.00  0.00    +0.000 A 
ATOM     32  C   UNL     1     -13.099  -6.450  12.123  0.00  0.00    +0.000 A 
ENDBRANCH  18  22
ENDBRANCH   7  18
ENDBRANCH  13   6
TORSDOF 5
ENDMDL
MODEL 6
REMARK VINA RESULT:      -7.4     29.230     31.136
REMARK  Name = 11913359
REMARK  5 active torsions:
REMARK  status: ('A' for Active; 'I' for Inactive)
REMARK    1  A    between atoms: N_5  and  C_12
REMARK    2  A    between atoms: N_6  and  C_13
REMARK    3  A    between atoms: N_7  and  C_18
REMARK    4  A    between atoms: C_18  and  C_22
REMARK    5  A    between atoms: C_19  and  C_23
REMARK                            x       y       z     vdW  Elec       q    Type
REMARK                         _______ _______ _______ _____ _____    ______ ____
ROOT
ATOM      2  O   UNL     1      -1.950  -9.874  12.558  0.00  0.00    -0.370 OA
ATOM      3  O   UNL     1      -2.927 -12.811  12.165  0.00  0.00    -0.370 OA
ATOM     10  C   UNL     1      -3.613 -11.555  12.296  0.00  0.00    +0.171 C 
ATOM     11  C   UNL     1      -2.839 -10.722  13.300  0.00  0.00    +0.171 C 
ATOM     12  C   UNL     1      -3.516 -10.767  11.011  0.00  0.00    +0.130 C 
ATOM     13  C   UNL     1      -2.053 -11.741  14.095  0.00  0.00    +0.131 C 
ATOM     14  C   UNL     1      -2.180 -10.061  11.153  0.00  0.00    +0.185 C 
ATOM     15  C   UNL     1      -1.814 -12.836  13.071  0.00  0.00    +0.185 C 
ENDROOT
BRANCH  12   5
ATOM      5  N   UNL     1      -4.589  -9.798  10.942  0.00  0.00    -0.306 N 
ATOM      8  N   UNL     1      -5.025 -10.279   8.687  0.00  0.00    -0.214 NA
ATOM      9  N   UNL     1      -6.313  -8.622   9.871  0.00  0.00    -0.223 NA
ATOM     16  C   UNL     1      -5.331  -9.559   9.800  0.00  0.00    +0.216 A 
ATOM     19  C   UNL     1      -5.769 -10.020   7.592  0.00  0.00    +0.076 A 
ATOM     20  C   UNL     1      -7.018  -8.414   8.739  0.00  0.00    +0.116 A 
ATOM     21  C   UNL     1      -6.789  -9.090   7.559  0.00  0.00    +0.048 A 
ATOM     34  H   UNL     1      -4.859  -9.294  11.779  0.00  0.00    +0.149 HD
BRANCH  19  23
ATOM      1  F   UNL     1      -2.795 -13.017   5.248  0.00  0.00    -0.205 F 
ATOM     23  C   UNL     1      -5.430 -10.796   6.423  0.00  0.00    +0.003 A 
ATOM     26  C   UNL     1      -4.253 -11.548   6.398  0.00  0.00    +0.048 A 
ATOM     27  C   UNL     1      -6.275 -10.797   5.312  0.00  0.00    +0.010 A 
ATOM     30  C   UNL     1      -3.924 -12.297   5.269  0.00  0.00    +0.124 A 
ATOM     31  C   UNL     1      -5.947 -11.546   4.183  0.00  0.00    +0.003 A 
ATOM     33  C   UNL     1      -4.772 -12.296   4.161  0.00  0.00    +0.038 A 
ENDBRANCH  19  23
ENDBRANCH  12   5
BRANCH  13   6
ATOM      4  O   UNL     1      -2.704 -10.309  16.515  0.00  0.00    -0.253 OA
ATOM      6  N   UNL     1      -2.817 -12.231  15.216  0.00  0.00    -0.292 N 
ATOM      7  N   UNL     1      -3.841 -12.183  17.277  0.00  0.00    -0.295 N 
ATOM     17  C   UNL     1      -3.086 -11.468  16.351  0.00  0.00    +0.300 C 
ATOM     35  H   UNL     1      -3.235 -13.155  15.151  0.00  0.00    +0.151 HD
ATOM     36  H   UNL     1      -4.129 -13.129  17.045  0.00  0.00    +0.151 HD
BRANCH   7  18
ATOM     18  C   UNL     1      -4.258 -11.629  18.542  0.00  0.00    +0.141 C 
BRANCH  18  22
ATOM     22  C   UNL     1      -5.722 -11.295  18.554  0.00  0.00    -0.030 A 
ATOM     24  C   UNL     1      -6.198 -10.259  17.760  0.00  0.00    +0.005 A 
ATOM     25  C   UNL     1      -6.588 -12.027  19.359  0.00  0.00    +0.005 A 
ATOM     28  C   UNL     1      -7.558  -9.949  17.770  0.00  0.00    +0.000 A 
ATOM     29  C   UNL     1      -7.947 -11.716  19.370  0.00  0.00    +0.000 A 
ATOM     32  C   UNL     1      -8.433 -10.678  18.576  0.00  0.00    +0.000 A 
ENDBRANCH  18  22
ENDBRANCH   7  18
ENDBRANCH  13   6
TORSDOF 5
ENDMDL
MODEL 7
REMARK VINA RESULT:      -7.4     26.306     29.386
REMARK  Name = 11913359
REMARK  5 active torsions:
REMARK  status: ('A' for Active; 'I' for Inactive)
REMARK    1  A    between atoms: N_5  and  C_12
REMARK    2  A    between atoms: N_6  and  C_13
REMARK    3  A    between atoms: N_7  and  C_18
REMARK    4  A    between atoms: C_18  and  C_22
REMARK    5  A    between atoms: C_19  and  C_23
REMARK                            x       y       z     vdW  Elec       q    Type
REMARK                         _______ _______ _______ _____ _____    ______ ____
ROOT
ATOM      2  O   UNL     1     -13.385   9.486  13.215  0.00  0.00    -0.370 OA
ATOM      3  O   UNL     1     -11.665   6.884  13.116  0.00  0.00    -0.370 OA
ATOM     10  C   UNL     1     -12.841   7.259  13.852  0.00  0.00    +0.171 C 
ATOM     11  C   UNL     1     -12.696   8.723  14.218  0.00  0.00    +0.171 C 
ATOM     12  C   UNL     1     -14.056   7.221  12.954  0.00  0.00    +0.130 C 
ATOM     13  C   UNL     1     -11.207   8.976  14.140  0.00  0.00    +0.131 C 
ATOM     14  C   UNL     1     -14.024   8.588  12.294  0.00  0.00    +0.185 C 
ATOM     15  C   UNL     1     -10.769   8.005  13.058  0.00  0.00    +0.185 C 
ENDROOT
BRANCH  12   5
ATOM      5  N   UNL     1     -15.255   7.078  13.750  0.00  0.00    -0.306 N 
ATOM      8  N   UNL     1     -15.865   5.085  12.671  0.00  0.00    -0.214 NA
ATOM      9  N   UNL     1     -17.233   6.012  14.425  0.00  0.00    -0.223 NA
ATOM     16  C   UNL     1     -16.145   6.027  13.612  0.00  0.00    +0.216 A 
ATOM     19  C   UNL     1     -16.753   4.075  12.564  0.00  0.00    +0.076 A 
ATOM     20  C   UNL     1     -18.079   4.973  14.263  0.00  0.00    +0.116 A 
ATOM     21  C   UNL     1     -17.888   3.966  13.340  0.00  0.00    +0.048 A 
ATOM     34  H   UNL     1     -15.446   7.746  14.488  0.00  0.00    +0.149 HD
BRANCH  19  23
ATOM      1  F   UNL     1     -14.158   2.616   8.761  0.00  0.00    -0.205 F 
ATOM     23  C   UNL     1     -16.436   3.085  11.561  0.00  0.00    +0.003 A 
ATOM     26  C   UNL     1     -15.429   3.332  10.625  0.00  0.00    +0.048 A 
ATOM     27  C   UNL     1     -17.137   1.878  11.522  0.00  0.00    +0.010 A 
ATOM     30  C   UNL     1     -15.124   2.377   9.657  0.00  0.00    +0.124 A 
ATOM     31  C   UNL     1     -16.831   0.923  10.554  0.00  0.00    +0.003 A 
ATOM     33  C   UNL     1     -15.825   1.171   9.622  0.00  0.00    +0.038 A 
ENDBRANCH  19  23
ENDBRANCH  12   5
BRANCH  13   6
ATOM      4  O   UNL     1     -11.407  10.487  16.591  0.00  0.00    -0.253 OA
ATOM      6  N   UNL     1     -10.562   8.684  15.397  0.00  0.00    -0.292 N 
ATOM      7  N   UNL     1      -9.982   8.964  17.606  0.00  0.00    -0.295 N 
ATOM     17  C   UNL     1     -10.714   9.472  16.536  0.00  0.00    +0.300 C 
ATOM     35  H   UNL     1     -10.019   7.828  15.475  0.00  0.00    +0.151 HD
ATOM     36  H   UNL     1      -9.455   8.106  17.473  0.00  0.00    +0.151 HD
BRANCH   7  18
ATOM     18  C   UNL     1      -9.962   9.588  18.908  0.00  0.00    +0.141 C 
BRANCH  18  22
ATOM     22  C   UNL     1     -11.040   9.050  19.804  0.00  0.00    -0.030 A 
ATOM     24  C   UNL     1     -11.221   7.677  19.915  0.00  0.00    +0.005 A 
ATOM     25  C   UNL     1     -11.847   9.932  20.514  0.00  0.00    +0.005 A 
ATOM     28  C   UNL     1     -12.222   7.177  20.749  0.00  0.00    +0.000 A 
ATOM     29  C   UNL     1     -12.848   9.432  21.347  0.00  0.00    +0.000 A 
ATOM     32  C   UNL     1     -13.036   8.055  21.464  0.00  0.00    +0.000 A 
ENDBRANCH  18  22
ENDBRANCH   7  18
ENDBRANCH  13   6
TORSDOF 5
ENDMDL
MODEL 8
REMARK VINA RESULT:      -7.3     19.205     22.697
REMARK  Name = 11913359
REMARK  5 active torsions:
REMARK  status: ('A' for Active; 'I' for Inactive)
REMARK    1  A    between atoms: N_5  and  C_12
REMARK    2  A    between atoms: N_6  and  C_13
REMARK    3  A    between atoms: N_7  and  C_18
REMARK    4  A    between atoms: C_18  and  C_22
REMARK    5  A    between atoms: C_19  and  C_23
REMARK                            x       y       z     vdW  Elec       q    Type
REMARK                         _______ _______ _______ _____ _____    ______ ____
ROOT
ATOM      2  O   UNL     1       5.634  13.495   4.458  0.00  0.00    -0.370 OA
ATOM      3  O   UNL     1       3.790  11.275   3.271  0.00  0.00    -0.370 OA
ATOM     10  C   UNL     1       3.946  11.823   4.590  0.00  0.00    +0.171 C 
ATOM     11  C   UNL     1       5.422  12.113   4.786  0.00  0.00    +0.171 C 
ATOM     12  C   UNL     1       3.290  13.181   4.676  0.00  0.00    +0.130 C 
ATOM     13  C   UNL     1       6.109  11.221   3.776  0.00  0.00    +0.131 C 
ATOM     14  C   UNL     1       4.372  14.108   4.154  0.00  0.00    +0.185 C 
ATOM     15  C   UNL     1       5.083  11.146   2.659  0.00  0.00    +0.185 C 
ENDROOT
BRANCH  12   5
ATOM      5  N   UNL     1       2.982  13.496   6.054  0.00  0.00    -0.306 N 
ATOM      8  N   UNL     1       1.123  12.065   6.081  0.00  0.00    -0.214 NA
ATOM      9  N   UNL     1       1.742  13.328   8.038  0.00  0.00    -0.223 NA
ATOM     16  C   UNL     1       1.917  12.947   6.745  0.00  0.00    +0.216 A 
ATOM     19  C   UNL     1       0.094  11.549   6.785  0.00  0.00    +0.076 A 
ATOM     20  C   UNL     1       0.693  12.773   8.682  0.00  0.00    +0.116 A 
ATOM     21  C   UNL     1      -0.172  11.869   8.102  0.00  0.00    +0.048 A 
ATOM     34  H   UNL     1       3.597  14.112   6.573  0.00  0.00    +0.149 HD
BRANCH  19  23
ATOM      1  F   UNL     1      -1.523   9.697   2.629  0.00  0.00    -0.205 F 
ATOM     23  C   UNL     1      -0.735  10.614   6.063  0.00  0.00    +0.003 A 
ATOM     26  C   UNL     1      -0.730  10.605   4.666  0.00  0.00    +0.048 A 
ATOM     27  C   UNL     1      -1.548   9.716   6.757  0.00  0.00    +0.010 A 
ATOM     30  C   UNL     1      -1.531   9.703   3.968  0.00  0.00    +0.124 A 
ATOM     31  C   UNL     1      -2.349   8.813   6.060  0.00  0.00    +0.003 A 
ATOM     33  C   UNL     1      -2.341   8.806   4.665  0.00  0.00    +0.038 A 
ENDBRANCH  19  23
ENDBRANCH  12   5
BRANCH  13   6
ATOM      4  O   UNL     1       8.538   9.686   3.508  0.00  0.00    -0.253 OA
ATOM      6  N   UNL     1       6.378   9.916   4.328  0.00  0.00    -0.292 N 
ATOM      7  N   UNL     1       7.576   8.006   4.788  0.00  0.00    -0.295 N 
ATOM     17  C   UNL     1       7.585   9.243   4.149  0.00  0.00    +0.300 C 
ATOM     35  H   UNL     1       5.678   9.492   4.931  0.00  0.00    +0.151 HD
ATOM     36  H   UNL     1       6.750   7.734   5.312  0.00  0.00    +0.151 HD
BRANCH   7  18
ATOM     18  C   UNL     1       8.702   7.103   4.761  0.00  0.00    +0.141 C 
BRANCH  18  22
ATOM     22  C   UNL     1       9.005   6.543   6.121  0.00  0.00    -0.030 A 
ATOM     24  C   UNL     1       8.706   7.289   7.254  0.00  0.00    +0.005 A 
ATOM     25  C   UNL     1       9.583   5.284   6.233  0.00  0.00    +0.005 A 
ATOM     28  C   UNL     1       8.987   6.770   8.518  0.00  0.00    +0.000 A 
ATOM     29  C   UNL     1       9.865   4.764   7.496  0.00  0.00    +0.000 A 
ATOM     32  C   UNL     1       9.568   5.507   8.638  0.00  0.00    +0.000 A 
ENDBRANCH  18  22
ENDBRANCH   7  18
ENDBRANCH  13   6
TORSDOF 5
ENDMDL
MODEL 9
REMARK VINA RESULT:      -7.3     28.982     32.006
REMARK  Name = 11913359
REMARK  5 active torsions:
REMARK  status: ('A' for Active; 'I' for Inactive)
REMARK    1  A    between atoms: N_5  and  C_12
REMARK    2  A    between atoms: N_6  and  C_13
REMARK    3  A    between atoms: N_7  and  C_18
REMARK    4  A    between atoms: C_18  and  C_22
REMARK    5  A    between atoms: C_19  and  C_23
REMARK                            x       y       z     vdW  Elec       q    Type
REMARK                         _______ _______ _______ _____ _____    ______ ____
ROOT
ATOM      2  O   UNL     1     -11.583 -10.844  15.392  0.00  0.00    -0.370 OA
ATOM      3  O   UNL     1      -9.499  -9.440  13.542  0.00  0.00    -0.370 OA
ATOM     10  C   UNL     1      -9.656  -9.514  14.969  0.00  0.00    +0.171 C 
ATOM     11  C   UNL     1     -11.144  -9.482  15.260  0.00  0.00    +0.171 C 
ATOM     12  C   UNL     1      -9.209 -10.864  15.477  0.00  0.00    +0.130 C 
ATOM     13  C   UNL     1     -11.747  -8.853  14.025  0.00  0.00    +0.131 C 
ATOM     14  C   UNL     1     -10.449 -11.718  15.289  0.00  0.00    +0.185 C 
ATOM     15  C   UNL     1     -10.791  -9.299  12.933  0.00  0.00    +0.185 C 
ENDROOT
BRANCH  12   5
ATOM      5  N   UNL     1      -8.870 -10.777  16.881  0.00  0.00    -0.306 N 
ATOM      8  N   UNL     1      -6.567 -10.721  16.434  0.00  0.00    -0.214 NA
ATOM      9  N   UNL     1      -7.392 -10.627  18.696  0.00  0.00    -0.223 NA
ATOM     16  C   UNL     1      -7.571 -10.706  17.352  0.00  0.00    +0.216 A 
ATOM     19  C   UNL     1      -5.314 -10.650  16.928  0.00  0.00    +0.076 A 
ATOM     20  C   UNL     1      -6.112 -10.559  19.121  0.00  0.00    +0.116 A 
ATOM     21  C   UNL     1      -5.023 -10.566  18.275  0.00  0.00    +0.048 A 
ATOM     34  H   UNL     1      -9.611 -10.714  17.569  0.00  0.00    +0.149 HD
BRANCH  19  23
ATOM      1  F   UNL     1      -0.627 -10.712  15.764  0.00  0.00    -0.205 F 
ATOM     23  C   UNL     1      -4.263 -10.665  15.938  0.00  0.00    +0.003 A 
ATOM     26  C   UNL     1      -2.924 -10.681  16.336  0.00  0.00    +0.048 A 
ATOM     27  C   UNL     1      -4.581 -10.662  14.578  0.00  0.00    +0.010 A 
ATOM     30  C   UNL     1      -1.910 -10.696  15.380  0.00  0.00    +0.124 A 
ATOM     31  C   UNL     1      -3.567 -10.677  13.622  0.00  0.00    +0.003 A 
ATOM     33  C   UNL     1      -2.231 -10.694  14.022  0.00  0.00    +0.038 A 
ENDBRANCH  19  23
ENDBRANCH  12   5
BRANCH  13   6
ATOM      4  O   UNL     1     -13.697  -7.065  12.870  0.00  0.00    -0.253 OA
ATOM      6  N   UNL     1     -11.781  -7.415  14.135  0.00  0.00    -0.292 N 
ATOM      7  N   UNL     1     -12.558  -5.274  13.806  0.00  0.00    -0.295 N 
ATOM     17  C   UNL     1     -12.764  -6.625  13.542  0.00  0.00    +0.300 C 
ATOM     35  H   UNL     1     -11.091  -6.958  14.725  0.00  0.00    +0.151 HD
ATOM     36  H   UNL     1     -11.771  -5.005  14.390  0.00  0.00    +0.151 HD
BRANCH   7  18
ATOM     18  C   UNL     1     -13.431  -4.237  13.310  0.00  0.00    +0.141 C 
BRANCH  18  22
ATOM     22  C   UNL     1     -13.184  -3.944  11.858  0.00  0.00    -0.030 A 
ATOM     24  C   UNL     1     -11.882  -3.797  11.397  0.00  0.00    +0.005 A 
ATOM     25  C   UNL     1     -14.262  -3.821  10.989  0.00  0.00    +0.005 A 
ATOM     28  C   UNL     1     -11.652  -3.525  10.048  0.00  0.00    +0.000 A 
ATOM     29  C   UNL     1     -14.033  -3.548   9.640  0.00  0.00    +0.000 A 
ATOM     32  C   UNL     1     -12.729  -3.400   9.170  0.00  0.00    +0.000 A 
ENDBRANCH  18  22
ENDBRANCH   7  18
ENDBRANCH  13   6
TORSDOF 5
ENDMDL
MODEL 10
REMARK VINA RESULT:      -7.3     11.834     13.653
REMARK  Name = 11913359
REMARK  5 active torsions:
REMARK  status: ('A' for Active; 'I' for Inactive)
REMARK    1  A    between atoms: N_5  and  C_12
REMARK    2  A    between atoms: N_6  and  C_13
REMARK    3  A    between atoms: N_7  and  C_18
REMARK    4  A    between atoms: C_18  and  C_22
REMARK    5  A    between atoms: C_19  and  C_23
REMARK                            x       y       z     vdW  Elec       q    Type
REMARK                         _______ _______ _______ _____ _____    ______ ____
ROOT
ATOM      2  O   UNL     1      19.209  -2.913  31.713  0.00  0.00    -0.370 OA
ATOM      3  O   UNL     1      16.694  -2.563  29.900  0.00  0.00    -0.370 OA
ATOM     10  C   UNL     1      17.995  -1.954  29.905  0.00  0.00    +0.171 C 
ATOM     11  C   UNL     1      18.404  -1.778  31.355  0.00  0.00    +0.171 C 
ATOM     12  C   UNL     1      19.024  -2.907  29.345  0.00  0.00    +0.130 C 
ATOM     13  C   UNL     1      17.095  -1.803  32.112  0.00  0.00    +0.131 C 
ATOM     14  C   UNL     1      19.401  -3.741  30.556  0.00  0.00    +0.185 C 
ATOM     15  C   UNL     1      16.241  -2.718  31.254  0.00  0.00    +0.185 C 
ENDROOT
BRANCH  12   5
ATOM      5  N   UNL     1      20.174  -2.170  28.867  0.00  0.00    -0.306 N 
ATOM      8  N   UNL     1      19.334  -2.063  26.679  0.00  0.00    -0.214 NA
ATOM      9  N   UNL     1      21.455  -1.068  27.241  0.00  0.00    -0.223 NA
ATOM     16  C   UNL     1      20.326  -1.754  27.557  0.00  0.00    +0.216 A 
ATOM     19  C   UNL     1      19.515  -1.642  25.410  0.00  0.00    +0.076 A 
ATOM     20  C   UNL     1      21.572  -0.677  25.954  0.00  0.00    +0.116 A 
ATOM     21  C   UNL     1      20.624  -0.938  24.986  0.00  0.00    +0.048 A 
ATOM     34  H   UNL     1      20.894  -1.890  29.524  0.00  0.00    +0.149 HD
BRANCH  19  23
ATOM      1  F   UNL     1      16.870  -4.924  23.053  0.00  0.00    -0.205 F 
ATOM     23  C   UNL     1      18.450  -1.978  24.495  0.00  0.00    +0.003 A 
ATOM     26  C   UNL     1      18.167  -3.316  24.209  0.00  0.00    +0.048 A 
ATOM     27  C   UNL     1      17.700  -0.968  23.891  0.00  0.00    +0.010 A 
ATOM     30  C   UNL     1      17.139  -3.641  23.325  0.00  0.00    +0.124 A 
ATOM     31  C   UNL     1      16.672  -1.292  23.007  0.00  0.00    +0.003 A 
ATOM     33  C   UNL     1      16.391  -2.629  22.724  0.00  0.00    +0.038 A 
ENDBRANCH  19  23
ENDBRANCH  12   5
BRANCH  13   6
ATOM      4  O   UNL     1      17.853   0.305  33.932  0.00  0.00    -0.253 OA
ATOM      6  N   UNL     1      16.520  -0.483  32.202  0.00  0.00    -0.292 N 
ATOM      7  N   UNL     1      16.224   1.660  32.988  0.00  0.00    -0.295 N 
ATOM     17  C   UNL     1      16.949   0.478  33.116  0.00  0.00    +0.300 C 
ATOM     35  H   UNL     1      15.809  -0.217  31.526  0.00  0.00    +0.151 HD
ATOM     36  H   UNL     1      15.508   1.718  32.269  0.00  0.00    +0.151 HD
BRANCH   7  18
ATOM     18  C   UNL     1      16.464   2.819  33.814  0.00  0.00    +0.141 C 
BRANCH  18  22
ATOM     22  C   UNL     1      16.774   4.038  32.993  0.00  0.00    -0.030 A 
ATOM     24  C   UNL     1      16.611   3.999  31.614  0.00  0.00    +0.005 A 
ATOM     25  C   UNL     1      17.222   5.194  33.622  0.00  0.00    +0.005 A 
ATOM     28  C   UNL     1      16.899   5.131  30.851  0.00  0.00    +0.000 A 
ATOM     29  C   UNL     1      17.511   6.326  32.859  0.00  0.00    +0.000 A 
ATOM     32  C   UNL     1      17.350   6.295  31.475  0.00  0.00    +0.000 A 
ENDBRANCH  18  22
ENDBRANCH   7  18
ENDBRANCH  13   6
TORSDOF 5
ENDMDL
