MODEL 1
REMARK VINA RESULT:      -6.6      0.000      0.000
REMARK  Name = 75536997
REMARK  5 active torsions:
REMARK  status: ('A' for Active; 'I' for Inactive)
REMARK    1  A    between atoms: N_5  and  C_14
REMARK    2  A    between atoms: N_7  and  C_17
REMARK    3  A    between atoms: C_14  and  C_16
REMARK    4  A    between atoms: C_17  and  C_20
REMARK    5  A    between atoms: C_17  and  C_21
REMARK                            x       y       z     vdW  Elec       q    Type
REMARK                         _______ _______ _______ _____ _____    ______ ____
ROOT
ATOM      2  O   UNL     1     -17.206   1.921  22.682  0.00  0.00    -0.252 OA
ATOM      3  O   UNL     1     -16.476   0.265  29.355  0.00  0.00    -0.253 OA
ATOM      4  N   UNL     1     -16.642   2.142  24.952  0.00  0.00    -0.278 N 
ATOM      5  N   UNL     1     -16.510   3.961  23.638  0.00  0.00    -0.279 N 
ATOM      6  N   UNL     1     -16.875   1.845  27.707  0.00  0.00    -0.282 N 
ATOM      7  N   UNL     1     -15.759   2.414  29.712  0.00  0.00    -0.297 N 
ATOM      8  C   UNL     1     -16.078   3.173  25.807  0.00  0.00    +0.112 C 
ATOM      9  C   UNL     1     -16.204   4.445  24.973  0.00  0.00    +0.133 C 
ATOM     10  C   UNL     1     -16.815   3.209  27.143  0.00  0.00    +0.133 C 
ATOM     11  C   UNL     1     -16.848   0.802  25.472  0.00  0.00    +0.128 C 
ATOM     12  C   UNL     1     -17.543   0.868  26.831  0.00  0.00    +0.128 C 
ATOM     13  C   UNL     1     -16.829   2.589  23.636  0.00  0.00    +0.306 C 
ATOM     15  C   UNL     1     -16.379   1.430  28.952  0.00  0.00    +0.303 C 
ATOM     25  H   UNL     1     -15.559   3.324  29.320  0.00  0.00    +0.150 HD
ENDROOT
BRANCH   7  17
ATOM     17  C   UNL     1     -15.192   2.139  31.013  0.00  0.00    +0.068 C 
ATOM     20  C   UNL     1     -15.420   3.319  31.950  0.00  0.00    +0.027 C 
ATOM     21  C   UNL     1     -13.710   1.808  30.892  0.00  0.00    +0.027 C 
ENDBRANCH   7  17
BRANCH   5  14
ATOM     14  C   UNL     1     -16.606   4.853  22.503  0.00  0.00    +0.144 C 
BRANCH  14  16
ATOM      1  F   UNL     1     -11.623   7.103  21.161  0.00  0.00    -0.205 F 
ATOM     16  C   UNL     1     -15.278   5.452  22.145  0.00  0.00    -0.030 A 
ATOM     18  C   UNL     1     -15.210   6.759  21.662  0.00  0.00    +0.008 A 
ATOM     19  C   UNL     1     -14.111   4.703  22.296  0.00  0.00    +0.008 A 
ATOM     22  C   UNL     1     -13.976   7.317  21.330  0.00  0.00    +0.038 A 
ATOM     23  C   UNL     1     -12.876   5.261  21.964  0.00  0.00    +0.038 A 
ATOM     24  C   UNL     1     -12.808   6.568  21.481  0.00  0.00    +0.123 A 
ENDBRANCH  14  16
ENDBRANCH   5  14
TORSDOF 3
ENDMDL
MODEL 2
REMARK VINA RESULT:      -6.4     20.217     21.559
REMARK  Name = 75536997
REMARK  5 active torsions:
REMARK  status: ('A' for Active; 'I' for Inactive)
REMARK    1  A    between atoms: N_5  and  C_14
REMARK    2  A    between atoms: N_7  and  C_17
REMARK    3  A    between atoms: C_14  and  C_16
REMARK    4  A    between atoms: C_17  and  C_20
REMARK    5  A    between atoms: C_17  and  C_21
REMARK                            x       y       z     vdW  Elec       q    Type
REMARK                         _______ _______ _______ _____ _____    ______ ____
ROOT
ATOM      2  O   UNL     1      -2.011 -10.349  15.393  0.00  0.00    -0.252 OA
ATOM      3  O   UNL     1      -6.915 -11.868  20.024  0.00  0.00    -0.253 OA
ATOM      4  N   UNL     1      -3.915 -11.363  16.326  0.00  0.00    -0.278 N 
ATOM      5  N   UNL     1      -3.150 -12.137  14.359  0.00  0.00    -0.279 N 
ATOM      6  N   UNL     1      -5.531 -12.506  18.278  0.00  0.00    -0.282 N 
ATOM      7  N   UNL     1      -7.680 -13.453  18.553  0.00  0.00    -0.297 N 
ATOM      8  C   UNL     1      -4.894 -12.356  15.916  0.00  0.00    +0.112 C 
ATOM      9  C   UNL     1      -4.248 -13.023  14.704  0.00  0.00    +0.133 C 
ATOM     10  C   UNL     1      -5.203 -13.299  17.076  0.00  0.00    +0.133 C 
ATOM     11  C   UNL     1      -4.105 -10.625  17.563  0.00  0.00    +0.128 C 
ATOM     12  C   UNL     1      -4.460 -11.587  18.696  0.00  0.00    +0.128 C 
ATOM     13  C   UNL     1      -2.914 -11.175  15.361  0.00  0.00    +0.306 C 
ATOM     15  C   UNL     1      -6.721 -12.564  19.021  0.00  0.00    +0.303 C 
ATOM     25  H   UNL     1      -7.572 -13.912  17.660  0.00  0.00    +0.150 HD
ENDROOT
BRANCH   7  17
ATOM     17  C   UNL     1      -8.958 -13.621  19.207  0.00  0.00    +0.068 C 
ATOM     20  C   UNL     1      -9.360 -15.090  19.218  0.00  0.00    +0.027 C 
ATOM     21  C   UNL     1     -10.021 -12.762  18.533  0.00  0.00    +0.027 C 
ENDBRANCH   7  17
BRANCH   5  14
ATOM     14  C   UNL     1      -2.334 -12.350  13.184  0.00  0.00    +0.144 C 
BRANCH  14  16
ATOM      1  F   UNL     1      -3.591  -8.731   9.058  0.00  0.00    -0.205 F 
ATOM     16  C   UNL     1      -2.669 -11.386  12.084  0.00  0.00    -0.030 A 
ATOM     18  C   UNL     1      -3.780 -11.612  11.272  0.00  0.00    +0.008 A 
ATOM     19  C   UNL     1      -1.869 -10.262  11.873  0.00  0.00    +0.008 A 
ATOM     22  C   UNL     1      -4.092 -10.716  10.250  0.00  0.00    +0.038 A 
ATOM     23  C   UNL     1      -2.180  -9.366  10.851  0.00  0.00    +0.038 A 
ATOM     24  C   UNL     1      -3.293  -9.592  10.039  0.00  0.00    +0.123 A 
ENDBRANCH  14  16
ENDBRANCH   5  14
TORSDOF 3
ENDMDL
MODEL 3
REMARK VINA RESULT:      -6.4     19.749     21.212
REMARK  Name = 75536997
REMARK  5 active torsions:
REMARK  status: ('A' for Active; 'I' for Inactive)
REMARK    1  A    between atoms: N_5  and  C_14
REMARK    2  A    between atoms: N_7  and  C_17
REMARK    3  A    between atoms: C_14  and  C_16
REMARK    4  A    between atoms: C_17  and  C_20
REMARK    5  A    between atoms: C_17  and  C_21
REMARK                            x       y       z     vdW  Elec       q    Type
REMARK                         _______ _______ _______ _____ _____    ______ ____
ROOT
ATOM      2  O   UNL     1      -1.415 -11.346  15.138  0.00  0.00    -0.252 OA
ATOM      3  O   UNL     1      -7.146 -10.410  18.891  0.00  0.00    -0.253 OA
ATOM      4  N   UNL     1      -3.658 -10.860  15.640  0.00  0.00    -0.278 N 
ATOM      5  N   UNL     1      -3.064 -11.044  13.480  0.00  0.00    -0.279 N 
ATOM      6  N   UNL     1      -6.117 -11.069  16.921  0.00  0.00    -0.282 N 
ATOM      7  N   UNL     1      -8.273 -10.100  16.918  0.00  0.00    -0.297 N 
ATOM      8  C   UNL     1      -4.856 -10.503  14.898  0.00  0.00    +0.112 C 
ATOM      9  C   UNL     1      -4.503 -10.847  13.453  0.00  0.00    +0.133 C 
ATOM     10  C   UNL     1      -6.063 -11.250  15.456  0.00  0.00    +0.133 C 
ATOM     11  C   UNL     1      -3.668 -10.825  17.092  0.00  0.00    +0.128 C 
ATOM     12  C   UNL     1      -4.911 -11.538  17.624  0.00  0.00    +0.128 C 
ATOM     13  C   UNL     1      -2.565 -11.109  14.796  0.00  0.00    +0.306 C 
ATOM     15  C   UNL     1      -7.177 -10.521  17.660  0.00  0.00    +0.303 C 
ATOM     25  H   UNL     1      -8.235 -10.063  15.909  0.00  0.00    +0.150 HD
ENDROOT
BRANCH   7  17
ATOM     17  C   UNL     1      -9.439  -9.509  17.535  0.00  0.00    +0.068 C 
ATOM     20  C   UNL     1     -10.693 -10.281  17.145  0.00  0.00    +0.027 C 
ATOM     21  C   UNL     1      -9.557  -8.037  17.158  0.00  0.00    +0.027 C 
ENDBRANCH   7  17
BRANCH   5  14
ATOM     14  C   UNL     1      -2.301 -11.286  12.275  0.00  0.00    +0.144 C 
BRANCH  14  16
ATOM      1  F   UNL     1      -5.062  -9.619   7.660  0.00  0.00    -0.205 F 
ATOM     16  C   UNL     1      -3.037 -10.842  11.045  0.00  0.00    -0.030 A 
ATOM     18  C   UNL     1      -3.711 -11.777  10.259  0.00  0.00    +0.008 A 
ATOM     19  C   UNL     1      -3.047  -9.494  10.687  0.00  0.00    +0.008 A 
ATOM     22  C   UNL     1      -4.395 -11.364   9.116  0.00  0.00    +0.038 A 
ATOM     23  C   UNL     1      -3.731  -9.081   9.544  0.00  0.00    +0.038 A 
ATOM     24  C   UNL     1      -4.406 -10.016   8.758  0.00  0.00    +0.123 A 
ENDBRANCH  14  16
ENDBRANCH   5  14
TORSDOF 3
ENDMDL
MODEL 4
REMARK VINA RESULT:      -6.2     18.214     19.771
REMARK  Name = 75536997
REMARK  5 active torsions:
REMARK  status: ('A' for Active; 'I' for Inactive)
REMARK    1  A    between atoms: N_5  and  C_14
REMARK    2  A    between atoms: N_7  and  C_17
REMARK    3  A    between atoms: C_14  and  C_16
REMARK    4  A    between atoms: C_17  and  C_20
REMARK    5  A    between atoms: C_17  and  C_21
REMARK                            x       y       z     vdW  Elec       q    Type
REMARK                         _______ _______ _______ _____ _____    ______ ____
ROOT
ATOM      2  O   UNL     1      -4.117 -11.769  18.870  0.00  0.00    -0.252 OA
ATOM      3  O   UNL     1     -10.620  -9.428  18.692  0.00  0.00    -0.253 OA
ATOM      4  N   UNL     1      -6.002 -10.570  18.142  0.00  0.00    -0.278 N 
ATOM      5  N   UNL     1      -4.171 -10.571  16.839  0.00  0.00    -0.279 N 
ATOM      6  N   UNL     1      -8.680 -10.060  17.594  0.00  0.00    -0.282 N 
ATOM      7  N   UNL     1     -10.083  -8.363  16.734  0.00  0.00    -0.297 N 
ATOM      8  C   UNL     1      -6.322  -9.658  17.057  0.00  0.00    +0.112 C 
ATOM      9  C   UNL     1      -5.168  -9.843  16.075  0.00  0.00    +0.133 C 
ATOM     10  C   UNL     1      -7.702  -9.981  16.490  0.00  0.00    +0.133 C 
ATOM     11  C   UNL     1      -6.965 -10.796  19.206  0.00  0.00    +0.128 C 
ATOM     12  C   UNL     1      -8.346 -11.069  18.613  0.00  0.00    +0.128 C 
ATOM     13  C   UNL     1      -4.689 -11.057  18.056  0.00  0.00    +0.306 C 
ATOM     15  C   UNL     1      -9.848  -9.295  17.736  0.00  0.00    +0.303 C 
ATOM     25  H   UNL     1      -9.381  -8.162  16.035  0.00  0.00    +0.150 HD
ENDROOT
BRANCH   7  17
ATOM     17  C   UNL     1     -11.240  -7.496  16.744  0.00  0.00    +0.068 C 
ATOM     20  C   UNL     1     -12.436  -8.202  16.118  0.00  0.00    +0.027 C 
ATOM     21  C   UNL     1     -10.934  -6.187  16.028  0.00  0.00    +0.027 C 
ENDBRANCH   7  17
BRANCH   5  14
ATOM     14  C   UNL     1      -2.858 -10.863  16.305  0.00  0.00    +0.144 C 
BRANCH  14  16
ATOM      1  F   UNL     1      -3.084 -12.423  10.899  0.00  0.00    -0.205 F 
ATOM     16  C   UNL     1      -2.918 -11.279  14.864  0.00  0.00    -0.030 A 
ATOM     18  C   UNL     1      -3.529 -12.482  14.509  0.00  0.00    +0.008 A 
ATOM     19  C   UNL     1      -2.363 -10.463  13.878  0.00  0.00    +0.008 A 
ATOM     22  C   UNL     1      -3.586 -12.868  13.171  0.00  0.00    +0.038 A 
ATOM     23  C   UNL     1      -2.419 -10.849  12.539  0.00  0.00    +0.038 A 
ATOM     24  C   UNL     1      -3.031 -12.052  12.185  0.00  0.00    +0.123 A 
ENDBRANCH  14  16
ENDBRANCH   5  14
TORSDOF 3
ENDMDL
MODEL 5
REMARK VINA RESULT:      -6.1     21.930     24.333
REMARK  Name = 75536997
REMARK  5 active torsions:
REMARK  status: ('A' for Active; 'I' for Inactive)
REMARK    1  A    between atoms: N_5  and  C_14
REMARK    2  A    between atoms: N_7  and  C_17
REMARK    3  A    between atoms: C_14  and  C_16
REMARK    4  A    between atoms: C_17  and  C_20
REMARK    5  A    between atoms: C_17  and  C_21
REMARK                            x       y       z     vdW  Elec       q    Type
REMARK                         _______ _______ _______ _____ _____    ______ ____
ROOT
ATOM      2  O   UNL     1      -2.973 -13.056  11.380  0.00  0.00    -0.252 OA
ATOM      3  O   UNL     1      -7.157 -10.981   6.281  0.00  0.00    -0.253 OA
ATOM      4  N   UNL     1      -4.226 -11.609  10.016  0.00  0.00    -0.278 N 
ATOM      5  N   UNL     1      -2.836 -10.706  11.535  0.00  0.00    -0.279 N 
ATOM      6  N   UNL     1      -5.354 -10.596   7.686  0.00  0.00    -0.282 N 
ATOM      7  N   UNL     1      -6.730  -8.825   6.936  0.00  0.00    -0.297 N 
ATOM      8  C   UNL     1      -4.471 -10.179   9.934  0.00  0.00    +0.112 C 
ATOM      9  C   UNL     1      -3.371  -9.572  10.801  0.00  0.00    +0.133 C 
ATOM     10  C   UNL     1      -4.459  -9.727   8.477  0.00  0.00    +0.133 C 
ATOM     11  C   UNL     1      -4.983 -12.523   9.179  0.00  0.00    +0.128 C 
ATOM     12  C   UNL     1      -4.995 -12.023   7.735  0.00  0.00    +0.128 C 
ATOM     13  C   UNL     1      -3.307 -11.933  11.025  0.00  0.00    +0.306 C 
ATOM     15  C   UNL     1      -6.459 -10.187   6.923  0.00  0.00    +0.303 C 
ATOM     25  H   UNL     1      -6.245  -8.205   7.570  0.00  0.00    +0.150 HD
ENDROOT
BRANCH   7  17
ATOM     17  C   UNL     1      -7.838  -8.253   6.205  0.00  0.00    +0.068 C 
ATOM     20  C   UNL     1      -7.457  -8.046   4.744  0.00  0.00    +0.027 C 
ATOM     21  C   UNL     1      -8.288  -6.948   6.849  0.00  0.00    +0.027 C 
ENDBRANCH   7  17
BRANCH   5  14
ATOM     14  C   UNL     1      -1.830 -10.549  12.562  0.00  0.00    +0.144 C 
BRANCH  14  16
ATOM      1  F   UNL     1      -4.041 -10.788  17.734  0.00  0.00    -0.205 F 
ATOM     16  C   UNL     1      -2.419 -10.613  13.940  0.00  0.00    -0.030 A 
ATOM     18  C   UNL     1      -1.584 -10.613  15.058  0.00  0.00    +0.008 A 
ATOM     19  C   UNL     1      -3.803 -10.672  14.106  0.00  0.00    +0.008 A 
ATOM     22  C   UNL     1      -2.131 -10.672  16.339  0.00  0.00    +0.038 A 
ATOM     23  C   UNL     1      -4.351 -10.731  15.387  0.00  0.00    +0.038 A 
ATOM     24  C   UNL     1      -3.515 -10.731  16.504  0.00  0.00    +0.123 A 
ENDBRANCH  14  16
ENDBRANCH   5  14
TORSDOF 3
ENDMDL
MODEL 6
REMARK VINA RESULT:      -6.1     31.304     33.647
REMARK  Name = 75536997
REMARK  5 active torsions:
REMARK  status: ('A' for Active; 'I' for Inactive)
REMARK    1  A    between atoms: N_5  and  C_14
REMARK    2  A    between atoms: N_7  and  C_17
REMARK    3  A    between atoms: C_14  and  C_16
REMARK    4  A    between atoms: C_17  and  C_20
REMARK    5  A    between atoms: C_17  and  C_21
REMARK                            x       y       z     vdW  Elec       q    Type
REMARK                         _______ _______ _______ _____ _____    ______ ____
ROOT
ATOM      2  O   UNL     1      15.729   9.595  20.542  0.00  0.00    -0.252 OA
ATOM      3  O   UNL     1      21.790   7.380  23.023  0.00  0.00    -0.253 OA
ATOM      4  N   UNL     1      17.508   8.135  21.018  0.00  0.00    -0.278 N 
ATOM      5  N   UNL     1      15.899   7.435  19.612  0.00  0.00    -0.279 N 
ATOM      6  N   UNL     1      20.136   7.313  21.401  0.00  0.00    -0.282 N 
ATOM      7  N   UNL     1      21.391   5.389  21.958  0.00  0.00    -0.297 N 
ATOM      8  C   UNL     1      17.846   6.751  20.733  0.00  0.00    +0.112 C 
ATOM      9  C   UNL     1      16.881   6.365  19.614  0.00  0.00    +0.133 C 
ATOM     10  C   UNL     1      19.324   6.635  20.371  0.00  0.00    +0.133 C 
ATOM     11  C   UNL     1      18.331   8.910  21.930  0.00  0.00    +0.128 C 
ATOM     12  C   UNL     1      19.808   8.738  21.576  0.00  0.00    +0.128 C 
ATOM     13  C   UNL     1      16.303   8.523  20.411  0.00  0.00    +0.306 C 
ATOM     15  C   UNL     1      21.150   6.738  22.182  0.00  0.00    +0.303 C 
ATOM     25  H   UNL     1      20.774   4.841  21.375  0.00  0.00    +0.150 HD
ENDROOT
BRANCH   7  17
ATOM     17  C   UNL     1      22.399   4.654  22.688  0.00  0.00    +0.068 C 
ATOM     20  C   UNL     1      23.789   5.008  22.173  0.00  0.00    +0.027 C 
ATOM     21  C   UNL     1      22.141   3.155  22.597  0.00  0.00    +0.027 C 
ENDBRANCH   7  17
BRANCH   5  14
ATOM     14  C   UNL     1      14.731   7.402  18.759  0.00  0.00    +0.144 C 
BRANCH  14  16
ATOM      1  F   UNL     1       9.950   7.693  21.719  0.00  0.00    -0.205 F 
ATOM     16  C   UNL     1      13.457   7.479  19.548  0.00  0.00    -0.030 A 
ATOM     18  C   UNL     1      13.251   6.620  20.627  0.00  0.00    +0.008 A 
ATOM     19  C   UNL     1      12.478   8.411  19.202  0.00  0.00    +0.008 A 
ATOM     22  C   UNL     1      12.067   6.692  21.361  0.00  0.00    +0.038 A 
ATOM     23  C   UNL     1      11.293   8.483  19.936  0.00  0.00    +0.038 A 
ATOM     24  C   UNL     1      11.088   7.624  21.015  0.00  0.00    +0.123 A 
ENDBRANCH  14  16
ENDBRANCH   5  14
TORSDOF 3
ENDMDL
MODEL 7
REMARK VINA RESULT:      -5.9      2.809      7.541
REMARK  Name = 75536997
REMARK  5 active torsions:
REMARK  status: ('A' for Active; 'I' for Inactive)
REMARK    1  A    between atoms: N_5  and  C_14
REMARK    2  A    between atoms: N_7  and  C_17
REMARK    3  A    between atoms: C_14  and  C_16
REMARK    4  A    between atoms: C_17  and  C_20
REMARK    5  A    between atoms: C_17  and  C_21
REMARK                            x       y       z     vdW  Elec       q    Type
REMARK                         _______ _______ _______ _____ _____    ______ ____
ROOT
ATOM      2  O   UNL     1     -19.133   1.625  26.644  0.00  0.00    -0.252 OA
ATOM      3  O   UNL     1     -16.283   4.804  21.206  0.00  0.00    -0.253 OA
ATOM      4  N   UNL     1     -17.671   2.996  25.417  0.00  0.00    -0.278 N 
ATOM      5  N   UNL     1     -17.214   2.620  27.586  0.00  0.00    -0.279 N 
ATOM      6  N   UNL     1     -16.078   3.811  23.290  0.00  0.00    -0.282 N 
ATOM      7  N   UNL     1     -14.671   5.594  22.632  0.00  0.00    -0.297 N 
ATOM      8  C   UNL     1     -16.519   3.835  25.701  0.00  0.00    +0.112 C 
ATOM      9  C   UNL     1     -16.090   3.402  27.100  0.00  0.00    +0.133 C 
ATOM     10  C   UNL     1     -15.457   3.651  24.620  0.00  0.00    +0.133 C 
ATOM     11  C   UNL     1     -18.267   3.005  24.092  0.00  0.00    +0.128 C 
ATOM     12  C   UNL     1     -17.178   2.868  23.029  0.00  0.00    +0.128 C 
ATOM     13  C   UNL     1     -18.136   2.328  26.560  0.00  0.00    +0.306 C 
ATOM     15  C   UNL     1     -15.714   4.739  22.301  0.00  0.00    +0.303 C 
ATOM     25  H   UNL     1     -14.307   5.630  23.574  0.00  0.00    +0.150 HD
ENDROOT
BRANCH   7  17
ATOM     17  C   UNL     1     -14.188   6.607  21.722  0.00  0.00    +0.068 C 
ATOM     20  C   UNL     1     -12.738   6.331  21.344  0.00  0.00    +0.027 C 
ATOM     21  C   UNL     1     -14.346   7.994  22.332  0.00  0.00    +0.027 C 
ENDBRANCH   7  17
BRANCH   5  14
ATOM     14  C   UNL     1     -17.261   2.103  28.936  0.00  0.00    +0.144 C 
BRANCH  14  16
ATOM      1  F   UNL     1     -12.587   3.327  31.827  0.00  0.00    -0.205 F 
ATOM     16  C   UNL     1     -16.016   2.429  29.706  0.00  0.00    -0.030 A 
ATOM     18  C   UNL     1     -15.947   3.602  30.459  0.00  0.00    +0.008 A 
ATOM     19  C   UNL     1     -14.925   1.560  29.671  0.00  0.00    +0.008 A 
ATOM     22  C   UNL     1     -14.790   3.905  31.175  0.00  0.00    +0.038 A 
ATOM     23  C   UNL     1     -13.767   1.863  30.387  0.00  0.00    +0.038 A 
ATOM     24  C   UNL     1     -13.699   3.036  31.140  0.00  0.00    +0.123 A 
ENDBRANCH  14  16
ENDBRANCH   5  14
TORSDOF 3
ENDMDL
MODEL 8
REMARK VINA RESULT:      -5.9     33.251     36.773
REMARK  Name = 75536997
REMARK  5 active torsions:
REMARK  status: ('A' for Active; 'I' for Inactive)
REMARK    1  A    between atoms: N_5  and  C_14
REMARK    2  A    between atoms: N_7  and  C_17
REMARK    3  A    between atoms: C_14  and  C_16
REMARK    4  A    between atoms: C_17  and  C_20
REMARK    5  A    between atoms: C_17  and  C_21
REMARK                            x       y       z     vdW  Elec       q    Type
REMARK                         _______ _______ _______ _____ _____    ______ ____
ROOT
ATOM      2  O   UNL     1      15.518  10.901   4.463  0.00  0.00    -0.252 OA
ATOM      3  O   UNL     1      10.139   7.835   7.542  0.00  0.00    -0.253 OA
ATOM      4  N   UNL     1      14.070   9.188   5.165  0.00  0.00    -0.278 N 
ATOM      5  N   UNL     1      16.004   8.612   4.174  0.00  0.00    -0.279 N 
ATOM      6  N   UNL     1      12.350   7.795   6.847  0.00  0.00    -0.282 N 
ATOM      7  N   UNL     1      11.043   5.825   6.907  0.00  0.00    -0.297 N 
ATOM      8  C   UNL     1      14.000   7.742   5.036  0.00  0.00    +0.112 C 
ATOM      9  C   UNL     1      15.401   7.351   4.571  0.00  0.00    +0.133 C 
ATOM     10  C   UNL     1      13.568   7.117   6.359  0.00  0.00    +0.133 C 
ATOM     11  C   UNL     1      12.959   9.918   5.750  0.00  0.00    +0.128 C 
ATOM     12  C   UNL     1      12.514   9.244   7.047  0.00  0.00    +0.128 C 
ATOM     13  C   UNL     1      15.231   9.717   4.582  0.00  0.00    +0.306 C 
ATOM     15  C   UNL     1      11.113   7.195   7.129  0.00  0.00    +0.303 C 
ATOM     25  H   UNL     1      11.792   5.336   6.438  0.00  0.00    +0.150 HD
ENDROOT
BRANCH   7  17
ATOM     17  C   UNL     1       9.835   5.068   7.145  0.00  0.00    +0.068 C 
ATOM     20  C   UNL     1       9.854   4.466   8.544  0.00  0.00    +0.027 C 
ATOM     21  C   UNL     1       9.661   3.990   6.082  0.00  0.00    +0.027 C 
ENDBRANCH   7  17
BRANCH   5  14
ATOM     14  C   UNL     1      17.314   8.676   3.564  0.00  0.00    +0.144 C 
BRANCH  14  16
ATOM      1  F   UNL     1      21.426   7.815   7.313  0.00  0.00    -0.205 F 
ATOM     16  C   UNL     1      18.410   8.447   4.563  0.00  0.00    -0.030 A 
ATOM     18  C   UNL     1      18.314   8.994   5.843  0.00  0.00    +0.008 A 
ATOM     19  C   UNL     1      19.526   7.685   4.213  0.00  0.00    +0.008 A 
ATOM     22  C   UNL     1      19.332   8.781   6.772  0.00  0.00    +0.038 A 
ATOM     23  C   UNL     1      20.544   7.472   5.142  0.00  0.00    +0.038 A 
ATOM     24  C   UNL     1      20.447   8.020   6.422  0.00  0.00    +0.123 A 
ENDBRANCH  14  16
ENDBRANCH   5  14
TORSDOF 3
ENDMDL
MODEL 9
REMARK VINA RESULT:      -5.8     17.338     19.034
REMARK  Name = 75536997
REMARK  5 active torsions:
REMARK  status: ('A' for Active; 'I' for Inactive)
REMARK    1  A    between atoms: N_5  and  C_14
REMARK    2  A    between atoms: N_7  and  C_17
REMARK    3  A    between atoms: C_14  and  C_16
REMARK    4  A    between atoms: C_17  and  C_20
REMARK    5  A    between atoms: C_17  and  C_21
REMARK                            x       y       z     vdW  Elec       q    Type
REMARK                         _______ _______ _______ _____ _____    ______ ____
ROOT
ATOM      2  O   UNL     1     -10.338 -11.838  17.033  0.00  0.00    -0.252 OA
ATOM      3  O   UNL     1      -3.837 -13.176  15.094  0.00  0.00    -0.253 OA
ATOM      4  N   UNL     1      -8.070 -11.466  16.542  0.00  0.00    -0.278 N 
ATOM      5  N   UNL     1      -9.236  -9.809  17.515  0.00  0.00    -0.279 N 
ATOM      6  N   UNL     1      -5.344 -11.993  16.399  0.00  0.00    -0.282 N 
ATOM      7  N   UNL     1      -3.325 -11.012  15.657  0.00  0.00    -0.297 N 
ATOM      8  C   UNL     1      -7.147 -10.344  16.585  0.00  0.00    +0.112 C 
ATOM      9  C   UNL     1      -7.874  -9.310  17.442  0.00  0.00    +0.133 C 
ATOM     10  C   UNL     1      -5.797 -10.795  17.135  0.00  0.00    +0.133 C 
ATOM     11  C   UNL     1      -7.655 -12.723  15.943  0.00  0.00    +0.128 C 
ATOM     12  C   UNL     1      -6.280 -13.127  16.473  0.00  0.00    +0.128 C 
ATOM     13  C   UNL     1      -9.342 -11.127  17.026  0.00  0.00    +0.306 C 
ATOM     15  C   UNL     1      -4.147 -12.132  15.679  0.00  0.00    +0.303 C 
ATOM     25  H   UNL     1      -3.646 -10.124  16.015  0.00  0.00    +0.150 HD
ENDROOT
BRANCH   7  17
ATOM     17  C   UNL     1      -2.063 -10.999  14.952  0.00  0.00    +0.068 C 
ATOM     20  C   UNL     1      -1.029 -10.196  15.732  0.00  0.00    +0.027 C 
ATOM     21  C   UNL     1      -2.242 -10.447  13.543  0.00  0.00    +0.027 C 
ENDBRANCH   7  17
BRANCH   5  14
ATOM     14  C   UNL     1     -10.293  -9.059  18.158  0.00  0.00    +0.144 C 
BRANCH  14  16
ATOM      1  F   UNL     1     -13.124  -5.851  14.497  0.00  0.00    -0.205 F 
ATOM     16  C   UNL     1     -11.048  -8.204  17.182  0.00  0.00    -0.030 A 
ATOM     18  C   UNL     1     -10.493  -7.008  16.728  0.00  0.00    +0.008 A 
ATOM     19  C   UNL     1     -12.305  -8.606  16.729  0.00  0.00    +0.008 A 
ATOM     22  C   UNL     1     -11.193  -6.213  15.821  0.00  0.00    +0.038 A 
ATOM     23  C   UNL     1     -13.006  -7.811  15.822  0.00  0.00    +0.038 A 
ATOM     24  C   UNL     1     -12.450  -6.614  15.368  0.00  0.00    +0.123 A 
ENDBRANCH  14  16
ENDBRANCH   5  14
TORSDOF 3
ENDMDL
MODEL 10
REMARK VINA RESULT:      -5.8     16.812     18.476
REMARK  Name = 75536997
REMARK  5 active torsions:
REMARK  status: ('A' for Active; 'I' for Inactive)
REMARK    1  A    between atoms: N_5  and  C_14
REMARK    2  A    between atoms: N_7  and  C_17
REMARK    3  A    between atoms: C_14  and  C_16
REMARK    4  A    between atoms: C_17  and  C_20
REMARK    5  A    between atoms: C_17  and  C_21
REMARK                            x       y       z     vdW  Elec       q    Type
REMARK                         _______ _______ _______ _____ _____    ______ ____
ROOT
ATOM      2  O   UNL     1      -9.727 -10.722  19.972  0.00  0.00    -0.252 OA
ATOM      3  O   UNL     1      -3.196 -11.460  17.828  0.00  0.00    -0.253 OA
ATOM      4  N   UNL     1      -7.895 -10.835  18.505  0.00  0.00    -0.278 N 
ATOM      5  N   UNL     1      -9.875 -10.152  17.689  0.00  0.00    -0.279 N 
ATOM      6  N   UNL     1      -5.288 -10.486  17.606  0.00  0.00    -0.282 N 
ATOM      7  N   UNL     1      -3.926 -10.918  15.722  0.00  0.00    -0.297 N 
ATOM      8  C   UNL     1      -7.672 -10.686  17.077  0.00  0.00    +0.112 C 
ATOM      9  C   UNL     1      -8.949 -10.014  16.578  0.00  0.00    +0.133 C 
ATOM     10  C   UNL     1      -6.392  -9.895  16.825  0.00  0.00    +0.133 C 
ATOM     11  C   UNL     1      -6.818 -11.297  19.363  0.00  0.00    +0.128 C 
ATOM     12  C   UNL     1      -5.537 -10.522  19.057  0.00  0.00    +0.128 C 
ATOM     13  C   UNL     1      -9.230 -10.591  18.862  0.00  0.00    +0.306 C 
ATOM     15  C   UNL     1      -4.076 -10.984  17.101  0.00  0.00    +0.303 C 
ATOM     25  H   UNL     1      -4.701 -10.661  15.127  0.00  0.00    +0.150 HD
ENDROOT
BRANCH   7  17
ATOM     17  C   UNL     1      -2.737 -11.397  15.054  0.00  0.00    +0.068 C 
ATOM     20  C   UNL     1      -2.161 -10.311  14.154  0.00  0.00    +0.027 C 
ATOM     21  C   UNL     1      -3.041 -12.664  14.264  0.00  0.00    +0.027 C 
ENDBRANCH   7  17
BRANCH   5  14
ATOM     14  C   UNL     1     -11.257  -9.734  17.591  0.00  0.00    +0.144 C 
BRANCH  14  16
ATOM      1  F   UNL     1     -11.859  -5.192  14.318  0.00  0.00    -0.205 F 
ATOM     16  C   UNL     1     -11.417  -8.524  16.719  0.00  0.00    -0.030 A 
ATOM     18  C   UNL     1     -12.154  -8.607  15.537  0.00  0.00    +0.008 A 
ATOM     19  C   UNL     1     -10.830  -7.314  17.089  0.00  0.00    +0.008 A 
ATOM     22  C   UNL     1     -12.304  -7.483  14.726  0.00  0.00    +0.038 A 
ATOM     23  C   UNL     1     -10.979  -6.189  16.278  0.00  0.00    +0.038 A 
ATOM     24  C   UNL     1     -11.717  -6.273  15.097  0.00  0.00    +0.123 A 
ENDBRANCH  14  16
ENDBRANCH   5  14
TORSDOF 3
ENDMDL
