MODEL 1
REMARK VINA RESULT:      -7.9      0.000      0.000
REMARK  Name = 25338514
REMARK  8 active torsions:
REMARK  status: ('A' for Active; 'I' for Inactive)
REMARK    1  A    between atoms: O_3  and  C_28
REMARK    2  A    between atoms: O_3  and  C_33
REMARK    3  A    between atoms: N_4  and  C_13
REMARK    4  A    between atoms: N_5  and  C_8
REMARK    5  A    between atoms: C_9  and  C_12
REMARK    6  A    between atoms: C_14  and  C_15
REMARK    7  A    between atoms: C_15  and  C_18
REMARK    8  A    between atoms: C_16  and  C_17
REMARK                            x       y       z     vdW  Elec       q    Type
REMARK                         _______ _______ _______ _____ _____    ______ ____
ROOT
ATOM      4  N   UNL     1      11.411   6.921  21.647  0.00  0.00    -0.293 NA
ATOM      8  C   UNL     1      10.642   9.113  21.839  0.00  0.00    +0.089 C 
ATOM      9  C   UNL     1      11.667   7.502  20.315  0.00  0.00    +0.147 C 
ATOM     10  C   UNL     1      11.306   8.993  20.468  0.00  0.00    +0.052 C 
ATOM     11  C   UNL     1      10.288   7.680  22.206  0.00  0.00    +0.107 C 
ATOM     13  C   UNL     1      11.134   5.490  21.605  0.00  0.00    +0.105 C 
ENDROOT
BRANCH   9  12
ATOM      1  O   UNL     1      13.287   7.402  18.489  0.00  0.00    -0.336 OA
ATOM      6  N   UNL     1      14.166   7.020  20.514  0.00  0.00    -0.190 NA
ATOM      7  N   UNL     1      14.654   7.172  18.283  0.00  0.00    -0.056 NA
ATOM     12  C   UNL     1      13.085   7.294  19.829  0.00  0.00    +0.245 A 
ATOM     16  C   UNL     1      15.103   6.955  19.523  0.00  0.00    +0.202 A 
BRANCH  16  17
ATOM     17  C   UNL     1      16.480   6.671  19.806  0.00  0.00    +0.023 A 
ATOM     19  C   UNL     1      17.146   7.379  20.807  0.00  0.00    +0.020 A 
ATOM     20  C   UNL     1      17.150   5.690  19.082  0.00  0.00    +0.012 A 
ATOM     23  C   UNL     1      18.495   7.113  21.097  0.00  0.00    -0.017 A 
ATOM     24  C   UNL     1      19.177   6.115  20.360  0.00  0.00    -0.018 A 
ATOM     25  C   UNL     1      18.490   5.413  19.356  0.00  0.00    +0.009 A 
ATOM     29  C   UNL     1      19.181   7.816  22.100  0.00  0.00    +0.008 A 
ATOM     30  C   UNL     1      20.525   5.850  20.650  0.00  0.00    +0.008 A 
ATOM     31  C   UNL     1      20.520   7.539  22.374  0.00  0.00    +0.001 A 
ATOM     32  C   UNL     1      21.191   6.557  21.650  0.00  0.00    +0.001 A 
ENDBRANCH  16  17
ENDBRANCH   9  12
BRANCH   8   5
ATOM      2  O   UNL     1      11.273  11.906  22.132  0.00  0.00    -0.275 OA
ATOM      5  N   UNL     1      11.533   9.701  22.811  0.00  0.00    -0.311 N 
ATOM     14  C   UNL     1      11.775  11.066  22.875  0.00  0.00    +0.218 C 
ATOM     34  H   UNL     1      12.041   9.072  23.425  0.00  0.00    +0.149 HD
BRANCH  14  15
ATOM     15  C   UNL     1      12.743  11.408  23.990  0.00  0.00    +0.130 C 
BRANCH  15  18
ATOM     18  C   UNL     1      14.179  11.459  23.540  0.00  0.00    -0.038 A 
ATOM     21  C   UNL     1      15.018  12.474  23.997  0.00  0.00    +0.007 A 
ATOM     22  C   UNL     1      14.669  10.488  22.666  0.00  0.00    +0.007 A 
ATOM     26  C   UNL     1      16.349  12.521  23.579  0.00  0.00    +0.046 A 
ATOM     27  C   UNL     1      16.000  10.534  22.249  0.00  0.00    +0.046 A 
ATOM     28  C   UNL     1      16.840  11.550  22.705  0.00  0.00    +0.120 A 
BRANCH  28   3
ATOM      3  O   UNL     1      18.137  11.594  22.300  0.00  0.00    -0.495 OA
ATOM     33  C   UNL     1      18.398  11.312  20.926  0.00  0.00    +0.277 C 
ENDBRANCH  28   3
ENDBRANCH  15  18
ENDBRANCH  14  15
ENDBRANCH   8   5
TORSDOF 6
ENDMDL
MODEL 2
REMARK VINA RESULT:      -7.4     26.931     31.533
REMARK  Name = 25338514
REMARK  8 active torsions:
REMARK  status: ('A' for Active; 'I' for Inactive)
REMARK    1  A    between atoms: O_3  and  C_28
REMARK    2  A    between atoms: O_3  and  C_33
REMARK    3  A    between atoms: N_4  and  C_13
REMARK    4  A    between atoms: N_5  and  C_8
REMARK    5  A    between atoms: C_9  and  C_12
REMARK    6  A    between atoms: C_14  and  C_15
REMARK    7  A    between atoms: C_15  and  C_18
REMARK    8  A    between atoms: C_16  and  C_17
REMARK                            x       y       z     vdW  Elec       q    Type
REMARK                         _______ _______ _______ _____ _____    ______ ____
ROOT
ATOM      4  N   UNL     1     -17.774   4.140  24.993  0.00  0.00    -0.293 NA
ATOM      8  C   UNL     1     -16.798   3.384  23.014  0.00  0.00    +0.089 C 
ATOM      9  C   UNL     1     -17.745   2.674  25.152  0.00  0.00    +0.147 C 
ATOM     10  C   UNL     1     -16.965   2.166  23.922  0.00  0.00    +0.052 C 
ATOM     11  C   UNL     1     -17.813   4.385  23.548  0.00  0.00    +0.107 C 
ATOM     13  C   UNL     1     -18.894   4.769  25.681  0.00  0.00    +0.105 C 
ENDROOT
BRANCH   9  12
ATOM      1  O   UNL     1     -16.891   0.890  26.586  0.00  0.00    -0.336 OA
ATOM      6  N   UNL     1     -16.783   2.930  27.503  0.00  0.00    -0.190 NA
ATOM      7  N   UNL     1     -16.328   0.716  27.858  0.00  0.00    -0.056 NA
ATOM     12  C   UNL     1     -17.128   2.221  26.458  0.00  0.00    +0.245 A 
ATOM     16  C   UNL     1     -16.297   1.964  28.335  0.00  0.00    +0.202 A 
BRANCH  16  17
ATOM     17  C   UNL     1     -15.787   2.278  29.638  0.00  0.00    +0.023 A 
ATOM     19  C   UNL     1     -15.655   3.610  30.032  0.00  0.00    +0.020 A 
ATOM     20  C   UNL     1     -15.426   1.254  30.509  0.00  0.00    +0.012 A 
ATOM     23  C   UNL     1     -15.158   3.935  31.306  0.00  0.00    -0.017 A 
ATOM     24  C   UNL     1     -14.790   2.894  32.191  0.00  0.00    -0.018 A 
ATOM     25  C   UNL     1     -14.930   1.559  31.777  0.00  0.00    +0.009 A 
ATOM     29  C   UNL     1     -15.017   5.270  31.718  0.00  0.00    +0.008 A 
ATOM     30  C   UNL     1     -14.292   3.219  33.463  0.00  0.00    +0.008 A 
ATOM     31  C   UNL     1     -14.522   5.574  32.986  0.00  0.00    +0.001 A 
ATOM     32  C   UNL     1     -14.160   4.551  33.857  0.00  0.00    +0.001 A 
ENDBRANCH  16  17
ENDBRANCH   9  12
BRANCH   8   5
ATOM      2  O   UNL     1     -15.495   5.012  21.031  0.00  0.00    -0.275 OA
ATOM      5  N   UNL     1     -15.456   3.913  23.075  0.00  0.00    -0.311 N 
ATOM     14  C   UNL     1     -14.913   4.692  22.064  0.00  0.00    +0.218 C 
ATOM     34  H   UNL     1     -14.879   3.643  23.866  0.00  0.00    +0.149 HD
BRANCH  14  15
ATOM     15  C   UNL     1     -13.494   5.116  22.389  0.00  0.00    +0.130 C 
BRANCH  15  18
ATOM     18  C   UNL     1     -13.073   6.381  21.688  0.00  0.00    -0.038 A 
ATOM     21  C   UNL     1     -11.920   6.394  20.904  0.00  0.00    +0.007 A 
ATOM     22  C   UNL     1     -13.839   7.540  21.824  0.00  0.00    +0.007 A 
ATOM     26  C   UNL     1     -11.531   7.566  20.256  0.00  0.00    +0.046 A 
ATOM     27  C   UNL     1     -13.450   8.711  21.174  0.00  0.00    +0.046 A 
ATOM     28  C   UNL     1     -12.296   8.725  20.391  0.00  0.00    +0.120 A 
BRANCH  28   3
ATOM      3  O   UNL     1     -11.917   9.868  19.756  0.00  0.00    -0.495 OA
ATOM     33  C   UNL     1     -10.537   9.997  19.421  0.00  0.00    +0.277 C 
ENDBRANCH  28   3
ENDBRANCH  15  18
ENDBRANCH  14  15
ENDBRANCH   8   5
TORSDOF 6
ENDMDL
MODEL 3
REMARK VINA RESULT:      -7.3      2.103      4.805
REMARK  Name = 25338514
REMARK  8 active torsions:
REMARK  status: ('A' for Active; 'I' for Inactive)
REMARK    1  A    between atoms: O_3  and  C_28
REMARK    2  A    between atoms: O_3  and  C_33
REMARK    3  A    between atoms: N_4  and  C_13
REMARK    4  A    between atoms: N_5  and  C_8
REMARK    5  A    between atoms: C_9  and  C_12
REMARK    6  A    between atoms: C_14  and  C_15
REMARK    7  A    between atoms: C_15  and  C_18
REMARK    8  A    between atoms: C_16  and  C_17
REMARK                            x       y       z     vdW  Elec       q    Type
REMARK                         _______ _______ _______ _____ _____    ______ ____
ROOT
ATOM      4  N   UNL     1      13.001  12.561  20.771  0.00  0.00    -0.293 NA
ATOM      8  C   UNL     1      11.487  11.649  22.292  0.00  0.00    +0.089 C 
ATOM      9  C   UNL     1      13.820  12.302  21.970  0.00  0.00    +0.147 C 
ATOM     10  C   UNL     1      12.872  11.559  22.933  0.00  0.00    +0.052 C 
ATOM     11  C   UNL     1      11.630  12.753  21.255  0.00  0.00    +0.107 C 
ATOM     13  C   UNL     1      13.468  13.702  19.993  0.00  0.00    +0.105 C 
ENDROOT
BRANCH   9  12
ATOM      1  O   UNL     1      16.243  12.227  21.669  0.00  0.00    -0.336 OA
ATOM      6  N   UNL     1      15.231  10.243  21.434  0.00  0.00    -0.190 NA
ATOM      7  N   UNL     1      17.258  11.304  21.383  0.00  0.00    -0.056 NA
ATOM     12  C   UNL     1      15.083  11.520  21.681  0.00  0.00    +0.245 A 
ATOM     16  C   UNL     1      16.582  10.158  21.258  0.00  0.00    +0.202 A 
BRANCH  16  17
ATOM     17  C   UNL     1      17.226   8.912  20.959  0.00  0.00    +0.023 A 
ATOM     19  C   UNL     1      18.538   8.688  21.380  0.00  0.00    +0.020 A 
ATOM     20  C   UNL     1      16.543   7.928  20.251  0.00  0.00    +0.012 A 
ATOM     23  C   UNL     1      19.183   7.472  21.096  0.00  0.00    -0.017 A 
ATOM     24  C   UNL     1      18.488   6.472  20.375  0.00  0.00    -0.018 A 
ATOM     25  C   UNL     1      17.170   6.716  19.960  0.00  0.00    +0.009 A 
ATOM     29  C   UNL     1      20.503   7.230  21.511  0.00  0.00    +0.008 A 
ATOM     30  C   UNL     1      19.135   5.258  20.091  0.00  0.00    +0.008 A 
ATOM     31  C   UNL     1      21.128   6.018  21.220  0.00  0.00    +0.001 A 
ATOM     32  C   UNL     1      20.446   5.033  20.512  0.00  0.00    +0.001 A 
ENDBRANCH  16  17
ENDBRANCH   9  12
BRANCH   8   5
ATOM      2  O   UNL     1      10.930   9.169  23.641  0.00  0.00    -0.275 OA
ATOM      5  N   UNL     1      11.103  10.400  21.680  0.00  0.00    -0.311 N 
ATOM     14  C   UNL     1      10.854   9.251  22.417  0.00  0.00    +0.218 C 
ATOM     34  H   UNL     1      11.078  10.360  20.666  0.00  0.00    +0.149 HD
BRANCH  14  15
ATOM     15  C   UNL     1      10.464   8.089  21.524  0.00  0.00    +0.130 C 
BRANCH  15  18
ATOM     18  C   UNL     1      11.344   7.947  20.311  0.00  0.00    -0.038 A 
ATOM     21  C   UNL     1      10.992   8.574  19.116  0.00  0.00    +0.007 A 
ATOM     22  C   UNL     1      12.513   7.189  20.384  0.00  0.00    +0.007 A 
ATOM     26  C   UNL     1      11.808   8.441  17.992  0.00  0.00    +0.046 A 
ATOM     27  C   UNL     1      13.330   7.058  19.260  0.00  0.00    +0.046 A 
ATOM     28  C   UNL     1      12.977   7.683  18.064  0.00  0.00    +0.120 A 
BRANCH  28   3
ATOM      3  O   UNL     1      13.774   7.556  16.968  0.00  0.00    -0.495 OA
ATOM     33  C   UNL     1      14.002   8.731  16.192  0.00  0.00    +0.277 C 
ENDBRANCH  28   3
ENDBRANCH  15  18
ENDBRANCH  14  15
ENDBRANCH   8   5
TORSDOF 6
ENDMDL
MODEL 4
REMARK VINA RESULT:      -7.1     27.884     31.659
REMARK  Name = 25338514
REMARK  8 active torsions:
REMARK  status: ('A' for Active; 'I' for Inactive)
REMARK    1  A    between atoms: O_3  and  C_28
REMARK    2  A    between atoms: O_3  and  C_33
REMARK    3  A    between atoms: N_4  and  C_13
REMARK    4  A    between atoms: N_5  and  C_8
REMARK    5  A    between atoms: C_9  and  C_12
REMARK    6  A    between atoms: C_14  and  C_15
REMARK    7  A    between atoms: C_15  and  C_18
REMARK    8  A    between atoms: C_16  and  C_17
REMARK                            x       y       z     vdW  Elec       q    Type
REMARK                         _______ _______ _______ _____ _____    ______ ____
ROOT
ATOM      4  N   UNL     1     -10.482 -11.230  17.442  0.00  0.00    -0.293 NA
ATOM      8  C   UNL     1      -9.700 -11.094  19.635  0.00  0.00    +0.089 C 
ATOM      9  C   UNL     1     -11.391 -10.260  18.080  0.00  0.00    +0.147 C 
ATOM     10  C   UNL     1     -10.799 -10.041  19.487  0.00  0.00    +0.052 C 
ATOM     11  C   UNL     1      -9.991 -12.091  18.523  0.00  0.00    +0.107 C 
ATOM     13  C   UNL     1     -11.118 -12.000  16.380  0.00  0.00    +0.105 C 
ENDROOT
BRANCH   9  12
ATOM      1  O   UNL     1     -10.548  -8.051  17.465  0.00  0.00    -0.336 OA
ATOM      6  N   UNL     1     -12.489  -8.594  16.488  0.00  0.00    -0.190 NA
ATOM      7  N   UNL     1     -10.899  -6.958  16.661  0.00  0.00    -0.056 NA
ATOM     12  C   UNL     1     -11.537  -8.969  17.304  0.00  0.00    +0.245 A 
ATOM     16  C   UNL     1     -12.054  -7.355  16.118  0.00  0.00    +0.202 A 
BRANCH  16  17
ATOM     17  C   UNL     1     -12.796  -6.537  15.203  0.00  0.00    +0.023 A 
ATOM     19  C   UNL     1     -12.124  -5.665  14.345  0.00  0.00    +0.020 A 
ATOM     20  C   UNL     1     -14.185  -6.613  15.171  0.00  0.00    +0.012 A 
ATOM     23  C   UNL     1     -12.836  -4.858  13.442  0.00  0.00    -0.017 A 
ATOM     24  C   UNL     1     -14.249  -4.935  13.410  0.00  0.00    -0.018 A 
ATOM     25  C   UNL     1     -14.908  -5.818  14.281  0.00  0.00    +0.009 A 
ATOM     29  C   UNL     1     -12.176  -3.974  12.572  0.00  0.00    +0.008 A 
ATOM     30  C   UNL     1     -14.960  -4.127  12.509  0.00  0.00    +0.008 A 
ATOM     31  C   UNL     1     -12.900  -3.180  11.683  0.00  0.00    +0.001 A 
ATOM     32  C   UNL     1     -14.289  -3.256  11.651  0.00  0.00    +0.001 A 
ENDBRANCH  16  17
ENDBRANCH   9  12
BRANCH   8   5
ATOM      2  O   UNL     1      -7.190 -12.501  19.608  0.00  0.00    -0.275 OA
ATOM      5  N   UNL     1      -8.386 -10.514  19.491  0.00  0.00    -0.311 N 
ATOM     14  C   UNL     1      -7.228 -11.279  19.490  0.00  0.00    +0.218 C 
ATOM     34  H   UNL     1      -8.319  -9.502  19.451  0.00  0.00    +0.149 HD
BRANCH  14  15
ATOM     15  C   UNL     1      -5.992 -10.417  19.317  0.00  0.00    +0.130 C 
BRANCH  15  18
ATOM     18  C   UNL     1      -5.394 -10.501  17.938  0.00  0.00    -0.038 A 
ATOM     21  C   UNL     1      -6.021  -9.870  16.864  0.00  0.00    +0.007 A 
ATOM     22  C   UNL     1      -4.209 -11.212  17.735  0.00  0.00    +0.007 A 
ATOM     26  C   UNL     1      -5.465  -9.949  15.587  0.00  0.00    +0.046 A 
ATOM     27  C   UNL     1      -3.653 -11.289  16.458  0.00  0.00    +0.046 A 
ATOM     28  C   UNL     1      -4.282 -10.658  15.383  0.00  0.00    +0.120 A 
BRANCH  28   3
ATOM      3  O   UNL     1      -3.739 -10.733  14.138  0.00  0.00    -0.495 OA
ATOM     33  C   UNL     1      -2.315 -10.737  14.049  0.00  0.00    +0.277 C 
ENDBRANCH  28   3
ENDBRANCH  15  18
ENDBRANCH  14  15
ENDBRANCH   8   5
TORSDOF 6
ENDMDL
MODEL 5
REMARK VINA RESULT:      -7.0     28.242     30.337
REMARK  Name = 25338514
REMARK  8 active torsions:
REMARK  status: ('A' for Active; 'I' for Inactive)
REMARK    1  A    between atoms: O_3  and  C_28
REMARK    2  A    between atoms: O_3  and  C_33
REMARK    3  A    between atoms: N_4  and  C_13
REMARK    4  A    between atoms: N_5  and  C_8
REMARK    5  A    between atoms: C_9  and  C_12
REMARK    6  A    between atoms: C_14  and  C_15
REMARK    7  A    between atoms: C_15  and  C_18
REMARK    8  A    between atoms: C_16  and  C_17
REMARK                            x       y       z     vdW  Elec       q    Type
REMARK                         _______ _______ _______ _____ _____    ______ ____
ROOT
ATOM      4  N   UNL     1      -4.587 -11.500   9.328  0.00  0.00    -0.293 NA
ATOM      8  C   UNL     1      -5.315  -9.540   8.295  0.00  0.00    +0.089 C 
ATOM      9  C   UNL     1      -3.713 -10.457   9.896  0.00  0.00    +0.147 C 
ATOM     10  C   UNL     1      -4.277  -9.134   9.341  0.00  0.00    +0.052 C 
ATOM     11  C   UNL     1      -5.002 -11.002   8.012  0.00  0.00    +0.107 C 
ATOM     13  C   UNL     1      -3.941 -12.803   9.237  0.00  0.00    +0.105 C 
ENDROOT
BRANCH   9  12
ATOM      1  O   UNL     1      -2.418 -10.519  11.967  0.00  0.00    -0.336 OA
ATOM      6  N   UNL     1      -4.636 -10.457  12.276  0.00  0.00    -0.190 NA
ATOM      7  N   UNL     1      -2.618 -10.529  13.354  0.00  0.00    -0.056 NA
ATOM     12  C   UNL     1      -3.656 -10.475  11.408  0.00  0.00    +0.245 A 
ATOM     16  C   UNL     1      -3.950 -10.490  13.456  0.00  0.00    +0.202 A 
BRANCH  16  17
ATOM     17  C   UNL     1      -4.626 -10.485  14.721  0.00  0.00    +0.023 A 
ATOM     19  C   UNL     1      -4.017 -11.056  15.839  0.00  0.00    +0.020 A 
ATOM     20  C   UNL     1      -5.888  -9.909  14.833  0.00  0.00    +0.012 A 
ATOM     23  C   UNL     1      -4.665 -11.058  17.085  0.00  0.00    -0.017 A 
ATOM     24  C   UNL     1      -5.949 -10.473  17.199  0.00  0.00    -0.018 A 
ATOM     25  C   UNL     1      -6.546  -9.903  16.063  0.00  0.00    +0.009 A 
ATOM     29  C   UNL     1      -4.067 -11.629  18.221  0.00  0.00    +0.008 A 
ATOM     30  C   UNL     1      -6.596 -10.476  18.445  0.00  0.00    +0.008 A 
ATOM     31  C   UNL     1      -4.725 -11.622  19.450  0.00  0.00    +0.001 A 
ATOM     32  C   UNL     1      -5.987 -11.047  19.563  0.00  0.00    +0.001 A 
ENDBRANCH  16  17
ENDBRANCH   9  12
BRANCH   8   5
ATOM      2  O   UNL     1      -7.667  -8.977   6.735  0.00  0.00    -0.275 OA
ATOM      5  N   UNL     1      -6.661  -9.376   8.789  0.00  0.00    -0.311 N 
ATOM     14  C   UNL     1      -7.736  -9.105   7.955  0.00  0.00    +0.218 C 
ATOM     34  H   UNL     1      -6.800  -9.402   9.795  0.00  0.00    +0.149 HD
BRANCH  14  15
ATOM     15  C   UNL     1      -9.031  -8.988   8.735  0.00  0.00    +0.130 C 
BRANCH  15  18
ATOM     18  C   UNL     1      -9.543  -7.576   8.836  0.00  0.00    -0.038 A 
ATOM     21  C   UNL     1      -8.763  -6.516   8.374  0.00  0.00    +0.007 A 
ATOM     22  C   UNL     1     -10.799  -7.328   9.390  0.00  0.00    +0.007 A 
ATOM     26  C   UNL     1      -9.238  -5.207   8.467  0.00  0.00    +0.046 A 
ATOM     27  C   UNL     1     -11.274  -6.020   9.482  0.00  0.00    +0.046 A 
ATOM     28  C   UNL     1     -10.494  -4.959   9.022  0.00  0.00    +0.120 A 
BRANCH  28   3
ATOM      3  O   UNL     1     -10.958  -3.683   9.111  0.00  0.00    -0.495 OA
ATOM     33  C   UNL     1     -11.698  -3.342  10.281  0.00  0.00    +0.277 C 
ENDBRANCH  28   3
ENDBRANCH  15  18
ENDBRANCH  14  15
ENDBRANCH   8   5
TORSDOF 6
ENDMDL
MODEL 6
REMARK VINA RESULT:      -7.0     26.905     30.177
REMARK  Name = 25338514
REMARK  8 active torsions:
REMARK  status: ('A' for Active; 'I' for Inactive)
REMARK    1  A    between atoms: O_3  and  C_28
REMARK    2  A    between atoms: O_3  and  C_33
REMARK    3  A    between atoms: N_4  and  C_13
REMARK    4  A    between atoms: N_5  and  C_8
REMARK    5  A    between atoms: C_9  and  C_12
REMARK    6  A    between atoms: C_14  and  C_15
REMARK    7  A    between atoms: C_15  and  C_18
REMARK    8  A    between atoms: C_16  and  C_17
REMARK                            x       y       z     vdW  Elec       q    Type
REMARK                         _______ _______ _______ _____ _____    ______ ____
ROOT
ATOM      4  N   UNL     1      -8.824  -8.068   9.280  0.00  0.00    -0.293 NA
ATOM      8  C   UNL     1      -7.195  -9.363   8.227  0.00  0.00    +0.089 C 
ATOM      9  C   UNL     1      -9.106  -9.437   9.748  0.00  0.00    +0.147 C 
ATOM     10  C   UNL     1      -7.949 -10.286   9.184  0.00  0.00    +0.052 C 
ATOM     11  C   UNL     1      -8.165  -8.216   7.979  0.00  0.00    +0.107 C 
ATOM     13  C   UNL     1     -10.016  -7.233   9.194  0.00  0.00    +0.105 C 
ENDROOT
BRANCH   9  12
ATOM      1  O   UNL     1     -10.488  -9.508  11.762  0.00  0.00    -0.336 OA
ATOM      6  N   UNL     1      -8.289  -9.678  12.154  0.00  0.00    -0.190 NA
ATOM      7  N   UNL     1     -10.348  -9.625  13.151  0.00  0.00    -0.056 NA
ATOM     12  C   UNL     1      -9.229  -9.548  11.252  0.00  0.00    +0.245 A 
ATOM     16  C   UNL     1      -9.024  -9.722  13.303  0.00  0.00    +0.202 A 
BRANCH  16  17
ATOM     17  C   UNL     1      -8.404  -9.862  14.589  0.00  0.00    +0.023 A 
ATOM     19  C   UNL     1      -7.060 -10.228  14.678  0.00  0.00    +0.020 A 
ATOM     20  C   UNL     1      -9.143  -9.635  15.746  0.00  0.00    +0.012 A 
ATOM     23  C   UNL     1      -6.438 -10.369  15.930  0.00  0.00    -0.017 A 
ATOM     24  C   UNL     1      -7.189 -10.137  17.107  0.00  0.00    -0.018 A 
ATOM     25  C   UNL     1      -8.540  -9.771  16.997  0.00  0.00    +0.009 A 
ATOM     29  C   UNL     1      -5.086 -10.736  16.039  0.00  0.00    +0.008 A 
ATOM     30  C   UNL     1      -6.567 -10.280  18.358  0.00  0.00    +0.008 A 
ATOM     31  C   UNL     1      -4.485 -10.872  17.290  0.00  0.00    +0.001 A 
ATOM     32  C   UNL     1      -5.223 -10.645  18.447  0.00  0.00    +0.001 A 
ENDBRANCH  16  17
ENDBRANCH   9  12
BRANCH   8   5
ATOM      2  O   UNL     1      -4.663 -10.730   8.237  0.00  0.00    -0.275 OA
ATOM      5  N   UNL     1      -5.960  -8.891   8.806  0.00  0.00    -0.311 N 
ATOM     14  C   UNL     1      -4.784  -9.625   8.760  0.00  0.00    +0.218 C 
ATOM     34  H   UNL     1      -5.984  -8.013   9.317  0.00  0.00    +0.149 HD
BRANCH  14  15
ATOM     15  C   UNL     1      -3.643  -8.893   9.438  0.00  0.00    +0.130 C 
BRANCH  15  18
ATOM     18  C   UNL     1      -3.216  -9.523  10.737  0.00  0.00    -0.038 A 
ATOM     21  C   UNL     1      -1.866  -9.562  11.085  0.00  0.00    +0.007 A 
ATOM     22  C   UNL     1      -4.174 -10.068  11.594  0.00  0.00    +0.007 A 
ATOM     26  C   UNL     1      -1.472 -10.146  12.289  0.00  0.00    +0.046 A 
ATOM     27  C   UNL     1      -3.779 -10.651  12.799  0.00  0.00    +0.046 A 
ATOM     28  C   UNL     1      -2.428 -10.691  13.146  0.00  0.00    +0.120 A 
BRANCH  28   3
ATOM      3  O   UNL     1      -2.044 -11.259  14.321  0.00  0.00    -0.495 OA
ATOM     33  C   UNL     1      -1.369 -10.421  15.257  0.00  0.00    +0.277 C 
ENDBRANCH  28   3
ENDBRANCH  15  18
ENDBRANCH  14  15
ENDBRANCH   8   5
TORSDOF 6
ENDMDL
MODEL 7
REMARK VINA RESULT:      -6.9     27.621     30.544
REMARK  Name = 25338514
REMARK  8 active torsions:
REMARK  status: ('A' for Active; 'I' for Inactive)
REMARK    1  A    between atoms: O_3  and  C_28
REMARK    2  A    between atoms: O_3  and  C_33
REMARK    3  A    between atoms: N_4  and  C_13
REMARK    4  A    between atoms: N_5  and  C_8
REMARK    5  A    between atoms: C_9  and  C_12
REMARK    6  A    between atoms: C_14  and  C_15
REMARK    7  A    between atoms: C_15  and  C_18
REMARK    8  A    between atoms: C_16  and  C_17
REMARK                            x       y       z     vdW  Elec       q    Type
REMARK                         _______ _______ _______ _____ _____    ______ ____
ROOT
ATOM      4  N   UNL     1      -6.181 -12.136  17.894  0.00  0.00    -0.293 NA
ATOM      8  C   UNL     1      -3.970 -11.447  17.628  0.00  0.00    +0.089 C 
ATOM      9  C   UNL     1      -6.268 -10.664  17.898  0.00  0.00    +0.147 C 
ATOM     10  C   UNL     1      -4.838 -10.191  17.571  0.00  0.00    +0.052 C 
ATOM     11  C   UNL     1      -4.832 -12.459  18.368  0.00  0.00    +0.107 C 
ATOM     13  C   UNL     1      -7.210 -12.773  18.706  0.00  0.00    +0.105 C 
ENDROOT
BRANCH   9  12
ATOM      1  O   UNL     1      -7.245 -10.595  15.659  0.00  0.00    -0.336 OA
ATOM      6  N   UNL     1      -8.243  -9.237  17.135  0.00  0.00    -0.190 NA
ATOM      7  N   UNL     1      -8.277  -9.952  14.961  0.00  0.00    -0.056 NA
ATOM     12  C   UNL     1      -7.296 -10.117  16.930  0.00  0.00    +0.245 A 
ATOM     16  C   UNL     1      -8.818  -9.169  15.899  0.00  0.00    +0.202 A 
BRANCH  16  17
ATOM     17  C   UNL     1      -9.933  -8.307  15.634  0.00  0.00    +0.023 A 
ATOM     19  C   UNL     1     -10.739  -8.535  14.517  0.00  0.00    +0.020 A 
ATOM     20  C   UNL     1     -10.212  -7.246  16.489  0.00  0.00    +0.012 A 
ATOM     23  C   UNL     1     -11.836  -7.701  14.242  0.00  0.00    -0.017 A 
ATOM     24  C   UNL     1     -12.119  -6.621  15.113  0.00  0.00    -0.018 A 
ATOM     25  C   UNL     1     -11.297  -6.407  16.231  0.00  0.00    +0.009 A 
ATOM     29  C   UNL     1     -12.656  -7.915  13.123  0.00  0.00    +0.008 A 
ATOM     30  C   UNL     1     -13.215  -5.787  14.837  0.00  0.00    +0.008 A 
ATOM     31  C   UNL     1     -13.741  -7.076  12.866  0.00  0.00    +0.001 A 
ATOM     32  C   UNL     1     -14.020  -6.015  13.721  0.00  0.00    +0.001 A 
ENDBRANCH  16  17
ENDBRANCH   9  12
BRANCH   8   5
ATOM      2  O   UNL     1      -1.805 -10.513  15.977  0.00  0.00    -0.275 OA
ATOM      5  N   UNL     1      -3.625 -11.916  16.306  0.00  0.00    -0.311 N 
ATOM     14  C   UNL     1      -2.558 -11.401  15.585  0.00  0.00    +0.218 C 
ATOM     34  H   UNL     1      -4.235 -12.606  15.877  0.00  0.00    +0.149 HD
BRANCH  14  15
ATOM     15  C   UNL     1      -2.420 -12.077  14.235  0.00  0.00    +0.130 C 
BRANCH  15  18
ATOM     18  C   UNL     1      -2.814 -11.193  13.081  0.00  0.00    -0.038 A 
ATOM     21  C   UNL     1      -4.147 -10.822  12.909  0.00  0.00    +0.007 A 
ATOM     22  C   UNL     1      -1.843 -10.743  12.186  0.00  0.00    +0.007 A 
ATOM     26  C   UNL     1      -4.511 -10.003  11.840  0.00  0.00    +0.046 A 
ATOM     27  C   UNL     1      -2.207  -9.923  11.118  0.00  0.00    +0.046 A 
ATOM     28  C   UNL     1      -3.541  -9.553  10.944  0.00  0.00    +0.120 A 
BRANCH  28   3
ATOM      3  O   UNL     1      -3.896  -8.753   9.903  0.00  0.00    -0.495 OA
ATOM     33  C   UNL     1      -4.633  -9.356   8.842  0.00  0.00    +0.277 C 
ENDBRANCH  28   3
ENDBRANCH  15  18
ENDBRANCH  14  15
ENDBRANCH   8   5
TORSDOF 6
ENDMDL
MODEL 8
REMARK VINA RESULT:      -6.9      2.469      7.227
REMARK  Name = 25338514
REMARK  8 active torsions:
REMARK  status: ('A' for Active; 'I' for Inactive)
REMARK    1  A    between atoms: O_3  and  C_28
REMARK    2  A    between atoms: O_3  and  C_33
REMARK    3  A    between atoms: N_4  and  C_13
REMARK    4  A    between atoms: N_5  and  C_8
REMARK    5  A    between atoms: C_9  and  C_12
REMARK    6  A    between atoms: C_14  and  C_15
REMARK    7  A    between atoms: C_15  and  C_18
REMARK    8  A    between atoms: C_16  and  C_17
REMARK                            x       y       z     vdW  Elec       q    Type
REMARK                         _______ _______ _______ _____ _____    ______ ____
ROOT
ATOM      4  N   UNL     1      14.091   7.508  19.172  0.00  0.00    -0.293 NA
ATOM      8  C   UNL     1      16.089   6.865  20.187  0.00  0.00    +0.089 C 
ATOM      9  C   UNL     1      13.670   7.010  20.495  0.00  0.00    +0.147 C 
ATOM     10  C   UNL     1      14.989   6.722  21.239  0.00  0.00    +0.052 C 
ATOM     11  C   UNL     1      15.344   6.811  18.862  0.00  0.00    +0.107 C 
ATOM     13  C   UNL     1      13.085   7.306  18.136  0.00  0.00    +0.105 C 
ENDROOT
BRANCH   9  12
ATOM      1  O   UNL     1      11.725   7.431  21.912  0.00  0.00    -0.336 OA
ATOM      6  N   UNL     1      12.866   9.275  21.354  0.00  0.00    -0.190 NA
ATOM      7  N   UNL     1      11.056   8.502  22.520  0.00  0.00    -0.056 NA
ATOM     12  C   UNL     1      12.778   7.974  21.247  0.00  0.00    +0.245 A 
ATOM     16  C   UNL     1      11.790   9.554  22.145  0.00  0.00    +0.202 A 
BRANCH  16  17
ATOM     17  C   UNL     1      11.473  10.895  22.542  0.00  0.00    +0.023 A 
ATOM     19  C   UNL     1      11.287  11.196  23.892  0.00  0.00    +0.020 A 
ATOM     20  C   UNL     1      11.352  11.895  21.582  0.00  0.00    +0.012 A 
ATOM     23  C   UNL     1      10.978  12.505  24.299  0.00  0.00    -0.017 A 
ATOM     24  C   UNL     1      10.854  13.522  23.322  0.00  0.00    -0.018 A 
ATOM     25  C   UNL     1      11.044  13.200  21.969  0.00  0.00    +0.009 A 
ATOM     29  C   UNL     1      10.787  12.825  25.653  0.00  0.00    +0.008 A 
ATOM     30  C   UNL     1      10.543  14.829  23.729  0.00  0.00    +0.008 A 
ATOM     31  C   UNL     1      10.480  14.130  26.038  0.00  0.00    +0.001 A 
ATOM     32  C   UNL     1      10.358  15.130  25.078  0.00  0.00    +0.001 A 
ENDBRANCH  16  17
ENDBRANCH   9  12
BRANCH   8   5
ATOM      2  O   UNL     1      18.465   7.304  21.750  0.00  0.00    -0.275 OA
ATOM      5  N   UNL     1      16.809   8.107  20.336  0.00  0.00    -0.311 N 
ATOM     14  C   UNL     1      17.951   8.222  21.116  0.00  0.00    +0.218 C 
ATOM     34  H   UNL     1      16.417   8.935  19.896  0.00  0.00    +0.149 HD
BRANCH  14  15
ATOM     15  C   UNL     1      18.505   9.633  21.089  0.00  0.00    +0.130 C 
BRANCH  15  18
ATOM     18  C   UNL     1      17.436  10.694  21.080  0.00  0.00    -0.038 A 
ATOM     21  C   UNL     1      17.363  11.602  20.024  0.00  0.00    +0.007 A 
ATOM     22  C   UNL     1      16.517  10.766  22.128  0.00  0.00    +0.007 A 
ATOM     26  C   UNL     1      16.373  12.585  20.017  0.00  0.00    +0.046 A 
ATOM     27  C   UNL     1      15.526  11.748  22.119  0.00  0.00    +0.046 A 
ATOM     28  C   UNL     1      15.454  12.658  21.064  0.00  0.00    +0.120 A 
BRANCH  28   3
ATOM      3  O   UNL     1      14.487  13.615  21.055  0.00  0.00    -0.495 OA
ATOM     33  C   UNL     1      14.060  14.094  19.781  0.00  0.00    +0.277 C 
ENDBRANCH  28   3
ENDBRANCH  15  18
ENDBRANCH  14  15
ENDBRANCH   8   5
TORSDOF 6
ENDMDL
MODEL 9
REMARK VINA RESULT:      -6.8      2.703      8.061
REMARK  Name = 25338514
REMARK  8 active torsions:
REMARK  status: ('A' for Active; 'I' for Inactive)
REMARK    1  A    between atoms: O_3  and  C_28
REMARK    2  A    between atoms: O_3  and  C_33
REMARK    3  A    between atoms: N_4  and  C_13
REMARK    4  A    between atoms: N_5  and  C_8
REMARK    5  A    between atoms: C_9  and  C_12
REMARK    6  A    between atoms: C_14  and  C_15
REMARK    7  A    between atoms: C_15  and  C_18
REMARK    8  A    between atoms: C_16  and  C_17
REMARK                            x       y       z     vdW  Elec       q    Type
REMARK                         _______ _______ _______ _____ _____    ______ ____
ROOT
ATOM      4  N   UNL     1      13.709   8.285  18.736  0.00  0.00    -0.293 NA
ATOM      8  C   UNL     1      15.039   6.604  19.651  0.00  0.00    +0.089 C 
ATOM      9  C   UNL     1      12.807   7.596  19.677  0.00  0.00    +0.147 C 
ATOM     10  C   UNL     1      13.709   6.579  20.403  0.00  0.00    +0.052 C 
ATOM     11  C   UNL     1      14.706   7.289  18.334  0.00  0.00    +0.107 C 
ATOM     13  C   UNL     1      13.013   8.853  17.587  0.00  0.00    +0.105 C 
ENDROOT
BRANCH   9  12
ATOM      1  O   UNL     1      11.091   8.001  21.369  0.00  0.00    -0.336 OA
ATOM      6  N   UNL     1      12.320   9.803  20.863  0.00  0.00    -0.190 NA
ATOM      7  N   UNL     1      10.599   9.043  22.166  0.00  0.00    -0.056 NA
ATOM     12  C   UNL     1      12.102   8.533  20.633  0.00  0.00    +0.245 A 
ATOM     16  C   UNL     1      11.375  10.072  21.810  0.00  0.00    +0.202 A 
BRANCH  16  17
ATOM     17  C   UNL     1      11.231  11.379  22.382  0.00  0.00    +0.023 A 
ATOM     19  C   UNL     1      11.029  11.520  23.756  0.00  0.00    +0.020 A 
ATOM     20  C   UNL     1      11.293  12.506  21.568  0.00  0.00    +0.012 A 
ATOM     23  C   UNL     1      10.887  12.793  24.333  0.00  0.00    -0.017 A 
ATOM     24  C   UNL     1      10.949  13.939  23.504  0.00  0.00    -0.018 A 
ATOM     25  C   UNL     1      11.153  13.778  22.124  0.00  0.00    +0.009 A 
ATOM     29  C   UNL     1      10.682  12.953  25.713  0.00  0.00    +0.008 A 
ATOM     30  C   UNL     1      10.806  15.211  24.081  0.00  0.00    +0.008 A 
ATOM     31  C   UNL     1      10.543  14.225  26.268  0.00  0.00    +0.001 A 
ATOM     32  C   UNL     1      10.605  15.352  25.454  0.00  0.00    +0.001 A 
ENDBRANCH  16  17
ENDBRANCH   9  12
BRANCH   8   5
ATOM      2  O   UNL     1      17.853   6.008  19.759  0.00  0.00    -0.275 OA
ATOM      5  N   UNL     1      16.050   7.331  20.381  0.00  0.00    -0.311 N 
ATOM     14  C   UNL     1      17.388   6.966  20.372  0.00  0.00    +0.218 C 
ATOM     34  H   UNL     1      15.744   8.101  20.969  0.00  0.00    +0.149 HD
BRANCH  14  15
ATOM     15  C   UNL     1      18.228   7.904  21.216  0.00  0.00    +0.130 C 
BRANCH  15  18
ATOM     18  C   UNL     1      19.610   7.378  21.499  0.00  0.00    -0.038 A 
ATOM     21  C   UNL     1      19.838   6.578  22.619  0.00  0.00    +0.007 A 
ATOM     22  C   UNL     1      20.664   7.690  20.638  0.00  0.00    +0.007 A 
ATOM     26  C   UNL     1      21.119   6.091  22.880  0.00  0.00    +0.046 A 
ATOM     27  C   UNL     1      21.944   7.202  20.899  0.00  0.00    +0.046 A 
ATOM     28  C   UNL     1      22.173   6.403  22.020  0.00  0.00    +0.120 A 
BRANCH  28   3
ATOM      3  O   UNL     1      23.421   5.927  22.273  0.00  0.00    -0.495 OA
ATOM     33  C   UNL     1      23.645   4.537  22.043  0.00  0.00    +0.277 C 
ENDBRANCH  28   3
ENDBRANCH  15  18
ENDBRANCH  14  15
ENDBRANCH   8   5
TORSDOF 6
ENDMDL
MODEL 10
REMARK VINA RESULT:      -6.6     27.302     30.239
REMARK  Name = 25338514
REMARK  8 active torsions:
REMARK  status: ('A' for Active; 'I' for Inactive)
REMARK    1  A    between atoms: O_3  and  C_28
REMARK    2  A    between atoms: O_3  and  C_33
REMARK    3  A    between atoms: N_4  and  C_13
REMARK    4  A    between atoms: N_5  and  C_8
REMARK    5  A    between atoms: C_9  and  C_12
REMARK    6  A    between atoms: C_14  and  C_15
REMARK    7  A    between atoms: C_15  and  C_18
REMARK    8  A    between atoms: C_16  and  C_17
REMARK                            x       y       z     vdW  Elec       q    Type
REMARK                         _______ _______ _______ _____ _____    ______ ____
ROOT
ATOM      4  N   UNL     1      -5.704 -11.900  17.229  0.00  0.00    -0.293 NA
ATOM      8  C   UNL     1      -3.536 -11.075  17.000  0.00  0.00    +0.089 C 
ATOM      9  C   UNL     1      -5.901 -10.464  16.957  0.00  0.00    +0.147 C 
ATOM     10  C   UNL     1      -4.487  -9.931  16.652  0.00  0.00    +0.052 C 
ATOM     11  C   UNL     1      -4.381 -12.013  17.850  0.00  0.00    +0.107 C 
ATOM     13  C   UNL     1      -6.749 -12.473  18.069  0.00  0.00    +0.105 C 
ENDROOT
BRANCH   9  12
ATOM      1  O   UNL     1      -8.126  -9.795  16.202  0.00  0.00    -0.336 OA
ATOM      6  N   UNL     1      -6.705 -10.282  14.541  0.00  0.00    -0.190 NA
ATOM      7  N   UNL     1      -8.840  -9.607  15.011  0.00  0.00    -0.056 NA
ATOM     12  C   UNL     1      -6.879 -10.191  15.835  0.00  0.00    +0.245 A 
ATOM     16  C   UNL     1      -7.934  -9.914  14.077  0.00  0.00    +0.202 A 
BRANCH  16  17
ATOM     17  C   UNL     1      -8.226  -9.862  12.674  0.00  0.00    +0.023 A 
ATOM     19  C   UNL     1      -7.368  -9.182  11.808  0.00  0.00    +0.020 A 
ATOM     20  C   UNL     1      -9.364 -10.488  12.176  0.00  0.00    +0.012 A 
ATOM     23  C   UNL     1      -7.639  -9.122  10.431  0.00  0.00    -0.017 A 
ATOM     24  C   UNL     1      -8.797  -9.760   9.925  0.00  0.00    -0.018 A 
ATOM     25  C   UNL     1      -9.649 -10.438  10.811  0.00  0.00    +0.009 A 
ATOM     29  C   UNL     1      -6.786  -8.442   9.546  0.00  0.00    +0.008 A 
ATOM     30  C   UNL     1      -9.067  -9.699   8.549  0.00  0.00    +0.008 A 
ATOM     31  C   UNL     1      -7.071  -8.393   8.181  0.00  0.00    +0.001 A 
ATOM     32  C   UNL     1      -8.209  -9.020   7.684  0.00  0.00    +0.001 A 
ENDBRANCH  16  17
ENDBRANCH   9  12
BRANCH   8   5
ATOM      2  O   UNL     1      -1.076 -10.524  15.612  0.00  0.00    -0.275 OA
ATOM      5  N   UNL     1      -3.045 -11.737  15.815  0.00  0.00    -0.311 N 
ATOM     14  C   UNL     1      -1.840 -11.400  15.215  0.00  0.00    +0.218 C 
ATOM     34  H   UNL     1      -3.644 -12.432  15.381  0.00  0.00    +0.149 HD
BRANCH  14  15
ATOM     15  C   UNL     1      -1.567 -12.256  13.994  0.00  0.00    +0.130 C 
BRANCH  15  18
ATOM     18  C   UNL     1      -2.208 -11.727  12.738  0.00  0.00    -0.038 A 
ATOM     21  C   UNL     1      -1.972 -10.414  12.334  0.00  0.00    +0.007 A 
ATOM     22  C   UNL     1      -3.039 -12.553  11.980  0.00  0.00    +0.007 A 
ATOM     26  C   UNL     1      -2.567  -9.925  11.170  0.00  0.00    +0.046 A 
ATOM     27  C   UNL     1      -3.632 -12.064  10.816  0.00  0.00    +0.046 A 
ATOM     28  C   UNL     1      -3.397 -10.750  10.411  0.00  0.00    +0.120 A 
BRANCH  28   3
ATOM      3  O   UNL     1      -3.976 -10.274   9.275  0.00  0.00    -0.495 OA
ATOM     33  C   UNL     1      -4.633 -11.220   8.435  0.00  0.00    +0.277 C 
ENDBRANCH  28   3
ENDBRANCH  15  18
ENDBRANCH  14  15
ENDBRANCH   8   5
TORSDOF 6
ENDMDL
