MODEL 1
REMARK VINA RESULT:      -5.6      0.000      0.000
REMARK  Name = 75368712
REMARK  7 active torsions:
REMARK  status: ('A' for Active; 'I' for Inactive)
REMARK    1  A    between atoms: O_2  and  C_17
REMARK    2  A    between atoms: O_2  and  C_21
REMARK    3  A    between atoms: N_4  and  C_14
REMARK    4  A    between atoms: N_5  and  C_15
REMARK    5  A    between atoms: N_6  and  C_20
REMARK    6  A    between atoms: C_14  and  C_16
REMARK    7  A    between atoms: C_15  and  C_17
REMARK                            x       y       z     vdW  Elec       q    Type
REMARK                         _______ _______ _______ _____ _____    ______ ____
ROOT
ATOM      1  O   UNL     1      18.665   5.179  19.591  0.00  0.00    -0.252 OA
ATOM      3  N   UNL     1      17.062   6.784  20.205  0.00  0.00    -0.278 N 
ATOM      4  N   UNL     1      14.953   8.624  19.933  0.00  0.00    -0.295 NA
ATOM      5  N   UNL     1      19.145   6.994  21.019  0.00  0.00    -0.281 N 
ATOM      8  C   UNL     1      16.983   7.901  21.123  0.00  0.00    +0.109 C 
ATOM      9  C   UNL     1      16.253   9.074  20.470  0.00  0.00    +0.109 C 
ATOM     10  C   UNL     1      18.440   8.174  21.488  0.00  0.00    +0.133 C 
ATOM     11  C   UNL     1      15.869   6.353  19.507  0.00  0.00    +0.125 C 
ATOM     12  C   UNL     1      15.139   7.564  18.922  0.00  0.00    +0.104 C 
ATOM     13  C   UNL     1      18.331   6.189  20.198  0.00  0.00    +0.305 C 
ENDROOT
BRANCH   4  14
ATOM     14  C   UNL     1      14.219   9.752  19.360  0.00  0.00    +0.122 C 
BRANCH  14  16
ATOM      6  N   UNL     1      11.365   8.887  17.243  0.00  0.00    -0.274 N 
ATOM      7  N   UNL     1      10.859   8.429  18.401  0.00  0.00    -0.180 NA
ATOM     16  C   UNL     1      12.945   9.311  18.690  0.00  0.00    +0.004 A 
ATOM     18  C   UNL     1      12.613   9.425  17.362  0.00  0.00    +0.112 A 
ATOM     19  C   UNL     1      11.828   8.691  19.281  0.00  0.00    +0.139 A 
ATOM     20  C   UNL     1      10.591   8.781  16.031  0.00  0.00    +0.172 C 
ENDBRANCH  14  16
ENDBRANCH   4  14
BRANCH   5  15
ATOM     15  C   UNL     1      20.556   6.795  21.267  0.00  0.00    +0.137 C 
BRANCH  15  17
ATOM     17  C   UNL     1      20.806   6.251  22.663  0.00  0.00    +0.178 C 
BRANCH  17   2
ATOM      2  O   UNL     1      21.218   4.893  22.573  0.00  0.00    -0.381 OA
ATOM     21  C   UNL     1      21.876   4.628  21.342  0.00  0.00    +0.194 C 
ENDBRANCH  17   2
ENDBRANCH  15  17
ENDBRANCH   5  15
TORSDOF 5
ENDMDL
MODEL 2
REMARK VINA RESULT:      -5.6      3.476      7.720
REMARK  Name = 75368712
REMARK  7 active torsions:
REMARK  status: ('A' for Active; 'I' for Inactive)
REMARK    1  A    between atoms: O_2  and  C_17
REMARK    2  A    between atoms: O_2  and  C_21
REMARK    3  A    between atoms: N_4  and  C_14
REMARK    4  A    between atoms: N_5  and  C_15
REMARK    5  A    between atoms: N_6  and  C_20
REMARK    6  A    between atoms: C_14  and  C_16
REMARK    7  A    between atoms: C_15  and  C_17
REMARK                            x       y       z     vdW  Elec       q    Type
REMARK                         _______ _______ _______ _____ _____    ______ ____
ROOT
ATOM      1  O   UNL     1      12.045   6.733  18.807  0.00  0.00    -0.252 OA
ATOM      3  N   UNL     1      14.147   7.242  19.725  0.00  0.00    -0.278 N 
ATOM      4  N   UNL     1      16.890   7.001  20.294  0.00  0.00    -0.295 NA
ATOM      5  N   UNL     1      12.342   7.380  21.055  0.00  0.00    -0.281 N 
ATOM      8  C   UNL     1      14.654   7.774  20.972  0.00  0.00    +0.109 C 
ATOM      9  C   UNL     1      15.912   7.018  21.400  0.00  0.00    +0.109 C 
ATOM     10  C   UNL     1      13.471   7.646  21.929  0.00  0.00    +0.133 C 
ATOM     11  C   UNL     1      15.057   7.042  18.617  0.00  0.00    +0.125 C 
ATOM     12  C   UNL     1      16.325   6.337  19.102  0.00  0.00    +0.104 C 
ATOM     13  C   UNL     1      12.755   7.079  19.742  0.00  0.00    +0.305 C 
ENDROOT
BRANCH   4  14
ATOM     14  C   UNL     1      18.122   6.332  20.714  0.00  0.00    +0.122 C 
BRANCH  14  16
ATOM      6  N   UNL     1      20.327   9.070  21.725  0.00  0.00    -0.274 N 
ATOM      7  N   UNL     1      21.285   8.240  21.281  0.00  0.00    -0.180 NA
ATOM     16  C   UNL     1      19.208   7.318  21.054  0.00  0.00    +0.004 A 
ATOM     18  C   UNL     1      19.064   8.566  21.611  0.00  0.00    +0.112 A 
ATOM     19  C   UNL     1      20.596   7.172  20.872  0.00  0.00    +0.139 A 
ATOM     20  C   UNL     1      20.687  10.361  22.258  0.00  0.00    +0.172 C 
ENDBRANCH  14  16
ENDBRANCH   4  14
BRANCH   5  15
ATOM     15  C   UNL     1      10.988   7.297  21.556  0.00  0.00    +0.137 C 
BRANCH  15  17
ATOM     17  C   UNL     1      10.724   8.340  22.627  0.00  0.00    +0.178 C 
BRANCH  17   2
ATOM      2  O   UNL     1      10.632   9.624  22.023  0.00  0.00    -0.381 OA
ATOM     21  C   UNL     1      11.006  10.653  22.928  0.00  0.00    +0.194 C 
ENDBRANCH  17   2
ENDBRANCH  15  17
ENDBRANCH   5  15
TORSDOF 5
ENDMDL
MODEL 3
REMARK VINA RESULT:      -5.2      3.014      8.306
REMARK  Name = 75368712
REMARK  7 active torsions:
REMARK  status: ('A' for Active; 'I' for Inactive)
REMARK    1  A    between atoms: O_2  and  C_17
REMARK    2  A    between atoms: O_2  and  C_21
REMARK    3  A    between atoms: N_4  and  C_14
REMARK    4  A    between atoms: N_5  and  C_15
REMARK    5  A    between atoms: N_6  and  C_20
REMARK    6  A    between atoms: C_14  and  C_16
REMARK    7  A    between atoms: C_15  and  C_17
REMARK                            x       y       z     vdW  Elec       q    Type
REMARK                         _______ _______ _______ _____ _____    ______ ____
ROOT
ATOM      1  O   UNL     1      14.749   9.692  20.333  0.00  0.00    -0.252 OA
ATOM      3  N   UNL     1      16.504   8.216  20.845  0.00  0.00    -0.278 N 
ATOM      4  N   UNL     1      19.135   7.283  21.181  0.00  0.00    -0.295 NA
ATOM      5  N   UNL     1      14.775   7.437  19.641  0.00  0.00    -0.281 N 
ATOM      8  C   UNL     1      16.770   6.800  20.700  0.00  0.00    +0.109 C 
ATOM      9  C   UNL     1      18.218   6.574  20.265  0.00  0.00    +0.109 C 
ATOM     10  C   UNL     1      15.719   6.335  19.694  0.00  0.00    +0.133 C 
ATOM     11  C   UNL     1      17.426   9.037  21.602  0.00  0.00    +0.125 C 
ATOM     12  C   UNL     1      18.864   8.735  21.178  0.00  0.00    +0.104 C 
ATOM     13  C   UNL     1      15.275   8.588  20.284  0.00  0.00    +0.305 C 
ENDROOT
BRANCH   4  14
ATOM     14  C   UNL     1      20.526   7.023  20.811  0.00  0.00    +0.122 C 
BRANCH  14  16
ATOM      6  N   UNL     1      22.110   4.099  22.334  0.00  0.00    -0.274 N 
ATOM      7  N   UNL     1      21.839   4.756  23.475  0.00  0.00    -0.180 NA
ATOM     16  C   UNL     1      21.135   5.929  21.646  0.00  0.00    +0.004 A 
ATOM     18  C   UNL     1      21.708   4.759  21.210  0.00  0.00    +0.112 A 
ATOM     19  C   UNL     1      21.244   5.872  23.049  0.00  0.00    +0.139 A 
ATOM     20  C   UNL     1      22.767   2.816  22.384  0.00  0.00    +0.172 C 
ENDBRANCH  14  16
ENDBRANCH   4  14
BRANCH   5  15
ATOM     15  C   UNL     1      13.549   7.361  18.877  0.00  0.00    +0.137 C 
BRANCH  15  17
ATOM     17  C   UNL     1      12.406   6.811  19.710  0.00  0.00    +0.178 C 
BRANCH  17   2
ATOM      2  O   UNL     1      11.298   7.700  19.638  0.00  0.00    -0.381 OA
ATOM     21  C   UNL     1      11.319   8.644  20.700  0.00  0.00    +0.194 C 
ENDBRANCH  17   2
ENDBRANCH  15  17
ENDBRANCH   5  15
TORSDOF 5
ENDMDL
MODEL 4
REMARK VINA RESULT:      -5.2     32.860     34.216
REMARK  Name = 75368712
REMARK  7 active torsions:
REMARK  status: ('A' for Active; 'I' for Inactive)
REMARK    1  A    between atoms: O_2  and  C_17
REMARK    2  A    between atoms: O_2  and  C_21
REMARK    3  A    between atoms: N_4  and  C_14
REMARK    4  A    between atoms: N_5  and  C_15
REMARK    5  A    between atoms: N_6  and  C_20
REMARK    6  A    between atoms: C_14  and  C_16
REMARK    7  A    between atoms: C_15  and  C_17
REMARK                            x       y       z     vdW  Elec       q    Type
REMARK                         _______ _______ _______ _____ _____    ______ ____
ROOT
ATOM      1  O   UNL     1     -15.409  -0.485  29.781  0.00  0.00    -0.252 OA
ATOM      3  N   UNL     1     -15.146   1.655  30.715  0.00  0.00    -0.278 N 
ATOM      4  N   UNL     1     -15.236   3.712  32.631  0.00  0.00    -0.295 NA
ATOM      5  N   UNL     1     -15.991   1.496  28.640  0.00  0.00    -0.281 N 
ATOM      8  C   UNL     1     -15.272   3.026  30.268  0.00  0.00    +0.109 C 
ATOM      9  C   UNL     1     -15.943   3.878  31.345  0.00  0.00    +0.109 C 
ATOM     10  C   UNL     1     -16.055   2.911  28.961  0.00  0.00    +0.133 C 
ATOM     11  C   UNL     1     -14.601   1.385  32.029  0.00  0.00    +0.125 C 
ATOM     12  C   UNL     1     -15.257   2.301  33.066  0.00  0.00    +0.104 C 
ATOM     13  C   UNL     1     -15.499   0.735  29.720  0.00  0.00    +0.305 C 
ENDROOT
BRANCH   4  14
ATOM     14  C   UNL     1     -15.832   4.570  33.655  0.00  0.00    +0.122 C 
BRANCH  14  16
ATOM      6  N   UNL     1     -13.451   7.130  34.728  0.00  0.00    -0.274 N 
ATOM      7  N   UNL     1     -13.278   6.295  35.767  0.00  0.00    -0.180 NA
ATOM     16  C   UNL     1     -14.814   5.481  34.286  0.00  0.00    +0.004 A 
ATOM     18  C   UNL     1     -14.361   6.688  33.813  0.00  0.00    +0.112 A 
ATOM     19  C   UNL     1     -14.113   5.291  35.492  0.00  0.00    +0.139 A 
ATOM     20  C   UNL     1     -12.701   8.360  34.664  0.00  0.00    +0.172 C 
ENDBRANCH  14  16
ENDBRANCH   4  14
BRANCH   5  15
ATOM     15  C   UNL     1     -16.524   0.965  27.405  0.00  0.00    +0.137 C 
BRANCH  15  17
ATOM     17  C   UNL     1     -16.893   2.074  26.435  0.00  0.00    +0.178 C 
BRANCH  17   2
ATOM      2  O   UNL     1     -16.192   1.883  25.212  0.00  0.00    -0.381 OA
ATOM     21  C   UNL     1     -15.770   3.121  24.655  0.00  0.00    +0.194 C 
ENDBRANCH  17   2
ENDBRANCH  15  17
ENDBRANCH   5  15
TORSDOF 5
ENDMDL
MODEL 5
REMARK VINA RESULT:      -5.1     27.388     29.607
REMARK  Name = 75368712
REMARK  7 active torsions:
REMARK  status: ('A' for Active; 'I' for Inactive)
REMARK    1  A    between atoms: O_2  and  C_17
REMARK    2  A    between atoms: O_2  and  C_21
REMARK    3  A    between atoms: N_4  and  C_14
REMARK    4  A    between atoms: N_5  and  C_15
REMARK    5  A    between atoms: N_6  and  C_20
REMARK    6  A    between atoms: C_14  and  C_16
REMARK    7  A    between atoms: C_15  and  C_17
REMARK                            x       y       z     vdW  Elec       q    Type
REMARK                         _______ _______ _______ _____ _____    ______ ____
ROOT
ATOM      1  O   UNL     1      -8.299 -10.874  19.903  0.00  0.00    -0.252 OA
ATOM      3  N   UNL     1      -6.733 -11.234  18.190  0.00  0.00    -0.278 N 
ATOM      4  N   UNL     1      -4.232 -11.424  16.917  0.00  0.00    -0.295 NA
ATOM      5  N   UNL     1      -8.574 -10.038  17.715  0.00  0.00    -0.281 N 
ATOM      8  C   UNL     1      -6.650 -10.989  16.765  0.00  0.00    +0.109 C 
ATOM      9  C   UNL     1      -5.252 -10.495  16.391  0.00  0.00    +0.109 C 
ATOM     10  C   UNL     1      -7.775  -9.990  16.503  0.00  0.00    +0.133 C 
ATOM     11  C   UNL     1      -5.697 -12.012  18.837  0.00  0.00    +0.125 C 
ATOM     12  C   UNL     1      -4.318 -11.523  18.388  0.00  0.00    +0.104 C 
ATOM     13  C   UNL     1      -7.918 -10.737  18.748  0.00  0.00    +0.305 C 
ENDROOT
BRANCH   4  14
ATOM     14  C   UNL     1      -2.894 -10.994  16.513  0.00  0.00    +0.122 C 
BRANCH  14  16
ATOM      6  N   UNL     1      -2.225 -11.073  12.918  0.00  0.00    -0.274 N 
ATOM      7  N   UNL     1      -2.322 -12.400  13.099  0.00  0.00    -0.180 NA
ATOM     16  C   UNL     1      -2.634 -11.264  15.055  0.00  0.00    +0.004 A 
ATOM     18  C   UNL     1      -2.404 -10.347  14.059  0.00  0.00    +0.112 A 
ATOM     19  C   UNL     1      -2.571 -12.512  14.406  0.00  0.00    +0.139 A 
ATOM     20  C   UNL     1      -1.956 -10.546  11.602  0.00  0.00    +0.172 C 
ENDBRANCH  14  16
ENDBRANCH   4  14
BRANCH   5  15
ATOM     15  C   UNL     1      -9.817  -9.310  17.843  0.00  0.00    +0.137 C 
BRANCH  15  17
ATOM     17  C   UNL     1      -9.726  -7.935  17.206  0.00  0.00    +0.178 C 
BRANCH  17   2
ATOM      2  O   UNL     1     -11.037  -7.432  16.979  0.00  0.00    -0.381 OA
ATOM     21  C   UNL     1     -11.027  -6.344  16.065  0.00  0.00    +0.194 C 
ENDBRANCH  17   2
ENDBRANCH  15  17
ENDBRANCH   5  15
TORSDOF 5
ENDMDL
MODEL 6
REMARK VINA RESULT:      -5.1      2.096      2.683
REMARK  Name = 75368712
REMARK  7 active torsions:
REMARK  status: ('A' for Active; 'I' for Inactive)
REMARK    1  A    between atoms: O_2  and  C_17
REMARK    2  A    between atoms: O_2  and  C_21
REMARK    3  A    between atoms: N_4  and  C_14
REMARK    4  A    between atoms: N_5  and  C_15
REMARK    5  A    between atoms: N_6  and  C_20
REMARK    6  A    between atoms: C_14  and  C_16
REMARK    7  A    between atoms: C_15  and  C_17
REMARK                            x       y       z     vdW  Elec       q    Type
REMARK                         _______ _______ _______ _____ _____    ______ ____
ROOT
ATOM      1  O   UNL     1      18.334   5.517  19.450  0.00  0.00    -0.252 OA
ATOM      3  N   UNL     1      16.653   7.014  20.122  0.00  0.00    -0.278 N 
ATOM      4  N   UNL     1      14.492   8.801  19.911  0.00  0.00    -0.295 NA
ATOM      5  N   UNL     1      18.694   7.225  21.037  0.00  0.00    -0.281 N 
ATOM      8  C   UNL     1      16.498   8.050  21.122  0.00  0.00    +0.109 C 
ATOM      9  C   UNL     1      15.754   9.249  20.535  0.00  0.00    +0.109 C 
ATOM     10  C   UNL     1      17.930   8.340  21.568  0.00  0.00    +0.133 C 
ATOM     11  C   UNL     1      15.503   6.603  19.344  0.00  0.00    +0.125 C 
ATOM     12  C   UNL     1      14.754   7.834  18.827  0.00  0.00    +0.104 C 
ATOM     13  C   UNL     1      17.941   6.463  20.121  0.00  0.00    +0.305 C 
ENDROOT
BRANCH   4  14
ATOM     14  C   UNL     1      13.742   9.949  19.400  0.00  0.00    +0.122 C 
BRANCH  14  16
ATOM      6  N   UNL     1      11.603  10.919  22.204  0.00  0.00    -0.274 N 
ATOM      7  N   UNL     1      11.698  12.134  21.638  0.00  0.00    -0.180 NA
ATOM     16  C   UNL     1      12.872  10.569  20.461  0.00  0.00    +0.004 A 
ATOM     18  C   UNL     1      12.288   9.946  21.537  0.00  0.00    +0.112 A 
ATOM     19  C   UNL     1      12.475  11.915  20.574  0.00  0.00    +0.139 A 
ATOM     20  C   UNL     1      10.824  10.747  23.405  0.00  0.00    +0.172 C 
ENDBRANCH  14  16
ENDBRANCH   4  14
BRANCH   5  15
ATOM     15  C   UNL     1      20.100   7.051  21.326  0.00  0.00    +0.137 C 
BRANCH  15  17
ATOM     17  C   UNL     1      20.325   6.636  22.769  0.00  0.00    +0.178 C 
BRANCH  17   2
ATOM      2  O   UNL     1      20.970   5.369  22.801  0.00  0.00    -0.381 OA
ATOM     21  C   UNL     1      21.428   4.985  21.512  0.00  0.00    +0.194 C 
ENDBRANCH  17   2
ENDBRANCH  15  17
ENDBRANCH   5  15
TORSDOF 5
ENDMDL
MODEL 7
REMARK VINA RESULT:      -5.0      3.793      7.954
REMARK  Name = 75368712
REMARK  7 active torsions:
REMARK  status: ('A' for Active; 'I' for Inactive)
REMARK    1  A    between atoms: O_2  and  C_17
REMARK    2  A    between atoms: O_2  and  C_21
REMARK    3  A    between atoms: N_4  and  C_14
REMARK    4  A    between atoms: N_5  and  C_15
REMARK    5  A    between atoms: N_6  and  C_20
REMARK    6  A    between atoms: C_14  and  C_16
REMARK    7  A    between atoms: C_15  and  C_17
REMARK                            x       y       z     vdW  Elec       q    Type
REMARK                         _______ _______ _______ _____ _____    ______ ____
ROOT
ATOM      1  O   UNL     1      11.485   8.808  19.219  0.00  0.00    -0.252 OA
ATOM      3  N   UNL     1      13.703   8.530  19.941  0.00  0.00    -0.278 N 
ATOM      4  N   UNL     1      16.146   7.246  20.483  0.00  0.00    -0.295 NA
ATOM      5  N   UNL     1      12.298   9.700  21.245  0.00  0.00    -0.281 N 
ATOM      8  C   UNL     1      14.535   9.029  21.016  0.00  0.00    +0.109 C 
ATOM      9  C   UNL     1      15.407   7.907  21.578  0.00  0.00    +0.109 C 
ATOM     10  C   UNL     1      13.533   9.620  22.005  0.00  0.00    +0.133 C 
ATOM     11  C   UNL     1      14.305   7.738  18.888  0.00  0.00    +0.125 C 
ATOM     12  C   UNL     1      15.215   6.668  19.494  0.00  0.00    +0.104 C 
ATOM     13  C   UNL     1      12.384   8.992  20.030  0.00  0.00    +0.305 C 
ENDROOT
BRANCH   4  14
ATOM     14  C   UNL     1      17.030   6.210  21.018  0.00  0.00    +0.122 C 
BRANCH  14  16
ATOM      6  N   UNL     1      20.644   6.709  20.751  0.00  0.00    -0.274 N 
ATOM      7  N   UNL     1      20.340   7.931  21.220  0.00  0.00    -0.180 NA
ATOM     16  C   UNL     1      18.473   6.636  20.991  0.00  0.00    +0.004 A 
ATOM     18  C   UNL     1      19.560   5.894  20.596  0.00  0.00    +0.112 A 
ATOM     19  C   UNL     1      19.014   7.881  21.365  0.00  0.00    +0.139 A 
ATOM     20  C   UNL     1      22.016   6.371  20.464  0.00  0.00    +0.172 C 
ENDBRANCH  14  16
ENDBRANCH   4  14
BRANCH   5  15
ATOM     15  C   UNL     1      11.104  10.313  21.785  0.00  0.00    +0.137 C 
BRANCH  15  17
ATOM     17  C   UNL     1      11.085  10.256  23.302  0.00  0.00    +0.178 C 
BRANCH  17   2
ATOM      2  O   UNL     1      10.527  11.460  23.812  0.00  0.00    -0.381 OA
ATOM     21  C   UNL     1      11.074  11.792  25.081  0.00  0.00    +0.194 C 
ENDBRANCH  17   2
ENDBRANCH  15  17
ENDBRANCH   5  15
TORSDOF 5
ENDMDL
MODEL 8
REMARK VINA RESULT:      -5.0      3.337      4.152
REMARK  Name = 75368712
REMARK  7 active torsions:
REMARK  status: ('A' for Active; 'I' for Inactive)
REMARK    1  A    between atoms: O_2  and  C_17
REMARK    2  A    between atoms: O_2  and  C_21
REMARK    3  A    between atoms: N_4  and  C_14
REMARK    4  A    between atoms: N_5  and  C_15
REMARK    5  A    between atoms: N_6  and  C_20
REMARK    6  A    between atoms: C_14  and  C_16
REMARK    7  A    between atoms: C_15  and  C_17
REMARK                            x       y       z     vdW  Elec       q    Type
REMARK                         _______ _______ _______ _____ _____    ______ ____
ROOT
ATOM      1  O   UNL     1      16.768   6.386  19.817  0.00  0.00    -0.252 OA
ATOM      3  N   UNL     1      15.027   7.502  20.933  0.00  0.00    -0.278 N 
ATOM      4  N   UNL     1      12.516   8.701  21.344  0.00  0.00    -0.295 NA
ATOM      5  N   UNL     1      17.121   8.274  21.187  0.00  0.00    -0.281 N 
ATOM      8  C   UNL     1      14.907   8.563  21.911  0.00  0.00    +0.109 C 
ATOM      9  C   UNL     1      13.747   9.491  21.550  0.00  0.00    +0.109 C 
ATOM     10  C   UNL     1      16.285   9.223  21.900  0.00  0.00    +0.133 C 
ATOM     11  C   UNL     1      13.846   6.760  20.544  0.00  0.00    +0.125 C 
ATOM     12  C   UNL     1      12.695   7.724  20.251  0.00  0.00    +0.104 C 
ATOM     13  C   UNL     1      16.356   7.272  20.555  0.00  0.00    +0.305 C 
ENDROOT
BRANCH   4  14
ATOM     14  C   UNL     1      11.386   9.585  21.058  0.00  0.00    +0.122 C 
BRANCH  14  16
ATOM      6  N   UNL     1      11.027  11.838  23.917  0.00  0.00    -0.274 N 
ATOM      7  N   UNL     1      11.184  12.785  22.976  0.00  0.00    -0.180 NA
ATOM     16  C   UNL     1      11.266  10.689  22.074  0.00  0.00    +0.004 A 
ATOM     18  C   UNL     1      11.069  10.565  23.428  0.00  0.00    +0.112 A 
ATOM     19  C   UNL     1      11.329  12.078  21.853  0.00  0.00    +0.139 A 
ATOM     20  C   UNL     1      10.838  12.220  25.294  0.00  0.00    +0.172 C 
ENDBRANCH  14  16
ENDBRANCH   4  14
BRANCH   5  15
ATOM     15  C   UNL     1      18.547   8.465  21.044  0.00  0.00    +0.137 C 
BRANCH  15  17
ATOM     17  C   UNL     1      19.303   7.958  22.259  0.00  0.00    +0.178 C 
BRANCH  17   2
ATOM      2  O   UNL     1      19.475   6.550  22.154  0.00  0.00    -0.381 OA
ATOM     21  C   UNL     1      20.143   6.195  20.951  0.00  0.00    +0.194 C 
ENDBRANCH  17   2
ENDBRANCH  15  17
ENDBRANCH   5  15
TORSDOF 5
ENDMDL
MODEL 9
REMARK VINA RESULT:      -4.9     28.034     29.138
REMARK  Name = 75368712
REMARK  7 active torsions:
REMARK  status: ('A' for Active; 'I' for Inactive)
REMARK    1  A    between atoms: O_2  and  C_17
REMARK    2  A    between atoms: O_2  and  C_21
REMARK    3  A    between atoms: N_4  and  C_14
REMARK    4  A    between atoms: N_5  and  C_15
REMARK    5  A    between atoms: N_6  and  C_20
REMARK    6  A    between atoms: C_14  and  C_16
REMARK    7  A    between atoms: C_15  and  C_17
REMARK                            x       y       z     vdW  Elec       q    Type
REMARK                         _______ _______ _______ _____ _____    ______ ____
ROOT
ATOM      1  O   UNL     1      -5.776 -13.632  17.161  0.00  0.00    -0.252 OA
ATOM      3  N   UNL     1      -5.143 -12.165  15.439  0.00  0.00    -0.278 N 
ATOM      4  N   UNL     1      -3.992 -11.290  13.027  0.00  0.00    -0.295 NA
ATOM      5  N   UNL     1      -4.876 -11.489  17.564  0.00  0.00    -0.281 N 
ATOM      8  C   UNL     1      -4.700 -10.791  15.331  0.00  0.00    +0.109 C 
ATOM      9  C   UNL     1      -3.574 -10.674  14.303  0.00  0.00    +0.109 C 
ATOM     10  C   UNL     1      -4.304 -10.424  16.760  0.00  0.00    +0.133 C 
ATOM     11  C   UNL     1      -5.437 -12.912  14.234  0.00  0.00    +0.125 C 
ATOM     12  C   UNL     1      -4.315 -12.719  13.212  0.00  0.00    +0.104 C 
ATOM     13  C   UNL     1      -5.326 -12.563  16.770  0.00  0.00    +0.305 C 
ENDROOT
BRANCH   4  14
ATOM     14  C   UNL     1      -2.945 -11.130  12.017  0.00  0.00    +0.122 C 
BRANCH  14  16
ATOM      6  N   UNL     1      -4.459 -10.134   8.840  0.00  0.00    -0.274 N 
ATOM      7  N   UNL     1      -3.906  -8.947   9.142  0.00  0.00    -0.180 NA
ATOM     16  C   UNL     1      -3.474 -10.504  10.754  0.00  0.00    +0.004 A 
ATOM     18  C   UNL     1      -4.230 -11.101   9.775  0.00  0.00    +0.112 A 
ATOM     19  C   UNL     1      -3.306  -9.178  10.311  0.00  0.00    +0.139 A 
ATOM     20  C   UNL     1      -5.211 -10.285   7.619  0.00  0.00    +0.172 C 
ENDBRANCH  14  16
ENDBRANCH   4  14
BRANCH   5  15
ATOM     15  C   UNL     1      -4.824 -11.470  19.009  0.00  0.00    +0.137 C 
BRANCH  15  17
ATOM     17  C   UNL     1      -5.971 -10.667  19.597  0.00  0.00    +0.178 C 
BRANCH  17   2
ATOM      2  O   UNL     1      -6.964 -11.555  20.094  0.00  0.00    -0.381 OA
ATOM     21  C   UNL     1      -8.159 -11.480  19.329  0.00  0.00    +0.194 C 
ENDBRANCH  17   2
ENDBRANCH  15  17
ENDBRANCH   5  15
TORSDOF 5
ENDMDL
MODEL 10
REMARK VINA RESULT:      -4.9      2.824      8.388
REMARK  Name = 75368712
REMARK  7 active torsions:
REMARK  status: ('A' for Active; 'I' for Inactive)
REMARK    1  A    between atoms: O_2  and  C_17
REMARK    2  A    between atoms: O_2  and  C_21
REMARK    3  A    between atoms: N_4  and  C_14
REMARK    4  A    between atoms: N_5  and  C_15
REMARK    5  A    between atoms: N_6  and  C_20
REMARK    6  A    between atoms: C_14  and  C_16
REMARK    7  A    between atoms: C_15  and  C_17
REMARK                            x       y       z     vdW  Elec       q    Type
REMARK                         _______ _______ _______ _____ _____    ______ ____
ROOT
ATOM      1  O   UNL     1      14.704   9.960  19.542  0.00  0.00    -0.252 OA
ATOM      3  N   UNL     1      16.130   8.232  20.250  0.00  0.00    -0.278 N 
ATOM      4  N   UNL     1      18.492   6.955  21.085  0.00  0.00    -0.295 NA
ATOM      5  N   UNL     1      14.716   7.818  18.555  0.00  0.00    -0.281 N 
ATOM      8  C   UNL     1      16.303   6.822  19.969  0.00  0.00    +0.109 C 
ATOM      9  C   UNL     1      17.789   6.476  19.878  0.00  0.00    +0.109 C 
ATOM     10  C   UNL     1      15.514   6.611  18.678  0.00  0.00    +0.133 C 
ATOM     11  C   UNL     1      16.890   8.839  21.323  0.00  0.00    +0.125 C 
ATOM     12  C   UNL     1      18.358   8.418  21.228  0.00  0.00    +0.104 C 
ATOM     13  C   UNL     1      15.128   8.814  19.463  0.00  0.00    +0.305 C 
ENDROOT
BRANCH   4  14
ATOM     14  C   UNL     1      19.904   6.575  21.036  0.00  0.00    +0.122 C 
BRANCH  14  16
ATOM      6  N   UNL     1      21.006   6.747  24.519  0.00  0.00    -0.274 N 
ATOM      7  N   UNL     1      21.804   5.734  24.142  0.00  0.00    -0.180 NA
ATOM     16  C   UNL     1      20.504   6.465  22.412  0.00  0.00    +0.004 A 
ATOM     18  C   UNL     1      20.207   7.221  23.520  0.00  0.00    +0.112 A 
ATOM     19  C   UNL     1      21.493   5.566  22.854  0.00  0.00    +0.139 A 
ATOM     20  C   UNL     1      21.054   7.229  25.878  0.00  0.00    +0.172 C 
ENDBRANCH  14  16
ENDBRANCH   4  14
BRANCH   5  15
ATOM     15  C   UNL     1      13.730   7.982  17.509  0.00  0.00    +0.137 C 
BRANCH  15  17
ATOM     17  C   UNL     1      12.326   8.090  18.077  0.00  0.00    +0.178 C 
BRANCH  17   2
ATOM      2  O   UNL     1      11.396   7.560  17.142  0.00  0.00    -0.381 OA
ATOM     21  C   UNL     1      10.628   8.588  16.531  0.00  0.00    +0.194 C 
ENDBRANCH  17   2
ENDBRANCH  15  17
ENDBRANCH   5  15
TORSDOF 5
ENDMDL
