REMARK  Name = 11885880
REMARK  6 active torsions:
REMARK  status: ('A' for Active; 'I' for Inactive)
REMARK    1  A    between atoms: O_5  and  C_34
REMARK    2  A    between atoms: O_5  and  C_35
REMARK    3  A    between atoms: N_8  and  C_19
REMARK    4  A    between atoms: C_18  and  C_21
REMARK    5  A    between atoms: C_24  and  C_27
REMARK    6  A    between atoms: C_27  and  C_29
REMARK                            x       y       z     vdW  Elec       q    Type
REMARK                         _______ _______ _______ _____ _____    ______ ____
ROOT
ATOM      2  O   UNL     1       0.518   2.960  -1.357  0.00  0.00    -0.266 OA
ATOM      3  O   UNL     1       2.916  -1.431  -2.673  0.00  0.00    -0.270 OA
ATOM      6  N   UNL     1       4.092  -0.488  -0.884  0.00  0.00    -0.297 N 
ATOM      7  N   UNL     1       2.323   2.050  -0.186  0.00  0.00    -0.310 N 
ATOM      9  C   UNL     1       4.684   1.912  -1.171  0.00  0.00    +0.027 C 
ATOM     10  C   UNL     1       4.242   1.022   1.082  0.00  0.00    +0.054 C 
ATOM     11  C   UNL     1       5.140   1.965   0.283  0.00  0.00    +0.018 C 
ATOM     12  C   UNL     1       4.805   0.478  -1.719  0.00  0.00    +0.113 C 
ATOM     13  C   UNL     1       3.248   2.444  -1.258  0.00  0.00    +0.130 C 
ATOM     14  C   UNL     1       4.405  -0.417   0.553  0.00  0.00    +0.117 C 
ATOM     15  C   UNL     1       2.787   1.440   0.984  0.00  0.00    +0.027 A 
ATOM     16  C   UNL     1       1.942   1.194   1.999  0.00  0.00    +0.024 A 
ATOM     17  C   UNL     1       0.970   2.408  -0.354  0.00  0.00    +0.273 A 
ATOM     18  C   UNL     1       3.181  -1.367  -1.474  0.00  0.00    +0.247 C 
ATOM     19  C   UNL     1       0.056   2.090   0.789  0.00  0.00    +0.099 A 
ATOM     20  C   UNL     1       0.549   1.525   1.896  0.00  0.00    +0.030 A 
ENDROOT
BRANCH  18  21
ATOM      1  F   UNL     1       0.402  -4.889   1.862  0.00  0.00    -0.205 F 
ATOM     21  C   UNL     1       2.452  -2.291  -0.599  0.00  0.00    +0.037 A 
ATOM     22  C   UNL     1       1.230  -1.908  -0.051  0.00  0.00    +0.016 A 
ATOM     23  C   UNL     1       2.985  -3.547  -0.320  0.00  0.00    +0.016 A 
ATOM     25  C   UNL     1       0.537  -2.787   0.781  0.00  0.00    +0.039 A 
ATOM     26  C   UNL     1       2.291  -4.426   0.512  0.00  0.00    +0.039 A 
ATOM     28  C   UNL     1       1.067  -4.046   1.063  0.00  0.00    +0.123 A 
ENDBRANCH  18  21
BRANCH  19   8
ATOM      4  O   UNL     1      -2.141   0.729   2.018  0.00  0.00    -0.275 OA
ATOM      8  N   UNL     1      -1.265   2.404   0.658  0.00  0.00    -0.281 N 
ATOM     24  C   UNL     1      -2.289   1.702   1.282  0.00  0.00    +0.222 C 
ATOM     36  H   UNL     1      -1.506   3.032  -0.105  0.00  0.00    +0.155 HD
BRANCH  24  27
ATOM     27  C   UNL     1      -3.646   2.290   0.943  0.00  0.00    +0.131 C 
BRANCH  27  29
ATOM     29  C   UNL     1      -4.566   1.314   0.257  0.00  0.00    -0.038 A 
ATOM     30  C   UNL     1      -4.559   1.229  -1.128  0.00  0.00    +0.007 A 
ATOM     31  C   UNL     1      -5.405   0.515   1.020  0.00  0.00    +0.007 A 
ATOM     32  C   UNL     1      -5.411   0.326  -1.763  0.00  0.00    +0.046 A 
ATOM     33  C   UNL     1      -6.257  -0.389   0.384  0.00  0.00    +0.046 A 
ATOM     34  C   UNL     1      -6.260  -0.483  -1.008  0.00  0.00    +0.120 A 
BRANCH  34   5
ATOM      5  O   UNL     1      -7.091  -1.365  -1.628  0.00  0.00    -0.495 OA
ATOM     35  C   UNL     1      -7.932  -2.161  -0.795  0.00  0.00    +0.277 C 
ENDBRANCH  34   5
ENDBRANCH  27  29
ENDBRANCH  24  27
ENDBRANCH  19   8
TORSDOF 5
