REMARK  Name = 7128128
REMARK  15 active torsions:
REMARK  status: ('A' for Active; 'I' for Inactive)
REMARK    1  A    between atoms: S_1  and  C_20
REMARK    2  A    between atoms: S_1  and  C_26
REMARK    3  A    between atoms: O_5  and  C_22
REMARK    4  A    between atoms: O_5  and  C_29
REMARK    5  A    between atoms: O_7  and  C_30
REMARK    6  A    between atoms: O_7  and  C_33
REMARK    7  A    between atoms: N_9  and  C_12
REMARK    8  A    between atoms: N_10  and  C_18
REMARK    9  A    between atoms: N_11  and  C_25
REMARK   10  A    between atoms: C_13  and  C_16
REMARK   11  A    between atoms: C_17  and  C_20
REMARK   12  A    between atoms: C_18  and  C_19
REMARK   13  A    between atoms: C_18  and  C_22
REMARK   14  A    between atoms: C_19  and  C_23
REMARK   15  A    between atoms: C_19  and  C_24
REMARK                            x       y       z     vdW  Elec       q    Type
REMARK                         _______ _______ _______ _____ _____    ______ ____
ROOT
ATOM      3  O   UNL     1      -2.482   2.101  -2.115  0.00  0.00    -0.275 OA
ATOM      8  N   UNL     1      -1.649   2.299   0.036  0.00  0.00    -0.287 N 
ATOM     12  C   UNL     1      -0.318   0.894   1.407  0.00  0.00    +0.105 C 
ATOM     13  C   UNL     1      -1.229   0.908   0.179  0.00  0.00    +0.182 C 
ATOM     14  C   UNL     1      -0.832   2.067   2.245  0.00  0.00    +0.043 C 
ATOM     15  C   UNL     1      -1.280   3.088   1.208  0.00  0.00    +0.110 C 
ATOM     17  C   UNL     1      -2.181   2.797  -1.143  0.00  0.00    +0.226 C 
ENDROOT
BRANCH  12   9
ATOM      4  O   UNL     1       1.612  -1.157   0.883  0.00  0.00    -0.252 OA
ATOM      9  N   UNL     1       1.062   1.084   1.028  0.00  0.00    -0.294 N 
ATOM     11  N   UNL     1       3.206   0.509   0.442  0.00  0.00    -0.269 N 
ATOM     21  C   UNL     1       1.942   0.023   0.789  0.00  0.00    +0.304 C 
ATOM     34  H   UNL     1       1.394   2.030   0.864  0.00  0.00    +0.151 HD
ATOM     36  H   UNL     1       3.313   1.520   0.412  0.00  0.00    +0.156 HD
BRANCH  11  25
ATOM     25  C   UNL     1       4.366  -0.236   0.126  0.00  0.00    +0.038 A 
ATOM     27  C   UNL     1       5.551   0.423  -0.200  0.00  0.00    +0.069 A 
ATOM     28  C   UNL     1       4.324  -1.631   0.140  0.00  0.00    +0.023 A 
ATOM     30  C   UNL     1       6.695  -0.312  -0.511  0.00  0.00    +0.122 A 
ATOM     31  C   UNL     1       5.468  -2.366  -0.172  0.00  0.00    +0.005 A 
ATOM     32  C   UNL     1       6.653  -1.706  -0.497  0.00  0.00    +0.046 A 
BRANCH  30   7
ATOM      7  O   UNL     1       7.852   0.331  -0.829  0.00  0.00    -0.495 OA
ATOM     33  C   UNL     1       7.825   1.757  -0.824  0.00  0.00    +0.277 C 
ENDBRANCH  30   7
ENDBRANCH  11  25
ENDBRANCH  12   9
BRANCH  13  16
ATOM      2  O   UNL     1      -3.452   0.581   0.990  0.00  0.00    -0.274 OA
ATOM     10  N   UNL     1      -2.367  -1.185  -0.071  0.00  0.00    -0.301 N 
ATOM     16  C   UNL     1      -2.476   0.108   0.412  0.00  0.00    +0.236 C 
ATOM     35  H   UNL     1      -1.500  -1.476  -0.514  0.00  0.00    +0.150 HD
BRANCH  10  18
ATOM     18  C   UNL     1      -3.422  -2.165   0.048  0.00  0.00    +0.184 C 
BRANCH  18  19
ATOM     19  C   UNL     1      -3.326  -2.979   1.357  0.00  0.00    +0.014 C 
ATOM     23  C   UNL     1      -3.784  -2.197   2.592  0.00  0.00    +0.009 C 
ATOM     24  C   UNL     1      -1.908  -3.515   1.574  0.00  0.00    +0.009 C 
ENDBRANCH  18  19
BRANCH  18  22
ATOM      6  O   UNL     1      -2.650  -3.034  -2.073  0.00  0.00    -0.249 OA
ATOM     22  C   UNL     1      -3.481  -3.079  -1.171  0.00  0.00    +0.328 C 
BRANCH  22   5
ATOM      5  O   UNL     1      -4.546  -3.927  -1.129  0.00  0.00    -0.467 OA
ATOM     29  C   UNL     1      -4.675  -4.820  -2.240  0.00  0.00    +0.280 C 
ENDBRANCH  22   5
ENDBRANCH  18  22
ENDBRANCH  10  18
ENDBRANCH  13  16
BRANCH  17  20
ATOM     20  C   UNL     1      -2.393   4.290  -1.181  0.00  0.00    +0.164 C 
BRANCH  20   1
ATOM      1  S   UNL     1      -4.055   4.622  -0.578  0.00  0.00    -0.155 S 
ATOM     26  C   UNL     1      -4.050   6.426  -0.722  0.00  0.00    +0.085 C 
ENDBRANCH  20   1
ENDBRANCH  17  20
TORSDOF 10
