MODEL 1
REMARK VINA RESULT:      -8.3      0.000      0.000
REMARK  Name = 7686467
REMARK  5 active torsions:
REMARK  status: ('A' for Active; 'I' for Inactive)
REMARK    1  A    between atoms: N_3  and  C_13
REMARK    2  A    between atoms: C_13  and  C_17
REMARK    3  A    between atoms: C_14  and  C_19
REMARK    4  A    between atoms: C_22  and  C_26
REMARK    5  A    between atoms: C_23  and  C_29
REMARK                            x       y       z     vdW  Elec       q    Type
REMARK                         _______ _______ _______ _____ _____    ______ ____
ROOT
ATOM      2  O   UNL     1      10.815   8.708  17.278  0.00  0.00    -0.268 OA
ATOM      3  N   UNL     1      12.271  10.087  21.868  0.00  0.00    -0.297 NA
ATOM      4  N   UNL     1      12.022   8.291  19.240  0.00  0.00    -0.311 N 
ATOM      6  C   UNL     1      10.850   8.056  21.511  0.00  0.00    +0.024 C 
ATOM      7  C   UNL     1      13.283   7.859  21.368  0.00  0.00    +0.051 C 
ATOM      8  C   UNL     1      12.019   7.147  21.846  0.00  0.00    +0.017 C 
ATOM      9  C   UNL     1      11.010   9.420  22.213  0.00  0.00    +0.090 C 
ATOM     10  C   UNL     1      13.424   9.208  22.110  0.00  0.00    +0.094 C 
ATOM     11  C   UNL     1      10.761   8.181  19.989  0.00  0.00    +0.130 C 
ATOM     12  C   UNL     1      13.275   8.079  19.852  0.00  0.00    +0.033 A 
ATOM     14  C   UNL     1      14.414   8.094  19.107  0.00  0.00    -0.005 A 
ATOM     15  C   UNL     1      11.883   8.531  17.864  0.00  0.00    +0.252 A 
ATOM     16  C   UNL     1      14.297   8.337  17.678  0.00  0.00    +0.015 A 
ATOM     18  C   UNL     1      13.131   8.554  17.072  0.00  0.00    +0.071 A 
ENDROOT
BRANCH  14  19
ATOM     19  C   UNL     1      15.735   7.907  19.682  0.00  0.00    +0.010 C 
ATOM     22  C   UNL     1      16.360   6.732  19.674  0.00  0.00    +0.008 C 
BRANCH  22  26
ATOM      1 CL   UNL     1      21.758   5.760  22.017  0.00  0.00    -0.084 Cl
ATOM     26  C   UNL     1      17.693   6.492  20.252  0.00  0.00    -0.025 A 
ATOM     27  C   UNL     1      18.119   7.265  21.320  0.00  0.00    +0.009 A 
ATOM     28  C   UNL     1      18.497   5.497  19.717  0.00  0.00    +0.009 A 
ATOM     30  C   UNL     1      19.382   7.038  21.868  0.00  0.00    +0.020 A 
ATOM     31  C   UNL     1      19.759   5.270  20.264  0.00  0.00    +0.020 A 
ATOM     32  C   UNL     1      20.202   6.040  21.340  0.00  0.00    +0.041 A 
ENDBRANCH  22  26
ENDBRANCH  14  19
BRANCH   3  13
ATOM     13  C   UNL     1      12.411  11.349  22.592  0.00  0.00    +0.119 C 
BRANCH  13  17
ATOM     17  C   UNL     1      11.874  12.511  21.800  0.00  0.00    -0.032 A 
ATOM     20  C   UNL     1      10.722  13.157  22.230  0.00  0.00    +0.023 A 
ATOM     21  C   UNL     1      12.539  12.924  20.654  0.00  0.00    +0.005 A 
ATOM     23  C   UNL     1      10.226  14.234  21.497  0.00  0.00    +0.052 A 
ATOM     24  C   UNL     1      12.042  14.002  19.923  0.00  0.00    +0.002 A 
ATOM     25  C   UNL     1      10.886  14.658  20.343  0.00  0.00    +0.019 A 
BRANCH  23  29
ATOM      5  N   UNL     1       8.079  15.455  22.281  0.00  0.00    -0.191 NA
ATOM     29  C   UNL     1       9.041  14.907  21.929  0.00  0.00    +0.099 C 
ENDBRANCH  23  29
ENDBRANCH  13  17
ENDBRANCH   3  13
TORSDOF 5
ENDMDL
MODEL 2
REMARK VINA RESULT:      -8.1      1.258      1.989
REMARK  Name = 7686467
REMARK  5 active torsions:
REMARK  status: ('A' for Active; 'I' for Inactive)
REMARK    1  A    between atoms: N_3  and  C_13
REMARK    2  A    between atoms: C_13  and  C_17
REMARK    3  A    between atoms: C_14  and  C_19
REMARK    4  A    between atoms: C_22  and  C_26
REMARK    5  A    between atoms: C_23  and  C_29
REMARK                            x       y       z     vdW  Elec       q    Type
REMARK                         _______ _______ _______ _____ _____    ______ ____
ROOT
ATOM      2  O   UNL     1      10.994   8.821  17.128  0.00  0.00    -0.268 OA
ATOM      3  N   UNL     1      12.119  10.063  21.848  0.00  0.00    -0.297 NA
ATOM      4  N   UNL     1      12.112   8.378  19.137  0.00  0.00    -0.311 N 
ATOM      6  C   UNL     1      10.831   7.979  21.325  0.00  0.00    +0.024 C 
ATOM      7  C   UNL     1      13.276   7.915  21.313  0.00  0.00    +0.051 C 
ATOM      8  C   UNL     1      12.028   7.118  21.687  0.00  0.00    +0.017 C 
ATOM      9  C   UNL     1      10.879   9.316  22.092  0.00  0.00    +0.090 C 
ATOM     10  C   UNL     1      13.303   9.235  22.119  0.00  0.00    +0.094 C 
ATOM     11  C   UNL     1      10.820   8.169  19.807  0.00  0.00    +0.130 C 
ATOM     12  C   UNL     1      13.339   8.204  19.809  0.00  0.00    +0.033 A 
ATOM     14  C   UNL     1      14.515   8.311  19.132  0.00  0.00    -0.005 A 
ATOM     15  C   UNL     1      12.036   8.673  17.766  0.00  0.00    +0.252 A 
ATOM     16  C   UNL     1      14.464   8.613  17.710  0.00  0.00    +0.015 A 
ATOM     18  C   UNL     1      13.323   8.797  17.048  0.00  0.00    +0.071 A 
ENDROOT
BRANCH  14  19
ATOM     19  C   UNL     1      15.810   8.168  19.774  0.00  0.00    +0.010 C 
ATOM     22  C   UNL     1      16.465   7.008  19.814  0.00  0.00    +0.008 C 
BRANCH  22  26
ATOM      1 CL   UNL     1      21.767   6.216  22.428  0.00  0.00    -0.084 Cl
ATOM     26  C   UNL     1      17.774   6.812  20.460  0.00  0.00    -0.025 A 
ATOM     27  C   UNL     1      18.622   5.823  19.989  0.00  0.00    +0.009 A 
ATOM     28  C   UNL     1      18.133   7.622  21.526  0.00  0.00    +0.009 A 
ATOM     30  C   UNL     1      19.861   5.637  20.600  0.00  0.00    +0.020 A 
ATOM     31  C   UNL     1      19.373   7.437  22.137  0.00  0.00    +0.020 A 
ATOM     32  C   UNL     1      20.238   6.445  21.674  0.00  0.00    +0.041 A 
ENDBRANCH  22  26
ENDBRANCH  14  19
BRANCH   3  13
ATOM     13  C   UNL     1      12.150  11.296  22.632  0.00  0.00    +0.119 C 
BRANCH  13  17
ATOM     17  C   UNL     1      11.789  12.498  21.801  0.00  0.00    -0.032 A 
ATOM     20  C   UNL     1      12.522  12.784  20.658  0.00  0.00    +0.023 A 
ATOM     21  C   UNL     1      10.725  13.302  22.188  0.00  0.00    +0.005 A 
ATOM     23  C   UNL     1      12.187  13.898  19.888  0.00  0.00    +0.052 A 
ATOM     24  C   UNL     1      10.390  14.414  21.417  0.00  0.00    +0.002 A 
ATOM     25  C   UNL     1      11.120  14.713  20.267  0.00  0.00    +0.019 A 
BRANCH  23  29
ATOM      5  N   UNL     1      13.542  14.450  17.750  0.00  0.00    -0.191 NA
ATOM     29  C   UNL     1      12.934  14.202  18.709  0.00  0.00    +0.099 C 
ENDBRANCH  23  29
ENDBRANCH  13  17
ENDBRANCH   3  13
TORSDOF 5
ENDMDL
MODEL 3
REMARK VINA RESULT:      -8.0      2.296      4.266
REMARK  Name = 7686467
REMARK  5 active torsions:
REMARK  status: ('A' for Active; 'I' for Inactive)
REMARK    1  A    between atoms: N_3  and  C_13
REMARK    2  A    between atoms: C_13  and  C_17
REMARK    3  A    between atoms: C_14  and  C_19
REMARK    4  A    between atoms: C_22  and  C_26
REMARK    5  A    between atoms: C_23  and  C_29
REMARK                            x       y       z     vdW  Elec       q    Type
REMARK                         _______ _______ _______ _____ _____    ______ ____
ROOT
ATOM      2  O   UNL     1      10.551   8.462  19.515  0.00  0.00    -0.268 OA
ATOM      3  N   UNL     1      14.327  11.678  20.213  0.00  0.00    -0.297 NA
ATOM      4  N   UNL     1      12.430   9.162  20.724  0.00  0.00    -0.311 N 
ATOM      6  C   UNL     1      12.493  11.441  21.902  0.00  0.00    +0.024 C 
ATOM      7  C   UNL     1      14.431   9.954  22.017  0.00  0.00    +0.051 C 
ATOM      8  C   UNL     1      13.436  10.743  22.865  0.00  0.00    +0.017 C 
ATOM      9  C   UNL     1      13.280  12.380  20.965  0.00  0.00    +0.090 C 
ATOM     10  C   UNL     1      15.218  10.929  21.110  0.00  0.00    +0.094 C 
ATOM     11  C   UNL     1      11.706  10.372  21.143  0.00  0.00    +0.130 C 
ATOM     12  C   UNL     1      13.736   8.880  21.174  0.00  0.00    +0.033 A 
ATOM     14  C   UNL     1      14.337   7.705  20.843  0.00  0.00    -0.005 A 
ATOM     15  C   UNL     1      11.697   8.272  19.922  0.00  0.00    +0.252 A 
ATOM     16  C   UNL     1      13.599   6.764  20.016  0.00  0.00    +0.015 A 
ATOM     18  C   UNL     1      12.370   7.005  19.564  0.00  0.00    +0.071 A 
ENDROOT
BRANCH  14  19
ATOM     19  C   UNL     1      15.689   7.368  21.254  0.00  0.00    +0.010 C 
ATOM     22  C   UNL     1      16.666   7.131  20.380  0.00  0.00    +0.008 C 
BRANCH  22  26
ATOM      1 CL   UNL     1      22.259   5.695  21.874  0.00  0.00    -0.084 Cl
ATOM     26  C   UNL     1      18.047   6.777  20.748  0.00  0.00    -0.025 A 
ATOM     27  C   UNL     1      18.695   7.504  21.733  0.00  0.00    +0.009 A 
ATOM     28  C   UNL     1      18.673   5.722  20.103  0.00  0.00    +0.009 A 
ATOM     30  C   UNL     1      20.003   7.170  22.082  0.00  0.00    +0.020 A 
ATOM     31  C   UNL     1      19.980   5.386  20.452  0.00  0.00    +0.020 A 
ATOM     32  C   UNL     1      20.646   6.109  21.442  0.00  0.00    +0.041 A 
ENDBRANCH  22  26
ENDBRANCH  14  19
BRANCH   3  13
ATOM     13  C   UNL     1      15.084  12.608  19.378  0.00  0.00    +0.119 C 
BRANCH  13  17
ATOM     17  C   UNL     1      15.195  12.123  17.957  0.00  0.00    -0.032 A 
ATOM     20  C   UNL     1      14.331  11.136  17.502  0.00  0.00    +0.023 A 
ATOM     21  C   UNL     1      16.159  12.670  17.121  0.00  0.00    +0.005 A 
ATOM     23  C   UNL     1      14.434  10.688  16.186  0.00  0.00    +0.052 A 
ATOM     24  C   UNL     1      16.260  12.221  15.805  0.00  0.00    +0.002 A 
ATOM     25  C   UNL     1      15.399  11.231  15.336  0.00  0.00    +0.019 A 
BRANCH  23  29
ATOM      5  N   UNL     1      12.830   8.849  15.314  0.00  0.00    -0.191 NA
ATOM     29  C   UNL     1      13.549   9.673  15.705  0.00  0.00    +0.099 C 
ENDBRANCH  23  29
ENDBRANCH  13  17
ENDBRANCH   3  13
TORSDOF 5
ENDMDL
MODEL 4
REMARK VINA RESULT:      -7.0     14.749     18.590
REMARK  Name = 7686467
REMARK  5 active torsions:
REMARK  status: ('A' for Active; 'I' for Inactive)
REMARK    1  A    between atoms: N_3  and  C_13
REMARK    2  A    between atoms: C_13  and  C_17
REMARK    3  A    between atoms: C_14  and  C_19
REMARK    4  A    between atoms: C_22  and  C_26
REMARK    5  A    between atoms: C_23  and  C_29
REMARK                            x       y       z     vdW  Elec       q    Type
REMARK                         _______ _______ _______ _____ _____    ______ ____
ROOT
ATOM      2  O   UNL     1      13.256   3.171   1.781  0.00  0.00    -0.268 OA
ATOM      3  N   UNL     1      13.467   7.396   4.461  0.00  0.00    -0.297 NA
ATOM      4  N   UNL     1      12.877   5.472   1.983  0.00  0.00    -0.311 N 
ATOM      6  C   UNL     1      14.808   7.120   2.363  0.00  0.00    +0.024 C 
ATOM      7  C   UNL     1      12.510   7.945   2.220  0.00  0.00    +0.051 C 
ATOM      8  C   UNL     1      13.910   8.100   1.630  0.00  0.00    +0.017 C 
ATOM      9  C   UNL     1      14.813   7.423   3.876  0.00  0.00    +0.090 C 
ATOM     10  C   UNL     1      12.549   8.281   3.730  0.00  0.00    +0.094 C 
ATOM     11  C   UNL     1      14.328   5.702   2.046  0.00  0.00    +0.130 C 
ATOM     12  C   UNL     1      11.951   6.535   1.999  0.00  0.00    +0.033 A 
ATOM     14  C   UNL     1      10.622   6.290   1.841  0.00  0.00    -0.005 A 
ATOM     15  C   UNL     1      12.489   4.133   1.816  0.00  0.00    +0.252 A 
ATOM     16  C   UNL     1      10.193   4.912   1.663  0.00  0.00    +0.015 A 
ATOM     18  C   UNL     1      11.040   3.884   1.656  0.00  0.00    +0.071 A 
ENDROOT
BRANCH  14  19
ATOM     19  C   UNL     1       9.617   7.339   1.874  0.00  0.00    +0.010 C 
ATOM     22  C   UNL     1       8.940   7.648   2.978  0.00  0.00    +0.008 C 
BRANCH  22  26
ATOM      1 CL   UNL     1       4.760  11.892   3.298  0.00  0.00    -0.084 Cl
ATOM     26  C   UNL     1       7.907   8.695   3.057  0.00  0.00    -0.025 A 
ATOM     27  C   UNL     1       7.472   9.128   4.299  0.00  0.00    +0.009 A 
ATOM     28  C   UNL     1       7.391   9.230   1.887  0.00  0.00    +0.009 A 
ATOM     30  C   UNL     1       6.494  10.119   4.374  0.00  0.00    +0.020 A 
ATOM     31  C   UNL     1       6.415  10.222   1.961  0.00  0.00    +0.020 A 
ATOM     32  C   UNL     1       5.965  10.667   3.205  0.00  0.00    +0.041 A 
ENDBRANCH  22  26
ENDBRANCH  14  19
BRANCH   3  13
ATOM     13  C   UNL     1      13.507   7.740   5.881  0.00  0.00    +0.119 C 
BRANCH  13  17
ATOM     17  C   UNL     1      12.150   7.627   6.523  0.00  0.00    -0.032 A 
ATOM     20  C   UNL     1      11.768   6.427   7.108  0.00  0.00    +0.023 A 
ATOM     21  C   UNL     1      11.301   8.725   6.525  0.00  0.00    +0.005 A 
ATOM     23  C   UNL     1      10.512   6.324   7.703  0.00  0.00    +0.052 A 
ATOM     24  C   UNL     1      10.045   8.620   7.122  0.00  0.00    +0.002 A 
ATOM     25  C   UNL     1       9.650   7.420   7.711  0.00  0.00    +0.019 A 
BRANCH  23  29
ATOM      5  N   UNL     1       9.779   4.094   8.802  0.00  0.00    -0.191 NA
ATOM     29  C   UNL     1      10.108   5.094   8.309  0.00  0.00    +0.099 C 
ENDBRANCH  23  29
ENDBRANCH  13  17
ENDBRANCH   3  13
TORSDOF 5
ENDMDL
MODEL 5
REMARK VINA RESULT:      -6.9     26.566     29.650
REMARK  Name = 7686467
REMARK  5 active torsions:
REMARK  status: ('A' for Active; 'I' for Inactive)
REMARK    1  A    between atoms: N_3  and  C_13
REMARK    2  A    between atoms: C_13  and  C_17
REMARK    3  A    between atoms: C_14  and  C_19
REMARK    4  A    between atoms: C_22  and  C_26
REMARK    5  A    between atoms: C_23  and  C_29
REMARK                            x       y       z     vdW  Elec       q    Type
REMARK                         _______ _______ _______ _____ _____    ______ ____
ROOT
ATOM      2  O   UNL     1      -0.803 -11.535  14.975  0.00  0.00    -0.268 OA
ATOM      3  N   UNL     1      -4.874 -12.837  12.364  0.00  0.00    -0.297 NA
ATOM      4  N   UNL     1      -2.948 -12.468  14.883  0.00  0.00    -0.311 N 
ATOM      6  C   UNL     1      -3.442 -14.561  13.482  0.00  0.00    +0.024 C 
ATOM      7  C   UNL     1      -5.239 -13.488  14.748  0.00  0.00    +0.051 C 
ATOM      8  C   UNL     1      -4.516 -14.815  14.524  0.00  0.00    +0.017 C 
ATOM      9  C   UNL     1      -4.074 -14.052  12.170  0.00  0.00    +0.090 C 
ATOM     10  C   UNL     1      -5.880 -13.022  13.419  0.00  0.00    +0.094 C 
ATOM     11  C   UNL     1      -2.428 -13.577  14.070  0.00  0.00    +0.130 C 
ATOM     12  C   UNL     1      -4.296 -12.411  15.294  0.00  0.00    +0.033 A 
ATOM     14  C   UNL     1      -4.718 -11.420  16.126  0.00  0.00    -0.005 A 
ATOM     15  C   UNL     1      -1.992 -11.524  15.292  0.00  0.00    +0.252 A 
ATOM     16  C   UNL     1      -3.747 -10.432  16.567  0.00  0.00    +0.015 A 
ATOM     18  C   UNL     1      -2.471 -10.449  16.187  0.00  0.00    +0.071 A 
ENDROOT
BRANCH  14  19
ATOM     19  C   UNL     1      -6.098 -11.293  16.564  0.00  0.00    +0.010 C 
ATOM     22  C   UNL     1      -6.572 -10.182  17.124  0.00  0.00    +0.008 C 
BRANCH  22  26
ATOM      1 CL   UNL     1     -12.184  -9.482  19.021  0.00  0.00    -0.084 Cl
ATOM     26  C   UNL     1      -7.958 -10.010  17.592  0.00  0.00    -0.025 A 
ATOM     27  C   UNL     1      -8.497 -10.933  18.472  0.00  0.00    +0.009 A 
ATOM     28  C   UNL     1      -8.696  -8.926  17.144  0.00  0.00    +0.009 A 
ATOM     30  C   UNL     1      -9.809 -10.771  18.915  0.00  0.00    +0.020 A 
ATOM     31  C   UNL     1     -10.008  -8.762  17.587  0.00  0.00    +0.020 A 
ATOM     32  C   UNL     1     -10.565  -9.684  18.473  0.00  0.00    +0.041 A 
ENDBRANCH  22  26
ENDBRANCH  14  19
BRANCH   3  13
ATOM     13  C   UNL     1      -5.499 -12.416  11.112  0.00  0.00    +0.119 C 
BRANCH  13  17
ATOM     17  C   UNL     1      -4.849 -11.181  10.548  0.00  0.00    -0.032 A 
ATOM     20  C   UNL     1      -3.594 -10.801  11.002  0.00  0.00    +0.023 A 
ATOM     21  C   UNL     1      -5.513 -10.440   9.580  0.00  0.00    +0.005 A 
ATOM     23  C   UNL     1      -2.992  -9.657  10.480  0.00  0.00    +0.052 A 
ATOM     24  C   UNL     1      -4.910  -9.297   9.057  0.00  0.00    +0.002 A 
ATOM     25  C   UNL     1      -3.650  -8.904   9.506  0.00  0.00    +0.019 A 
BRANCH  23  29
ATOM      5  N   UNL     1      -0.649  -8.929  11.313  0.00  0.00    -0.191 NA
ATOM     29  C   UNL     1      -1.699  -9.256  10.939  0.00  0.00    +0.099 C 
ENDBRANCH  23  29
ENDBRANCH  13  17
ENDBRANCH   3  13
TORSDOF 5
ENDMDL
MODEL 6
REMARK VINA RESULT:      -6.7     16.569     20.502
REMARK  Name = 7686467
REMARK  5 active torsions:
REMARK  status: ('A' for Active; 'I' for Inactive)
REMARK    1  A    between atoms: N_3  and  C_13
REMARK    2  A    between atoms: C_13  and  C_17
REMARK    3  A    between atoms: C_14  and  C_19
REMARK    4  A    between atoms: C_22  and  C_26
REMARK    5  A    between atoms: C_23  and  C_29
REMARK                            x       y       z     vdW  Elec       q    Type
REMARK                         _______ _______ _______ _____ _____    ______ ____
ROOT
ATOM      2  O   UNL     1      10.397   9.372  -0.786  0.00  0.00    -0.268 OA
ATOM      3  N   UNL     1      12.734   5.162   0.592  0.00  0.00    -0.297 NA
ATOM      4  N   UNL     1      11.424   8.061   0.859  0.00  0.00    -0.311 N 
ATOM      6  C   UNL     1      13.893   7.381   0.684  0.00  0.00    +0.024 C 
ATOM      7  C   UNL     1      12.557   6.644   2.595  0.00  0.00    +0.051 C 
ATOM      8  C   UNL     1      13.838   7.376   2.200  0.00  0.00    +0.017 C 
ATOM      9  C   UNL     1      13.895   5.938   0.140  0.00  0.00    +0.090 C 
ATOM     10  C   UNL     1      12.607   5.195   2.055  0.00  0.00    +0.094 C 
ATOM     11  C   UNL     1      12.712   8.206   0.165  0.00  0.00    +0.130 C 
ATOM     12  C   UNL     1      11.307   7.365   2.079  0.00  0.00    +0.033 A 
ATOM     14  C   UNL     1      10.118   7.335   2.741  0.00  0.00    -0.005 A 
ATOM     15  C   UNL     1      10.345   8.739   0.268  0.00  0.00    +0.252 A 
ATOM     16  C   UNL     1       8.985   8.032   2.152  0.00  0.00    +0.015 A 
ATOM     18  C   UNL     1       9.059   8.687   0.995  0.00  0.00    +0.071 A 
ENDROOT
BRANCH  14  19
ATOM     19  C   UNL     1       9.928   6.614   3.988  0.00  0.00    +0.010 C 
ATOM     22  C   UNL     1       9.805   7.233   5.161  0.00  0.00    +0.008 C 
BRANCH  22  26
ATOM      1 CL   UNL     1       9.060   4.453  10.385  0.00  0.00    -0.084 Cl
ATOM     26  C   UNL     1       9.620   6.546   6.451  0.00  0.00    -0.025 A 
ATOM     27  C   UNL     1       9.976   5.213   6.567  0.00  0.00    +0.009 A 
ATOM     28  C   UNL     1       9.095   7.248   7.525  0.00  0.00    +0.009 A 
ATOM     30  C   UNL     1       9.801   4.562   7.788  0.00  0.00    +0.020 A 
ATOM     31  C   UNL     1       8.920   6.598   8.746  0.00  0.00    +0.020 A 
ATOM     32  C   UNL     1       9.274   5.255   8.879  0.00  0.00    +0.041 A 
ENDBRANCH  22  26
ENDBRANCH  14  19
BRANCH   3  13
ATOM     13  C   UNL     1      12.800   3.788   0.101  0.00  0.00    +0.119 C 
BRANCH  13  17
ATOM     17  C   UNL     1      11.937   3.585  -1.116  0.00  0.00    -0.032 A 
ATOM     20  C   UNL     1      10.914   4.483  -1.386  0.00  0.00    +0.023 A 
ATOM     21  C   UNL     1      12.178   2.503  -1.952  0.00  0.00    +0.005 A 
ATOM     23  C   UNL     1      10.116   4.295  -2.514  0.00  0.00    +0.052 A 
ATOM     24  C   UNL     1      11.380   2.317  -3.080  0.00  0.00    +0.002 A 
ATOM     25  C   UNL     1      10.349   3.212  -3.362  0.00  0.00    +0.019 A 
BRANCH  23  29
ATOM      5  N   UNL     1       8.201   5.960  -3.039  0.00  0.00    -0.191 NA
ATOM     29  C   UNL     1       9.060   5.214  -2.803  0.00  0.00    +0.099 C 
ENDBRANCH  23  29
ENDBRANCH  13  17
ENDBRANCH   3  13
TORSDOF 5
ENDMDL
MODEL 7
REMARK VINA RESULT:      -6.7     14.708     17.764
REMARK  Name = 7686467
REMARK  5 active torsions:
REMARK  status: ('A' for Active; 'I' for Inactive)
REMARK    1  A    between atoms: N_3  and  C_13
REMARK    2  A    between atoms: C_13  and  C_17
REMARK    3  A    between atoms: C_14  and  C_19
REMARK    4  A    between atoms: C_22  and  C_26
REMARK    5  A    between atoms: C_23  and  C_29
REMARK                            x       y       z     vdW  Elec       q    Type
REMARK                         _______ _______ _______ _____ _____    ______ ____
ROOT
ATOM      2  O   UNL     1       8.495  10.819   5.742  0.00  0.00    -0.268 OA
ATOM      3  N   UNL     1      11.389   6.825   6.615  0.00  0.00    -0.297 NA
ATOM      4  N   UNL     1       8.949   8.538   5.473  0.00  0.00    -0.311 N 
ATOM      6  C   UNL     1       9.042   6.943   7.481  0.00  0.00    +0.024 C 
ATOM      7  C   UNL     1       9.448   6.090   5.226  0.00  0.00    +0.051 C 
ATOM      8  C   UNL     1       8.591   5.899   6.475  0.00  0.00    +0.017 C 
ATOM      9  C   UNL     1      10.539   6.763   7.809  0.00  0.00    +0.090 C 
ATOM     10  C   UNL     1      10.937   5.877   5.587  0.00  0.00    +0.094 C 
ATOM     11  C   UNL     1       8.724   8.326   6.910  0.00  0.00    +0.130 C 
ATOM     12  C   UNL     1       9.241   7.472   4.598  0.00  0.00    +0.033 A 
ATOM     14  C   UNL     1       9.347   7.692   3.259  0.00  0.00    -0.005 A 
ATOM     15  C   UNL     1       8.764   9.856   5.024  0.00  0.00    +0.252 A 
ATOM     16  C   UNL     1       9.157   9.047   2.767  0.00  0.00    +0.015 A 
ATOM     18  C   UNL     1       8.894  10.078   3.568  0.00  0.00    +0.071 A 
ENDROOT
BRANCH  14  19
ATOM     19  C   UNL     1       9.671   6.640   2.310  0.00  0.00    +0.010 C 
ATOM     22  C   UNL     1      10.903   6.452   1.841  0.00  0.00    +0.008 C 
BRANCH  22  26
ATOM      1 CL   UNL     1      12.419   2.223  -2.082  0.00  0.00    -0.084 Cl
ATOM     26  C   UNL     1      11.277   5.408   0.873  0.00  0.00    -0.025 A 
ATOM     27  C   UNL     1      10.560   5.286  -0.306  0.00  0.00    +0.009 A 
ATOM     28  C   UNL     1      12.341   4.566   1.159  0.00  0.00    +0.009 A 
ATOM     30  C   UNL     1      10.913   4.297  -1.223  0.00  0.00    +0.020 A 
ATOM     31  C   UNL     1      12.695   3.577   0.242  0.00  0.00    +0.020 A 
ATOM     32  C   UNL     1      11.982   3.442  -0.950  0.00  0.00    +0.041 A 
ENDBRANCH  22  26
ENDBRANCH  14  19
BRANCH   3  13
ATOM     13  C   UNL     1      12.791   6.598   6.959  0.00  0.00    +0.119 C 
BRANCH  13  17
ATOM     17  C   UNL     1      13.646   7.798   6.649  0.00  0.00    -0.032 A 
ATOM     20  C   UNL     1      14.923   7.613   6.135  0.00  0.00    +0.023 A 
ATOM     21  C   UNL     1      13.146   9.072   6.879  0.00  0.00    +0.005 A 
ATOM     23  C   UNL     1      15.714   8.725   5.848  0.00  0.00    +0.052 A 
ATOM     24  C   UNL     1      13.938  10.182   6.591  0.00  0.00    +0.002 A 
ATOM     25  C   UNL     1      15.221  10.010   6.075  0.00  0.00    +0.019 A 
BRANCH  23  29
ATOM      5  N   UNL     1      18.099   8.403   4.888  0.00  0.00    -0.191 NA
ATOM     29  C   UNL     1      17.030   8.548   5.318  0.00  0.00    +0.099 C 
ENDBRANCH  23  29
ENDBRANCH  13  17
ENDBRANCH   3  13
TORSDOF 5
ENDMDL
MODEL 8
REMARK VINA RESULT:      -6.7     27.006     30.276
REMARK  Name = 7686467
REMARK  5 active torsions:
REMARK  status: ('A' for Active; 'I' for Inactive)
REMARK    1  A    between atoms: N_3  and  C_13
REMARK    2  A    between atoms: C_13  and  C_17
REMARK    3  A    between atoms: C_14  and  C_19
REMARK    4  A    between atoms: C_22  and  C_26
REMARK    5  A    between atoms: C_23  and  C_29
REMARK                            x       y       z     vdW  Elec       q    Type
REMARK                         _______ _______ _______ _____ _____    ______ ____
ROOT
ATOM      2  O   UNL     1     -16.833  10.808  33.938  0.00  0.00    -0.268 OA
ATOM      3  N   UNL     1     -12.286   9.587  32.231  0.00  0.00    -0.297 NA
ATOM      4  N   UNL     1     -15.022   9.328  33.855  0.00  0.00    -0.311 N 
ATOM      6  C   UNL     1     -12.687  10.019  34.665  0.00  0.00    +0.024 C 
ATOM      7  C   UNL     1     -13.051   7.774  33.768  0.00  0.00    +0.051 C 
ATOM      8  C   UNL     1     -12.528   8.543  34.979  0.00  0.00    +0.017 C 
ATOM      9  C   UNL     1     -11.891  10.388  33.396  0.00  0.00    +0.090 C 
ATOM     10  C   UNL     1     -12.215   8.149  32.522  0.00  0.00    +0.094 C 
ATOM     11  C   UNL     1     -14.180  10.323  34.535  0.00  0.00    +0.130 C 
ATOM     12  C   UNL     1     -14.538   8.047  33.518  0.00  0.00    +0.033 A 
ATOM     14  C   UNL     1     -15.373   7.118  32.977  0.00  0.00    -0.005 A 
ATOM     15  C   UNL     1     -16.357   9.710  33.650  0.00  0.00    +0.252 A 
ATOM     16  C   UNL     1     -16.762   7.488  32.756  0.00  0.00    +0.015 A 
ATOM     18  C   UNL     1     -17.247   8.693  33.052  0.00  0.00    +0.071 A 
ENDROOT
BRANCH  14  19
ATOM     19  C   UNL     1     -14.929   5.791  32.585  0.00  0.00    +0.010 C 
ATOM     22  C   UNL     1     -15.323   5.210  31.454  0.00  0.00    +0.008 C 
BRANCH  22  26
ATOM      1 CL   UNL     1     -13.645  -0.237  29.695  0.00  0.00    -0.084 Cl
ATOM     26  C   UNL     1     -14.908   3.865  31.019  0.00  0.00    -0.025 A 
ATOM     27  C   UNL     1     -14.135   3.086  31.865  0.00  0.00    +0.009 A 
ATOM     28  C   UNL     1     -15.300   3.403  29.772  0.00  0.00    +0.009 A 
ATOM     30  C   UNL     1     -13.741   1.813  31.454  0.00  0.00    +0.020 A 
ATOM     31  C   UNL     1     -14.908   2.130  29.361  0.00  0.00    +0.020 A 
ATOM     32  C   UNL     1     -14.129   1.334  30.202  0.00  0.00    +0.041 A 
ENDBRANCH  22  26
ENDBRANCH  14  19
BRANCH   3  13
ATOM     13  C   UNL     1     -11.475   9.927  31.064  0.00  0.00    +0.119 C 
BRANCH  13  17
ATOM     17  C   UNL     1     -12.325  10.220  29.856  0.00  0.00    -0.032 A 
ATOM     20  C   UNL     1     -11.724  10.344  28.611  0.00  0.00    +0.023 A 
ATOM     21  C   UNL     1     -13.698  10.359  30.004  0.00  0.00    +0.005 A 
ATOM     23  C   UNL     1     -12.512  10.614  27.493  0.00  0.00    +0.052 A 
ATOM     24  C   UNL     1     -14.485  10.628  28.885  0.00  0.00    +0.002 A 
ATOM     25  C   UNL     1     -13.893  10.756  27.629  0.00  0.00    +0.019 A 
BRANCH  23  29
ATOM      5  N   UNL     1     -11.412  10.848  25.158  0.00  0.00    -0.191 NA
ATOM     29  C   UNL     1     -11.905  10.743  26.205  0.00  0.00    +0.099 C 
ENDBRANCH  23  29
ENDBRANCH  13  17
ENDBRANCH   3  13
TORSDOF 5
ENDMDL
MODEL 9
REMARK VINA RESULT:      -6.6     27.432     30.101
REMARK  Name = 7686467
REMARK  5 active torsions:
REMARK  status: ('A' for Active; 'I' for Inactive)
REMARK    1  A    between atoms: N_3  and  C_13
REMARK    2  A    between atoms: C_13  and  C_17
REMARK    3  A    between atoms: C_14  and  C_19
REMARK    4  A    between atoms: C_22  and  C_26
REMARK    5  A    between atoms: C_23  and  C_29
REMARK                            x       y       z     vdW  Elec       q    Type
REMARK                         _______ _______ _______ _____ _____    ______ ____
ROOT
ATOM      2  O   UNL     1      -1.946 -15.231  12.951  0.00  0.00    -0.268 OA
ATOM      3  N   UNL     1      -4.259 -10.863  13.761  0.00  0.00    -0.297 NA
ATOM      4  N   UNL     1      -2.586 -13.102  12.218  0.00  0.00    -0.311 N 
ATOM      6  C   UNL     1      -1.781 -10.976  13.411  0.00  0.00    +0.024 C 
ATOM      7  C   UNL     1      -3.261 -10.801  11.472  0.00  0.00    +0.051 C 
ATOM      8  C   UNL     1      -1.920 -10.341  12.039  0.00  0.00    +0.017 C 
ATOM      9  C   UNL     1      -2.943 -10.540  14.326  0.00  0.00    +0.090 C 
ATOM     10  C   UNL     1      -4.402 -10.325  12.401  0.00  0.00    +0.094 C 
ATOM     11  C   UNL     1      -1.709 -12.493  13.230  0.00  0.00    +0.130 C 
ATOM     12  C   UNL     1      -3.313 -12.322  11.296  0.00  0.00    +0.033 A 
ATOM     14  C   UNL     1      -4.038 -12.922  10.312  0.00  0.00    -0.005 A 
ATOM     15  C   UNL     1      -2.574 -14.505  12.180  0.00  0.00    +0.252 A 
ATOM     16  C   UNL     1      -4.041 -14.375  10.248  0.00  0.00    +0.015 A 
ATOM     18  C   UNL     1      -3.375 -15.140  11.112  0.00  0.00    +0.071 A 
ENDROOT
BRANCH  14  19
ATOM     19  C   UNL     1      -4.829 -12.175   9.348  0.00  0.00    +0.010 C 
ATOM     22  C   UNL     1      -4.463 -12.039   8.075  0.00  0.00    +0.008 C 
BRANCH  22  26
ATOM      1 CL   UNL     1      -7.547  -8.985   3.983  0.00  0.00    -0.084 Cl
ATOM     26  C   UNL     1      -5.225 -11.286   7.065  0.00  0.00    -0.025 A 
ATOM     27  C   UNL     1      -5.919 -10.149   7.446  0.00  0.00    +0.009 A 
ATOM     28  C   UNL     1      -5.233 -11.727   5.750  0.00  0.00    +0.009 A 
ATOM     30  C   UNL     1      -6.641  -9.435   6.490  0.00  0.00    +0.020 A 
ATOM     31  C   UNL     1      -5.953 -11.013   4.794  0.00  0.00    +0.020 A 
ATOM     32  C   UNL     1      -6.657  -9.867   5.163  0.00  0.00    +0.041 A 
ENDBRANCH  22  26
ENDBRANCH  14  19
BRANCH   3  13
ATOM     13  C   UNL     1      -5.333 -10.387  14.630  0.00  0.00    +0.119 C 
BRANCH  13  17
ATOM     17  C   UNL     1      -5.620 -11.354  15.747  0.00  0.00    -0.032 A 
ATOM     20  C   UNL     1      -5.698 -10.888  17.052  0.00  0.00    +0.023 A 
ATOM     21  C   UNL     1      -5.806 -12.699  15.457  0.00  0.00    +0.005 A 
ATOM     23  C   UNL     1      -5.964 -11.784  18.087  0.00  0.00    +0.052 A 
ATOM     24  C   UNL     1      -6.073 -13.594  16.492  0.00  0.00    +0.002 A 
ATOM     25  C   UNL     1      -6.153 -13.138  17.807  0.00  0.00    +0.019 A 
BRANCH  23  29
ATOM      5  N   UNL     1      -6.115 -10.935  20.530  0.00  0.00    -0.191 NA
ATOM     29  C   UNL     1      -6.048 -11.316  19.435  0.00  0.00    +0.099 C 
ENDBRANCH  23  29
ENDBRANCH  13  17
ENDBRANCH   3  13
TORSDOF 5
ENDMDL
MODEL 10
REMARK VINA RESULT:      -6.5     26.438     30.174
REMARK  Name = 7686467
REMARK  5 active torsions:
REMARK  status: ('A' for Active; 'I' for Inactive)
REMARK    1  A    between atoms: N_3  and  C_13
REMARK    2  A    between atoms: C_13  and  C_17
REMARK    3  A    between atoms: C_14  and  C_19
REMARK    4  A    between atoms: C_22  and  C_26
REMARK    5  A    between atoms: C_23  and  C_29
REMARK                            x       y       z     vdW  Elec       q    Type
REMARK                         _______ _______ _______ _____ _____    ______ ____
ROOT
ATOM      2  O   UNL     1     -11.959   8.612  34.631  0.00  0.00    -0.268 OA
ATOM      3  N   UNL     1     -15.823   7.205  31.771  0.00  0.00    -0.297 NA
ATOM      4  N   UNL     1     -13.546   9.090  32.977  0.00  0.00    -0.311 N 
ATOM      6  C   UNL     1     -16.063   9.026  33.475  0.00  0.00    +0.024 C 
ATOM      7  C   UNL     1     -15.277   9.581  31.226  0.00  0.00    +0.051 C 
ATOM      8  C   UNL     1     -16.148  10.074  32.380  0.00  0.00    +0.017 C 
ATOM      9  C   UNL     1     -16.561   7.662  32.954  0.00  0.00    +0.090 C 
ATOM     10  C   UNL     1     -15.822   8.227  30.714  0.00  0.00    +0.094 C 
ATOM     11  C   UNL     1     -14.618   8.974  33.976  0.00  0.00    +0.130 C 
ATOM     12  C   UNL     1     -13.808   9.447  31.638  0.00  0.00    +0.033 A 
ATOM     14  C   UNL     1     -12.781   9.639  30.766  0.00  0.00    -0.005 A 
ATOM     15  C   UNL     1     -12.244   8.909  33.471  0.00  0.00    +0.252 A 
ATOM     16  C   UNL     1     -11.422   9.461  31.253  0.00  0.00    +0.015 A 
ATOM     18  C   UNL     1     -11.141   9.112  32.507  0.00  0.00    +0.071 A 
ENDROOT
BRANCH  14  19
ATOM     19  C   UNL     1     -12.987   9.982  29.369  0.00  0.00    +0.010 C 
ATOM     22  C   UNL     1     -11.989  10.026  28.488  0.00  0.00    +0.008 C 
BRANCH  22  26
ATOM      1 CL   UNL     1     -12.630  11.453  22.732  0.00  0.00    -0.084 Cl
ATOM     26  C   UNL     1     -12.148  10.378  27.067  0.00  0.00    -0.025 A 
ATOM     27  C   UNL     1     -13.408  10.338  26.493  0.00  0.00    +0.009 A 
ATOM     28  C   UNL     1     -11.032  10.744  26.329  0.00  0.00    +0.009 A 
ATOM     30  C   UNL     1     -13.558  10.670  25.147  0.00  0.00    +0.020 A 
ATOM     31  C   UNL     1     -11.181  11.078  24.984  0.00  0.00    +0.020 A 
ATOM     32  C   UNL     1     -12.444  11.041  24.392  0.00  0.00    +0.041 A 
ENDBRANCH  22  26
ENDBRANCH  14  19
BRANCH   3  13
ATOM     13  C   UNL     1     -16.358   5.939  31.276  0.00  0.00    +0.119 C 
BRANCH  13  17
ATOM     17  C   UNL     1     -15.339   4.833  31.346  0.00  0.00    -0.032 A 
ATOM     20  C   UNL     1     -15.569   3.647  30.664  0.00  0.00    +0.023 A 
ATOM     21  C   UNL     1     -14.181   5.017  32.090  0.00  0.00    +0.005 A 
ATOM     23  C   UNL     1     -14.625   2.623  30.728  0.00  0.00    +0.052 A 
ATOM     24  C   UNL     1     -13.237   3.993  32.153  0.00  0.00    +0.002 A 
ATOM     25  C   UNL     1     -13.457   2.796  31.473  0.00  0.00    +0.019 A 
BRANCH  23  29
ATOM      5  N   UNL     1     -15.034   0.400  29.462  0.00  0.00    -0.191 NA
ATOM     29  C   UNL     1     -14.850   1.397  30.029  0.00  0.00    +0.099 C 
ENDBRANCH  23  29
ENDBRANCH  13  17
ENDBRANCH   3  13
TORSDOF 5
ENDMDL
