MODEL 1
REMARK VINA RESULT:      -6.2      0.000      0.000
REMARK  Name = 28960225
REMARK  10 active torsions:
REMARK  status: ('A' for Active; 'I' for Inactive)
REMARK    1  A    between atoms: O_3  and  C_26
REMARK    2  A    between atoms: O_3  and  C_28
REMARK    3  A    between atoms: N_5  and  C_18
REMARK    4  A    between atoms: N_5  and  C_19
REMARK    5  A    between atoms: C_7  and  C_13
REMARK    6  A    between atoms: C_8  and  C_12
REMARK    7  A    between atoms: C_12  and  C_14
REMARK    8  A    between atoms: C_13  and  C_15
REMARK    9  A    between atoms: C_17  and  C_20
REMARK   10  A    between atoms: C_18  and  C_21
REMARK                            x       y       z     vdW  Elec       q    Type
REMARK                         _______ _______ _______ _____ _____    ______ ____
ROOT
ATOM      4  N   UNL     1      20.441   9.628  21.938  0.00  0.00    -0.316 NA
ATOM      7  C   UNL     1      21.420   7.011  20.991  0.00  0.00    +0.004 C 
ATOM      8  C   UNL     1      19.919   7.381  21.020  0.00  0.00    +0.012 C 
ATOM      9  C   UNL     1      22.253   8.301  20.911  0.00  0.00    +0.019 C 
ATOM     10  C   UNL     1      19.613   8.432  22.101  0.00  0.00    +0.085 C 
ATOM     11  C   UNL     1      21.867   9.313  21.989  0.00  0.00    +0.081 C 
ATOM     29  H   UNL     1      20.217  10.296  22.676  0.00  0.00    +0.122 HD
ENDROOT
BRANCH   8  12
ATOM     12  C   UNL     1      19.005   6.165  21.180  0.00  0.00    +0.064 C 
BRANCH  12  14
ATOM      2  O   UNL     1      16.481   5.947  18.623  0.00  0.00    -0.354 OA
ATOM      6  N   UNL     1      17.723   5.625  19.155  0.00  0.00    -0.083 NA
ATOM     14  C   UNL     1      17.782   6.282  20.317  0.00  0.00    +0.085 A 
ATOM     16  C   UNL     1      16.618   7.027  20.570  0.00  0.00    +0.076 A 
ATOM     17  C   UNL     1      15.832   6.784  19.475  0.00  0.00    +0.167 A 
BRANCH  17  20
ATOM     20  C   UNL     1      14.527   7.205  19.057  0.00  0.00    +0.020 A 
ATOM     22  C   UNL     1      14.335   7.705  17.769  0.00  0.00    +0.015 A 
ATOM     23  C   UNL     1      13.448   7.116  19.937  0.00  0.00    +0.015 A 
ATOM     24  C   UNL     1      13.065   8.116  17.361  0.00  0.00    +0.046 A 
ATOM     25  C   UNL     1      12.179   7.526  19.531  0.00  0.00    +0.046 A 
ATOM     26  C   UNL     1      11.988   8.027  18.243  0.00  0.00    +0.120 A 
BRANCH  26   3
ATOM      3  O   UNL     1      10.748   8.426  17.845  0.00  0.00    -0.495 OA
ATOM     28  C   UNL     1      10.544   8.613  16.446  0.00  0.00    +0.277 C 
ENDBRANCH  26   3
ENDBRANCH  17  20
ENDBRANCH  12  14
ENDBRANCH   8  12
BRANCH   7  13
ATOM     13  C   UNL     1      21.872   6.143  22.171  0.00  0.00    +0.100 C 
BRANCH  13  15
ATOM      1  O   UNL     1      21.635   4.023  21.078  0.00  0.00    -0.276 OA
ATOM      5  N   UNL     1      23.672   4.445  22.104  0.00  0.00    -0.293 N 
ATOM     15  C   UNL     1      22.365   4.775  21.729  0.00  0.00    +0.216 C 
ATOM     19  C   UNL     1      24.516   5.350  22.874  0.00  0.00    +0.133 C 
BRANCH   5  18
ATOM     18  C   UNL     1      24.288   3.168  21.754  0.00  0.00    +0.196 C 
BRANCH  18  21
ATOM     21  C   UNL     1      24.815   3.192  20.390  0.00  0.00    -0.086 C 
ATOM     27  C   UNL     1      25.247   3.209  19.270  0.00  0.00    +0.005 C 
ENDBRANCH  18  21
ENDBRANCH   5  18
ENDBRANCH  13  15
ENDBRANCH   7  13
TORSDOF 8
ENDMDL
MODEL 2
REMARK VINA RESULT:      -6.1      1.438      1.962
REMARK  Name = 28960225
REMARK  10 active torsions:
REMARK  status: ('A' for Active; 'I' for Inactive)
REMARK    1  A    between atoms: O_3  and  C_26
REMARK    2  A    between atoms: O_3  and  C_28
REMARK    3  A    between atoms: N_5  and  C_18
REMARK    4  A    between atoms: N_5  and  C_19
REMARK    5  A    between atoms: C_7  and  C_13
REMARK    6  A    between atoms: C_8  and  C_12
REMARK    7  A    between atoms: C_12  and  C_14
REMARK    8  A    between atoms: C_13  and  C_15
REMARK    9  A    between atoms: C_17  and  C_20
REMARK   10  A    between atoms: C_18  and  C_21
REMARK                            x       y       z     vdW  Elec       q    Type
REMARK                         _______ _______ _______ _____ _____    ______ ____
ROOT
ATOM      4  N   UNL     1      20.956   8.937  23.004  0.00  0.00    -0.316 NA
ATOM      7  C   UNL     1      22.308   7.097  21.135  0.00  0.00    +0.004 C 
ATOM      8  C   UNL     1      20.776   7.095  21.349  0.00  0.00    +0.012 C 
ATOM      9  C   UNL     1      22.863   8.484  21.502  0.00  0.00    +0.019 C 
ATOM     10  C   UNL     1      20.396   7.609  22.748  0.00  0.00    +0.085 C 
ATOM     11  C   UNL     1      22.412   8.945  22.887  0.00  0.00    +0.081 C 
ATOM     29  H   UNL     1      20.691   9.240  23.941  0.00  0.00    +0.122 HD
ENDROOT
BRANCH   8  12
ATOM     12  C   UNL     1      20.136   5.730  21.087  0.00  0.00    +0.064 C 
BRANCH  12  14
ATOM      2  O   UNL     1      17.314   5.636  18.854  0.00  0.00    -0.354 OA
ATOM      6  N   UNL     1      18.625   5.324  19.193  0.00  0.00    -0.083 NA
ATOM     14  C   UNL     1      18.810   5.870  20.398  0.00  0.00    +0.085 A 
ATOM     16  C   UNL     1      17.663   6.534  20.866  0.00  0.00    +0.076 A 
ATOM     17  C   UNL     1      16.752   6.358  19.858  0.00  0.00    +0.167 A 
BRANCH  17  20
ATOM     20  C   UNL     1      15.390   6.756  19.649  0.00  0.00    +0.020 A 
ATOM     22  C   UNL     1      14.462   6.636  20.683  0.00  0.00    +0.015 A 
ATOM     23  C   UNL     1      14.993   7.264  18.411  0.00  0.00    +0.015 A 
ATOM     24  C   UNL     1      13.136   7.022  20.480  0.00  0.00    +0.046 A 
ATOM     25  C   UNL     1      13.669   7.650  18.207  0.00  0.00    +0.046 A 
ATOM     26  C   UNL     1      12.741   7.529  19.241  0.00  0.00    +0.120 A 
BRANCH  26   3
ATOM      3  O   UNL     1      11.448   7.908  19.043  0.00  0.00    -0.495 OA
ATOM     28  C   UNL     1      10.811   8.622  20.101  0.00  0.00    +0.277 C 
ENDBRANCH  26   3
ENDBRANCH  17  20
ENDBRANCH  12  14
ENDBRANCH   8  12
BRANCH   7  13
ATOM     13  C   UNL     1      23.047   5.994  21.902  0.00  0.00    +0.100 C 
BRANCH  13  15
ATOM      1  O   UNL     1      24.650   5.531  20.182  0.00  0.00    -0.276 OA
ATOM      5  N   UNL     1      23.559   3.707  21.108  0.00  0.00    -0.293 N 
ATOM     15  C   UNL     1      23.830   5.073  20.981  0.00  0.00    +0.216 C 
ATOM     19  C   UNL     1      22.584   3.188  22.060  0.00  0.00    +0.133 C 
BRANCH   5  18
ATOM     18  C   UNL     1      24.229   2.696  20.294  0.00  0.00    +0.196 C 
BRANCH  18  21
ATOM     21  C   UNL     1      24.703   1.585  21.119  0.00  0.00    -0.086 C 
ATOM     27  C   UNL     1      25.094   0.672  21.794  0.00  0.00    +0.005 C 
ENDBRANCH  18  21
ENDBRANCH   5  18
ENDBRANCH  13  15
ENDBRANCH   7  13
TORSDOF 8
ENDMDL
MODEL 3
REMARK VINA RESULT:      -5.9      2.388      4.829
REMARK  Name = 28960225
REMARK  10 active torsions:
REMARK  status: ('A' for Active; 'I' for Inactive)
REMARK    1  A    between atoms: O_3  and  C_26
REMARK    2  A    between atoms: O_3  and  C_28
REMARK    3  A    between atoms: N_5  and  C_18
REMARK    4  A    between atoms: N_5  and  C_19
REMARK    5  A    between atoms: C_7  and  C_13
REMARK    6  A    between atoms: C_8  and  C_12
REMARK    7  A    between atoms: C_12  and  C_14
REMARK    8  A    between atoms: C_13  and  C_15
REMARK    9  A    between atoms: C_17  and  C_20
REMARK   10  A    between atoms: C_18  and  C_21
REMARK                            x       y       z     vdW  Elec       q    Type
REMARK                         _______ _______ _______ _____ _____    ______ ____
ROOT
ATOM      4  N   UNL     1      24.323   2.596  19.920  0.00  0.00    -0.316 NA
ATOM      7  C   UNL     1      22.900   3.037  22.466  0.00  0.00    +0.004 C 
ATOM      8  C   UNL     1      22.609   3.864  21.192  0.00  0.00    +0.012 C 
ATOM      9  C   UNL     1      23.495   1.679  22.058  0.00  0.00    +0.019 C 
ATOM     10  C   UNL     1      23.835   3.932  20.266  0.00  0.00    +0.085 C 
ATOM     11  C   UNL     1      24.682   1.824  21.107  0.00  0.00    +0.081 C 
ATOM     29  H   UNL     1      25.139   2.681  19.314  0.00  0.00    +0.122 HD
ENDROOT
BRANCH   8  12
ATOM     12  C   UNL     1      22.088   5.269  21.496  0.00  0.00    +0.064 C 
BRANCH  12  14
ATOM      2  O   UNL     1      18.912   5.041  19.816  0.00  0.00    -0.354 OA
ATOM      6  N   UNL     1      20.164   4.542  20.150  0.00  0.00    -0.083 NA
ATOM     14  C   UNL     1      20.710   5.475  20.937  0.00  0.00    +0.085 A 
ATOM     16  C   UNL     1      19.857   6.574  21.132  0.00  0.00    +0.076 A 
ATOM     17  C   UNL     1      18.740   6.253  20.406  0.00  0.00    +0.167 A 
BRANCH  17  20
ATOM     20  C   UNL     1      17.485   6.896  20.149  0.00  0.00    +0.020 A 
ATOM     22  C   UNL     1      17.215   8.146  20.707  0.00  0.00    +0.015 A 
ATOM     23  C   UNL     1      16.533   6.272  19.343  0.00  0.00    +0.015 A 
ATOM     24  C   UNL     1      15.993   8.772  20.458  0.00  0.00    +0.046 A 
ATOM     25  C   UNL     1      15.311   6.897  19.094  0.00  0.00    +0.046 A 
ATOM     26  C   UNL     1      15.041   8.146  19.652  0.00  0.00    +0.120 A 
BRANCH  26   3
ATOM      3  O   UNL     1      13.849   8.757  19.407  0.00  0.00    -0.495 OA
ATOM     28  C   UNL     1      13.757   9.552  18.226  0.00  0.00    +0.277 C 
ENDBRANCH  26   3
ENDBRANCH  17  20
ENDBRANCH  12  14
ENDBRANCH   8  12
BRANCH   7  13
ATOM     13  C   UNL     1      23.808   3.747  23.478  0.00  0.00    +0.100 C 
BRANCH  13  15
ATOM      1  O   UNL     1      22.420   3.212  25.357  0.00  0.00    -0.276 OA
ATOM      5  N   UNL     1      23.237   5.380  25.248  0.00  0.00    -0.293 N 
ATOM     15  C   UNL     1      23.087   4.071  24.776  0.00  0.00    +0.216 C 
ATOM     19  C   UNL     1      24.032   6.379  24.544  0.00  0.00    +0.133 C 
BRANCH   5  18
ATOM     18  C   UNL     1      22.607   5.845  26.481  0.00  0.00    +0.196 C 
BRANCH  18  21
ATOM     21  C   UNL     1      21.379   6.587  26.198  0.00  0.00    -0.086 C 
ATOM     27  C   UNL     1      20.369   7.195  25.969  0.00  0.00    +0.005 C 
ENDBRANCH  18  21
ENDBRANCH   5  18
ENDBRANCH  13  15
ENDBRANCH   7  13
TORSDOF 8
ENDMDL
MODEL 4
REMARK VINA RESULT:      -5.9     28.124     30.831
REMARK  Name = 28960225
REMARK  10 active torsions:
REMARK  status: ('A' for Active; 'I' for Inactive)
REMARK    1  A    between atoms: O_3  and  C_26
REMARK    2  A    between atoms: O_3  and  C_28
REMARK    3  A    between atoms: N_5  and  C_18
REMARK    4  A    between atoms: N_5  and  C_19
REMARK    5  A    between atoms: C_7  and  C_13
REMARK    6  A    between atoms: C_8  and  C_12
REMARK    7  A    between atoms: C_12  and  C_14
REMARK    8  A    between atoms: C_13  and  C_15
REMARK    9  A    between atoms: C_17  and  C_20
REMARK   10  A    between atoms: C_18  and  C_21
REMARK                            x       y       z     vdW  Elec       q    Type
REMARK                         _______ _______ _______ _____ _____    ______ ____
ROOT
ATOM      4  N   UNL     1      -3.864 -13.752  12.042  0.00  0.00    -0.316 NA
ATOM      7  C   UNL     1      -3.189 -11.157  10.813  0.00  0.00    +0.004 C 
ATOM      8  C   UNL     1      -2.506 -11.675  12.100  0.00  0.00    +0.012 C 
ATOM      9  C   UNL     1      -3.722 -12.356  10.010  0.00  0.00    +0.019 C 
ATOM     10  C   UNL     1      -3.417 -12.638  12.879  0.00  0.00    +0.085 C 
ATOM     11  C   UNL     1      -4.585 -13.289  10.859  0.00  0.00    +0.081 C 
ATOM     29  H   UNL     1      -4.471 -14.364  12.588  0.00  0.00    +0.122 HD
ENDROOT
BRANCH   8  12
ATOM     12  C   UNL     1      -2.011 -10.550  13.011  0.00  0.00    +0.064 C 
BRANCH  12  14
ATOM      2  O   UNL     1      -2.680 -10.930  16.527  0.00  0.00    -0.354 OA
ATOM      6  N   UNL     1      -1.822 -10.898  15.436  0.00  0.00    -0.083 NA
ATOM     14  C   UNL     1      -2.609 -10.654  14.384  0.00  0.00    +0.085 A 
ATOM     16  C   UNL     1      -3.960 -10.523  14.747  0.00  0.00    +0.076 A 
ATOM     17  C   UNL     1      -3.952 -10.705  16.104  0.00  0.00    +0.167 A 
BRANCH  17  20
ATOM     20  C   UNL     1      -4.956 -10.708  17.127  0.00  0.00    +0.020 A 
ATOM     22  C   UNL     1      -4.697 -11.317  18.356  0.00  0.00    +0.015 A 
ATOM     23  C   UNL     1      -6.191 -10.104  16.895  0.00  0.00    +0.015 A 
ATOM     24  C   UNL     1      -5.675 -11.321  19.352  0.00  0.00    +0.046 A 
ATOM     25  C   UNL     1      -7.169 -10.108  17.890  0.00  0.00    +0.046 A 
ATOM     26  C   UNL     1      -6.910 -10.716  19.118  0.00  0.00    +0.120 A 
BRANCH  26   3
ATOM      3  O   UNL     1      -7.863 -10.718  20.091  0.00  0.00    -0.495 OA
ATOM     28  C   UNL     1      -9.181 -11.107  19.707  0.00  0.00    +0.277 C 
ENDBRANCH  26   3
ENDBRANCH  17  20
ENDBRANCH  12  14
ENDBRANCH   8  12
BRANCH   7  13
ATOM     13  C   UNL     1      -4.302 -10.133  11.066  0.00  0.00    +0.100 C 
BRANCH  13  15
ATOM      1  O   UNL     1      -3.962  -8.725   9.157  0.00  0.00    -0.276 OA
ATOM      5  N   UNL     1      -6.073  -9.650   9.407  0.00  0.00    -0.293 N 
ATOM     15  C   UNL     1      -4.746  -9.433   9.793  0.00  0.00    +0.216 C 
ATOM     19  C   UNL     1      -6.983 -10.492  10.175  0.00  0.00    +0.133 C 
BRANCH   5  18
ATOM     18  C   UNL     1      -6.649  -9.047   8.208  0.00  0.00    +0.196 C 
BRANCH  18  21
ATOM     21  C   UNL     1      -6.270  -9.794   7.008  0.00  0.00    -0.086 C 
ATOM     27  C   UNL     1      -5.959 -10.405   6.022  0.00  0.00    +0.005 C 
ENDBRANCH  18  21
ENDBRANCH   5  18
ENDBRANCH  13  15
ENDBRANCH   7  13
TORSDOF 8
ENDMDL
MODEL 5
REMARK VINA RESULT:      -5.9     28.730     30.651
REMARK  Name = 28960225
REMARK  10 active torsions:
REMARK  status: ('A' for Active; 'I' for Inactive)
REMARK    1  A    between atoms: O_3  and  C_26
REMARK    2  A    between atoms: O_3  and  C_28
REMARK    3  A    between atoms: N_5  and  C_18
REMARK    4  A    between atoms: N_5  and  C_19
REMARK    5  A    between atoms: C_7  and  C_13
REMARK    6  A    between atoms: C_8  and  C_12
REMARK    7  A    between atoms: C_12  and  C_14
REMARK    8  A    between atoms: C_13  and  C_15
REMARK    9  A    between atoms: C_17  and  C_20
REMARK   10  A    between atoms: C_18  and  C_21
REMARK                            x       y       z     vdW  Elec       q    Type
REMARK                         _______ _______ _______ _____ _____    ______ ____
ROOT
ATOM      4  N   UNL     1      -3.324 -14.264  14.841  0.00  0.00    -0.316 NA
ATOM      7  C   UNL     1      -4.608 -11.609  14.931  0.00  0.00    +0.004 C 
ATOM      8  C   UNL     1      -3.518 -11.976  13.897  0.00  0.00    +0.012 C 
ATOM      9  C   UNL     1      -5.302 -12.897  15.406  0.00  0.00    +0.019 C 
ATOM     10  C   UNL     1      -2.579 -13.074  14.425  0.00  0.00    +0.085 C 
ATOM     11  C   UNL     1      -4.306 -13.956  15.878  0.00  0.00    +0.081 C 
ATOM     29  H   UNL     1      -2.671 -14.965  15.192  0.00  0.00    +0.122 HD
ENDROOT
BRANCH   8  12
ATOM     12  C   UNL     1      -2.713 -10.766  13.421  0.00  0.00    +0.064 C 
BRANCH  12  14
ATOM      2  O   UNL     1      -3.046  -9.487  10.072  0.00  0.00    -0.354 OA
ATOM      6  N   UNL     1      -2.292  -9.834  11.186  0.00  0.00    -0.083 NA
ATOM     14  C   UNL     1      -3.179 -10.293  12.075  0.00  0.00    +0.085 A 
ATOM     16  C   UNL     1      -4.494 -10.259  11.582  0.00  0.00    +0.076 A 
ATOM     17  C   UNL     1      -4.357  -9.744  10.320  0.00  0.00    +0.167 A 
BRANCH  17  20
ATOM     20  C   UNL     1      -5.263  -9.435   9.253  0.00  0.00    +0.020 A 
ATOM     22  C   UNL     1      -5.103 -10.038   8.006  0.00  0.00    +0.015 A 
ATOM     23  C   UNL     1      -6.304  -8.530   9.461  0.00  0.00    +0.015 A 
ATOM     24  C   UNL     1      -5.984  -9.736   6.966  0.00  0.00    +0.046 A 
ATOM     25  C   UNL     1      -7.184  -8.227   8.424  0.00  0.00    +0.046 A 
ATOM     26  C   UNL     1      -7.024  -8.830   7.176  0.00  0.00    +0.120 A 
BRANCH  26   3
ATOM      3  O   UNL     1      -7.886  -8.537   6.163  0.00  0.00    -0.495 OA
ATOM     28  C   UNL     1      -8.619  -7.318   6.267  0.00  0.00    +0.277 C 
ENDBRANCH  26   3
ENDBRANCH  17  20
ENDBRANCH  12  14
ENDBRANCH   8  12
BRANCH   7  13
ATOM     13  C   UNL     1      -4.090 -10.797  16.124  0.00  0.00    +0.100 C 
BRANCH  13  15
ATOM      1  O   UNL     1      -6.110  -9.630  16.670  0.00  0.00    -0.276 OA
ATOM      5  N   UNL     1      -5.130 -10.869  18.368  0.00  0.00    -0.293 N 
ATOM     15  C   UNL     1      -5.205 -10.370  17.063  0.00  0.00    +0.216 C 
ATOM     19  C   UNL     1      -4.051 -11.744  18.809  0.00  0.00    +0.133 C 
BRANCH   5  18
ATOM     18  C   UNL     1      -6.126 -10.550  19.387  0.00  0.00    +0.196 C 
BRANCH  18  21
ATOM     21  C   UNL     1      -7.038 -11.674  19.604  0.00  0.00    -0.086 C 
ATOM     27  C   UNL     1      -7.784 -12.597  19.784  0.00  0.00    +0.005 C 
ENDBRANCH  18  21
ENDBRANCH   5  18
ENDBRANCH  13  15
ENDBRANCH   7  13
TORSDOF 8
ENDMDL
MODEL 6
REMARK VINA RESULT:      -5.7     27.761     30.555
REMARK  Name = 28960225
REMARK  10 active torsions:
REMARK  status: ('A' for Active; 'I' for Inactive)
REMARK    1  A    between atoms: O_3  and  C_26
REMARK    2  A    between atoms: O_3  and  C_28
REMARK    3  A    between atoms: N_5  and  C_18
REMARK    4  A    between atoms: N_5  and  C_19
REMARK    5  A    between atoms: C_7  and  C_13
REMARK    6  A    between atoms: C_8  and  C_12
REMARK    7  A    between atoms: C_12  and  C_14
REMARK    8  A    between atoms: C_13  and  C_15
REMARK    9  A    between atoms: C_17  and  C_20
REMARK   10  A    between atoms: C_18  and  C_21
REMARK                            x       y       z     vdW  Elec       q    Type
REMARK                         _______ _______ _______ _____ _____    ______ ____
ROOT
ATOM      4  N   UNL     1      -1.855  -8.871  10.704  0.00  0.00    -0.316 NA
ATOM      7  C   UNL     1      -3.718 -10.765  11.985  0.00  0.00    +0.004 C 
ATOM      8  C   UNL     1      -2.394 -10.319  12.646  0.00  0.00    +0.012 C 
ATOM      9  C   UNL     1      -4.169  -9.686  10.987  0.00  0.00    +0.019 C 
ATOM     10  C   UNL     1      -1.344  -9.909  11.599  0.00  0.00    +0.085 C 
ATOM     11  C   UNL     1      -3.063  -9.301  10.004  0.00  0.00    +0.081 C 
ATOM     29  H   UNL     1      -1.137  -8.631  10.020  0.00  0.00    +0.122 HD
ENDROOT
BRANCH   8  12
ATOM     12  C   UNL     1      -1.818 -11.366  13.601  0.00  0.00    +0.064 C 
BRANCH  12  14
ATOM      2  O   UNL     1      -2.811 -11.046  17.047  0.00  0.00    -0.354 OA
ATOM      6  N   UNL     1      -1.882 -10.936  16.020  0.00  0.00    -0.083 NA
ATOM     14  C   UNL     1      -2.527 -11.349  14.925  0.00  0.00    +0.085 A 
ATOM     16  C   UNL     1      -3.852 -11.729  15.196  0.00  0.00    +0.076 A 
ATOM     17  C   UNL     1      -3.981 -11.520  16.544  0.00  0.00    +0.167 A 
BRANCH  17  20
ATOM     20  C   UNL     1      -5.042 -11.688  17.493  0.00  0.00    +0.020 A 
ATOM     22  C   UNL     1      -5.958 -12.728  17.338  0.00  0.00    +0.015 A 
ATOM     23  C   UNL     1      -5.159 -10.811  18.572  0.00  0.00    +0.015 A 
ATOM     24  C   UNL     1      -6.992 -12.892  18.262  0.00  0.00    +0.046 A 
ATOM     25  C   UNL     1      -6.191 -10.973  19.495  0.00  0.00    +0.046 A 
ATOM     26  C   UNL     1      -7.108 -12.013  19.340  0.00  0.00    +0.120 A 
BRANCH  26   3
ATOM      3  O   UNL     1      -8.115 -12.173  20.243  0.00  0.00    -0.495 OA
ATOM     28  C   UNL     1      -8.739 -13.455  20.298  0.00  0.00    +0.277 C 
ENDBRANCH  26   3
ENDBRANCH  17  20
ENDBRANCH  12  14
ENDBRANCH   8  12
BRANCH   7  13
ATOM     13  C   UNL     1      -3.646 -12.138  11.306  0.00  0.00    +0.100 C 
BRANCH  13  15
ATOM      1  O   UNL     1      -5.744 -12.936  12.144  0.00  0.00    -0.276 OA
ATOM      5  N   UNL     1      -3.923 -14.353  12.374  0.00  0.00    -0.293 N 
ATOM     15  C   UNL     1      -4.544 -13.165  11.976  0.00  0.00    +0.216 C 
ATOM     19  C   UNL     1      -2.502 -14.602  12.165  0.00  0.00    +0.133 C 
BRANCH   5  18
ATOM     18  C   UNL     1      -4.652 -15.436  13.030  0.00  0.00    +0.196 C 
BRANCH  18  21
ATOM     21  C   UNL     1      -4.381 -15.458  14.468  0.00  0.00    -0.086 C 
ATOM     27  C   UNL     1      -4.155 -15.477  15.647  0.00  0.00    +0.005 C 
ENDBRANCH  18  21
ENDBRANCH   5  18
ENDBRANCH  13  15
ENDBRANCH   7  13
TORSDOF 8
ENDMDL
MODEL 7
REMARK VINA RESULT:      -5.7     16.126     21.218
REMARK  Name = 28960225
REMARK  10 active torsions:
REMARK  status: ('A' for Active; 'I' for Inactive)
REMARK    1  A    between atoms: O_3  and  C_26
REMARK    2  A    between atoms: O_3  and  C_28
REMARK    3  A    between atoms: N_5  and  C_18
REMARK    4  A    between atoms: N_5  and  C_19
REMARK    5  A    between atoms: C_7  and  C_13
REMARK    6  A    between atoms: C_8  and  C_12
REMARK    7  A    between atoms: C_12  and  C_14
REMARK    8  A    between atoms: C_13  and  C_15
REMARK    9  A    between atoms: C_17  and  C_20
REMARK   10  A    between atoms: C_18  and  C_21
REMARK                            x       y       z     vdW  Elec       q    Type
REMARK                         _______ _______ _______ _____ _____    ______ ____
ROOT
ATOM      4  N   UNL     1       8.233   8.741  -2.361  0.00  0.00    -0.316 NA
ATOM      7  C   UNL     1       9.323   6.152  -1.460  0.00  0.00    +0.004 C 
ATOM      8  C   UNL     1       9.372   7.429  -0.589  0.00  0.00    +0.012 C 
ATOM      9  C   UNL     1       8.164   6.275  -2.464  0.00  0.00    +0.019 C 
ATOM     10  C   UNL     1       9.376   8.705  -1.448  0.00  0.00    +0.085 C 
ATOM     11  C   UNL     1       8.211   7.584  -3.252  0.00  0.00    +0.081 C 
ATOM     29  H   UNL     1       8.274   9.595  -2.919  0.00  0.00    +0.122 HD
ENDROOT
BRANCH   8  12
ATOM     12  C   UNL     1      10.546   7.440   0.393  0.00  0.00    +0.064 C 
BRANCH  12  14
ATOM      2  O   UNL     1       8.855   7.218   3.563  0.00  0.00    -0.354 OA
ATOM      6  N   UNL     1       8.978   7.702   2.267  0.00  0.00    -0.083 NA
ATOM     14  C   UNL     1      10.093   7.138   1.792  0.00  0.00    +0.085 A 
ATOM     16  C   UNL     1      10.709   6.297   2.733  0.00  0.00    +0.076 A 
ATOM     17  C   UNL     1       9.892   6.382   3.830  0.00  0.00    +0.167 A 
BRANCH  17  20
ATOM     20  C   UNL     1       9.899   5.801   5.140  0.00  0.00    +0.020 A 
ATOM     22  C   UNL     1       9.839   4.415   5.288  0.00  0.00    +0.015 A 
ATOM     23  C   UNL     1       9.966   6.620   6.267  0.00  0.00    +0.015 A 
ATOM     24  C   UNL     1       9.846   3.849   6.564  0.00  0.00    +0.046 A 
ATOM     25  C   UNL     1       9.971   6.055   7.542  0.00  0.00    +0.046 A 
ATOM     26  C   UNL     1       9.912   4.669   7.690  0.00  0.00    +0.120 A 
BRANCH  26   3
ATOM      3  O   UNL     1       9.920   4.117   8.935  0.00  0.00    -0.495 OA
ATOM     28  C   UNL     1       9.063   4.706   9.912  0.00  0.00    +0.277 C 
ENDBRANCH  26   3
ENDBRANCH  17  20
ENDBRANCH  12  14
ENDBRANCH   8  12
BRANCH   7  13
ATOM     13  C   UNL     1      10.639   5.838  -2.182  0.00  0.00    +0.100 C 
BRANCH  13  15
ATOM      1  O   UNL     1      10.618   3.513  -1.603  0.00  0.00    -0.276 OA
ATOM      5  N   UNL     1      12.633   4.632  -1.353  0.00  0.00    -0.293 N 
ATOM     15  C   UNL     1      11.278   4.551  -1.689  0.00  0.00    +0.216 C 
ATOM     19  C   UNL     1      13.394   5.870  -1.463  0.00  0.00    +0.133 C 
BRANCH   5  18
ATOM     18  C   UNL     1      13.389   3.481  -0.863  0.00  0.00    +0.196 C 
BRANCH  18  21
ATOM     21  C   UNL     1      13.281   3.358   0.590  0.00  0.00    -0.086 C 
ATOM     27  C   UNL     1      13.190   3.260   1.784  0.00  0.00    +0.005 C 
ENDBRANCH  18  21
ENDBRANCH   5  18
ENDBRANCH  13  15
ENDBRANCH   7  13
TORSDOF 8
ENDMDL
MODEL 8
REMARK VINA RESULT:      -5.7     17.708     22.341
REMARK  Name = 28960225
REMARK  10 active torsions:
REMARK  status: ('A' for Active; 'I' for Inactive)
REMARK    1  A    between atoms: O_3  and  C_26
REMARK    2  A    between atoms: O_3  and  C_28
REMARK    3  A    between atoms: N_5  and  C_18
REMARK    4  A    between atoms: N_5  and  C_19
REMARK    5  A    between atoms: C_7  and  C_13
REMARK    6  A    between atoms: C_8  and  C_12
REMARK    7  A    between atoms: C_12  and  C_14
REMARK    8  A    between atoms: C_13  and  C_15
REMARK    9  A    between atoms: C_17  and  C_20
REMARK   10  A    between atoms: C_18  and  C_21
REMARK                            x       y       z     vdW  Elec       q    Type
REMARK                         _______ _______ _______ _____ _____    ______ ____
ROOT
ATOM      4  N   UNL     1      15.792   4.964  -1.339  0.00  0.00    -0.316 NA
ATOM      7  C   UNL     1      12.960   4.405  -1.944  0.00  0.00    +0.004 C 
ATOM      8  C   UNL     1      13.557   4.256  -0.525  0.00  0.00    +0.012 C 
ATOM      9  C   UNL     1      13.810   5.407  -2.743  0.00  0.00    +0.019 C 
ATOM     10  C   UNL     1      15.064   3.954  -0.570  0.00  0.00    +0.085 C 
ATOM     11  C   UNL     1      15.299   5.065  -2.710  0.00  0.00    +0.081 C 
ATOM     29  H   UNL     1      16.784   4.726  -1.354  0.00  0.00    +0.122 HD
ENDROOT
BRANCH   8  12
ATOM     12  C   UNL     1      12.826   3.216   0.327  0.00  0.00    +0.064 C 
BRANCH  12  14
ATOM      2  O   UNL     1       9.793   4.582   1.703  0.00  0.00    -0.354 OA
ATOM      6  N   UNL     1      10.514   3.963   0.689  0.00  0.00    -0.083 NA
ATOM     14  C   UNL     1      11.756   3.850   1.168  0.00  0.00    +0.085 A 
ATOM     16  C   UNL     1      11.879   4.375   2.465  0.00  0.00    +0.076 A 
ATOM     17  C   UNL     1      10.618   4.823   2.756  0.00  0.00    +0.167 A 
BRANCH  17  20
ATOM     20  C   UNL     1      10.010   5.463   3.886  0.00  0.00    +0.020 A 
ATOM     22  C   UNL     1       9.413   6.715   3.740  0.00  0.00    +0.015 A 
ATOM     23  C   UNL     1      10.017   4.835   5.131  0.00  0.00    +0.015 A 
ATOM     24  C   UNL     1       8.822   7.339   4.839  0.00  0.00    +0.046 A 
ATOM     25  C   UNL     1       9.427   5.458   6.230  0.00  0.00    +0.046 A 
ATOM     26  C   UNL     1       8.830   6.710   6.085  0.00  0.00    +0.120 A 
BRANCH  26   3
ATOM      3  O   UNL     1       8.252   7.317   7.158  0.00  0.00    -0.495 OA
ATOM     28  C   UNL     1       9.043   8.267   7.869  0.00  0.00    +0.277 C 
ENDBRANCH  26   3
ENDBRANCH  17  20
ENDBRANCH  12  14
ENDBRANCH   8  12
BRANCH   7  13
ATOM     13  C   UNL     1      12.820   3.080  -2.704  0.00  0.00    +0.100 C 
BRANCH  13  15
ATOM      1  O   UNL     1      10.544   2.424  -2.338  0.00  0.00    -0.276 OA
ATOM      5  N   UNL     1      11.118   3.039  -4.499  0.00  0.00    -0.293 N 
ATOM     15  C   UNL     1      11.391   2.814  -3.146  0.00  0.00    +0.216 C 
ATOM     19  C   UNL     1      12.135   3.500  -5.436  0.00  0.00    +0.133 C 
BRANCH   5  18
ATOM     18  C   UNL     1       9.792   2.829  -5.077  0.00  0.00    +0.196 C 
BRANCH  18  21
ATOM     21  C   UNL     1       9.106   4.101  -5.299  0.00  0.00    -0.086 C 
ATOM     27  C   UNL     1       8.545   5.147  -5.481  0.00  0.00    +0.005 C 
ENDBRANCH  18  21
ENDBRANCH   5  18
ENDBRANCH  13  15
ENDBRANCH   7  13
TORSDOF 8
ENDMDL
MODEL 9
REMARK VINA RESULT:      -5.7      2.545      4.649
REMARK  Name = 28960225
REMARK  10 active torsions:
REMARK  status: ('A' for Active; 'I' for Inactive)
REMARK    1  A    between atoms: O_3  and  C_26
REMARK    2  A    between atoms: O_3  and  C_28
REMARK    3  A    between atoms: N_5  and  C_18
REMARK    4  A    between atoms: N_5  and  C_19
REMARK    5  A    between atoms: C_7  and  C_13
REMARK    6  A    between atoms: C_8  and  C_12
REMARK    7  A    between atoms: C_12  and  C_14
REMARK    8  A    between atoms: C_13  and  C_15
REMARK    9  A    between atoms: C_17  and  C_20
REMARK   10  A    between atoms: C_18  and  C_21
REMARK                            x       y       z     vdW  Elec       q    Type
REMARK                         _______ _______ _______ _____ _____    ______ ____
ROOT
ATOM      4  N   UNL     1      22.118   3.921  23.154  0.00  0.00    -0.316 NA
ATOM      7  C   UNL     1      21.489   6.802  23.110  0.00  0.00    +0.004 C 
ATOM      8  C   UNL     1      20.798   5.782  22.176  0.00  0.00    +0.012 C 
ATOM      9  C   UNL     1      21.999   6.070  24.363  0.00  0.00    +0.019 C 
ATOM     10  C   UNL     1      21.693   4.560  21.908  0.00  0.00    +0.085 C 
ATOM     11  C   UNL     1      22.846   4.845  24.019  0.00  0.00    +0.081 C 
ATOM     29  H   UNL     1      22.714   3.122  22.937  0.00  0.00    +0.122 HD
ENDROOT
BRANCH   8  12
ATOM     12  C   UNL     1      20.325   6.400  20.859  0.00  0.00    +0.064 C 
BRANCH  12  14
ATOM      2  O   UNL     1      17.353   8.346  21.440  0.00  0.00    -0.354 OA
ATOM      6  N   UNL     1      18.730   8.166  21.469  0.00  0.00    -0.083 NA
ATOM     14  C   UNL     1      18.930   6.940  20.977  0.00  0.00    +0.085 A 
ATOM     16  C   UNL     1      17.728   6.304  20.624  0.00  0.00    +0.076 A 
ATOM     17  C   UNL     1      16.766   7.229  20.935  0.00  0.00    +0.167 A 
BRANCH  17  20
ATOM     20  C   UNL     1      15.336   7.267  20.843  0.00  0.00    +0.020 A 
ATOM     22  C   UNL     1      14.582   7.746  21.914  0.00  0.00    +0.015 A 
ATOM     23  C   UNL     1      14.699   6.825  19.684  0.00  0.00    +0.015 A 
ATOM     24  C   UNL     1      13.189   7.783  21.826  0.00  0.00    +0.046 A 
ATOM     25  C   UNL     1      13.308   6.861  19.595  0.00  0.00    +0.046 A 
ATOM     26  C   UNL     1      12.553   7.340  20.666  0.00  0.00    +0.120 A 
BRANCH  26   3
ATOM      3  O   UNL     1      11.195   7.377  20.579  0.00  0.00    -0.495 OA
ATOM     28  C   UNL     1      10.466   7.407  21.805  0.00  0.00    +0.277 C 
ENDBRANCH  26   3
ENDBRANCH  17  20
ENDBRANCH  12  14
ENDBRANCH   8  12
BRANCH   7  13
ATOM     13  C   UNL     1      22.621   7.593  22.443  0.00  0.00    +0.100 C 
BRANCH  13  15
ATOM      1  O   UNL     1      22.157   9.699  23.489  0.00  0.00    -0.276 OA
ATOM      5  N   UNL     1      22.360   9.704  21.179  0.00  0.00    -0.293 N 
ATOM     15  C   UNL     1      22.357   9.089  22.436  0.00  0.00    +0.216 C 
ATOM     19  C   UNL     1      22.599   8.963  19.946  0.00  0.00    +0.133 C 
BRANCH   5  18
ATOM     18  C   UNL     1      22.122  11.135  21.006  0.00  0.00    +0.196 C 
BRANCH  18  21
ATOM     21  C   UNL     1      20.748  11.393  20.576  0.00  0.00    -0.086 C 
ATOM     27  C   UNL     1      19.619  11.605  20.225  0.00  0.00    +0.005 C 
ENDBRANCH  18  21
ENDBRANCH   5  18
ENDBRANCH  13  15
ENDBRANCH   7  13
TORSDOF 8
ENDMDL
MODEL 10
REMARK VINA RESULT:      -5.6     28.331     30.700
REMARK  Name = 28960225
REMARK  10 active torsions:
REMARK  status: ('A' for Active; 'I' for Inactive)
REMARK    1  A    between atoms: O_3  and  C_26
REMARK    2  A    between atoms: O_3  and  C_28
REMARK    3  A    between atoms: N_5  and  C_18
REMARK    4  A    between atoms: N_5  and  C_19
REMARK    5  A    between atoms: C_7  and  C_13
REMARK    6  A    between atoms: C_8  and  C_12
REMARK    7  A    between atoms: C_12  and  C_14
REMARK    8  A    between atoms: C_13  and  C_15
REMARK    9  A    between atoms: C_17  and  C_20
REMARK   10  A    between atoms: C_18  and  C_21
REMARK                            x       y       z     vdW  Elec       q    Type
REMARK                         _______ _______ _______ _____ _____    ______ ____
ROOT
ATOM      4  N   UNL     1      -3.765 -14.069  14.166  0.00  0.00    -0.316 NA
ATOM      7  C   UNL     1      -2.510 -11.557  13.261  0.00  0.00    +0.004 C 
ATOM      8  C   UNL     1      -2.623 -11.945  14.754  0.00  0.00    +0.012 C 
ATOM      9  C   UNL     1      -2.547 -12.836  12.407  0.00  0.00    +0.019 C 
ATOM     10  C   UNL     1      -3.820 -12.875  15.012  0.00  0.00    +0.085 C 
ATOM     11  C   UNL     1      -3.740 -13.729  12.746  0.00  0.00    +0.081 C 
ATOM     29  H   UNL     1      -4.577 -14.656  14.358  0.00  0.00    +0.122 HD
ENDROOT
BRANCH   8  12
ATOM     12  C   UNL     1      -2.676 -10.732  15.685  0.00  0.00    +0.064 C 
BRANCH  12  14
ATOM      2  O   UNL     1      -5.259 -11.098  18.166  0.00  0.00    -0.354 OA
ATOM      6  N   UNL     1      -3.963 -11.288  17.703  0.00  0.00    -0.083 NA
ATOM     14  C   UNL     1      -3.940 -10.718  16.495  0.00  0.00    +0.085 A 
ATOM     16  C   UNL     1      -5.180 -10.157  16.145  0.00  0.00    +0.076 A 
ATOM     17  C   UNL     1      -5.975 -10.424  17.228  0.00  0.00    +0.167 A 
BRANCH  17  20
ATOM     20  C   UNL     1      -7.341 -10.153  17.568  0.00  0.00    +0.020 A 
ATOM     22  C   UNL     1      -8.012  -9.089  16.964  0.00  0.00    +0.015 A 
ATOM     23  C   UNL     1      -8.001 -10.952  18.502  0.00  0.00    +0.015 A 
ATOM     24  C   UNL     1      -9.342  -8.824  17.294  0.00  0.00    +0.046 A 
ATOM     25  C   UNL     1      -9.329 -10.688  18.833  0.00  0.00    +0.046 A 
ATOM     26  C   UNL     1     -10.000  -9.624  18.229  0.00  0.00    +0.120 A 
BRANCH  26   3
ATOM      3  O   UNL     1     -11.298  -9.367  18.550  0.00  0.00    -0.495 OA
ATOM     28  C   UNL     1     -11.825 -10.027  19.700  0.00  0.00    +0.277 C 
ENDBRANCH  26   3
ENDBRANCH  17  20
ENDBRANCH  12  14
ENDBRANCH   8  12
BRANCH   7  13
ATOM     13  C   UNL     1      -3.575 -10.558  12.793  0.00  0.00    +0.100 C 
BRANCH  13  15
ATOM      1  O   UNL     1      -2.050  -9.761  11.126  0.00  0.00    -0.276 OA
ATOM      5  N   UNL     1      -4.311  -9.548  10.657  0.00  0.00    -0.293 N 
ATOM     15  C   UNL     1      -3.226  -9.922  11.458  0.00  0.00    +0.216 C 
ATOM     19  C   UNL     1      -5.694  -9.749  11.071  0.00  0.00    +0.133 C 
BRANCH   5  18
ATOM     18  C   UNL     1      -4.139  -8.925   9.347  0.00  0.00    +0.196 C 
BRANCH  18  21
ATOM     21  C   UNL     1      -4.738  -9.742   8.292  0.00  0.00    -0.086 C 
ATOM     27  C   UNL     1      -5.228 -10.416   7.427  0.00  0.00    +0.005 C 
ENDBRANCH  18  21
ENDBRANCH   5  18
ENDBRANCH  13  15
ENDBRANCH   7  13
TORSDOF 8
ENDMDL
