REMARK  Name = 7144183
REMARK  5 active torsions:
REMARK  status: ('A' for Active; 'I' for Inactive)
REMARK    1  A    between atoms: O_6  and  C_30
REMARK    2  A    between atoms: O_6  and  C_35
REMARK    3  A    between atoms: C_17  and  C_22
REMARK    4  A    between atoms: C_19  and  C_23
REMARK    5  A    between atoms: C_33  and  C_34
REMARK                            x       y       z     vdW  Elec       q    Type
REMARK                         _______ _______ _______ _____ _____    ______ ____
ROOT
ATOM      4  O   UNL     1       4.012   2.263  -2.372  0.00  0.00    -0.268 OA
ATOM      5  O   UNL     1       4.312  -0.971   1.526  0.00  0.00    -0.270 OA
ATOM      7  N   UNL     1       2.408   0.334   1.900  0.00  0.00    -0.297 N 
ATOM      8  N   UNL     1       2.356   2.086  -0.726  0.00  0.00    -0.311 N 
ATOM     10  C   UNL     1       2.801   2.776   1.705  0.00  0.00    +0.027 C 
ATOM     11  C   UNL     1       0.615   1.843   1.071  0.00  0.00    +0.054 C 
ATOM     12  C   UNL     1       1.301   3.024   1.756  0.00  0.00    +0.018 C 
ATOM     13  C   UNL     1       3.159   1.469   2.432  0.00  0.00    +0.113 C 
ATOM     14  C   UNL     1       3.240   2.756   0.239  0.00  0.00    +0.130 C 
ATOM     15  C   UNL     1       0.954   0.540   1.827  0.00  0.00    +0.117 C 
ATOM     16  C   UNL     1       1.035   1.720  -0.396  0.00  0.00    +0.034 A 
ATOM     17  C   UNL     1       0.202   1.248  -1.360  0.00  0.00    +0.002 A 
ATOM     18  C   UNL     1       2.873   1.948  -2.026  0.00  0.00    +0.252 A 
ATOM     19  C   UNL     1       3.095  -0.802   1.464  0.00  0.00    +0.247 C 
ATOM     20  C   UNL     1       0.703   1.087  -2.712  0.00  0.00    +0.015 A 
ATOM     21  C   UNL     1       1.956   1.393  -3.047  0.00  0.00    +0.071 A 
ENDROOT
BRANCH  17  22
ATOM     22  C   UNL     1      -1.199   0.875  -1.065  0.00  0.00    -0.016 A 
ATOM     24  C   UNL     1      -1.498  -0.422  -0.661  0.00  0.00    +0.012 A 
ATOM     25  C   UNL     1      -2.208   1.825  -1.193  0.00  0.00    +0.012 A 
ATOM     28  C   UNL     1      -2.819  -0.773  -0.383  0.00  0.00    +0.046 A 
ATOM     29  C   UNL     1      -3.529   1.474  -0.915  0.00  0.00    +0.046 A 
ATOM     30  C   UNL     1      -3.834   0.175  -0.510  0.00  0.00    +0.130 A 
BRANCH  30   6
ATOM      6  O   UNL     1      -5.123  -0.168  -0.239  0.00  0.00    -0.406 OA
BRANCH   6  35
ATOM      1  F   UNL     1      -6.695  -0.301   1.375  0.00  0.00    -0.133 F 
ATOM      2  F   UNL     1      -4.944   0.952   1.746  0.00  0.00    -0.133 F 
ATOM      3  F   UNL     1      -6.487   1.588   0.297  0.00  0.00    -0.133 F 
ATOM     35  C   UNL     1      -5.805   0.534   0.794  0.00  0.00    +0.575 C 
ENDBRANCH   6  35
ENDBRANCH  30   6
ENDBRANCH  17  22
BRANCH  19  23
ATOM     23  C   UNL     1       2.321  -1.892   0.859  0.00  0.00    +0.037 A 
ATOM     26  C   UNL     1       2.097  -1.904  -0.516  0.00  0.00    +0.014 A 
ATOM     27  C   UNL     1       1.815  -2.911   1.662  0.00  0.00    +0.014 A 
ATOM     31  C   UNL     1       1.363  -2.941  -1.091  0.00  0.00    +0.019 A 
ATOM     32  C   UNL     1       1.081  -3.948   1.087  0.00  0.00    +0.019 A 
ATOM     33  C   UNL     1       0.854  -3.963  -0.289  0.00  0.00    +0.052 A 
BRANCH  33  34
ATOM      9  N   UNL     1      -0.513  -5.887  -1.357  0.00  0.00    -0.191 NA
ATOM     34  C   UNL     1       0.100  -5.024  -0.878  0.00  0.00    +0.099 C 
ENDBRANCH  33  34
ENDBRANCH  19  23
TORSDOF 5
