REMARK  Name = 75368415
REMARK  2 active torsions:
REMARK  status: ('A' for Active; 'I' for Inactive)
REMARK    1  A    between atoms: S_1  and  N_6
REMARK    2  A    between atoms: S_1  and  C_14
REMARK                            x       y       z     vdW  Elec       q    Type
REMARK                         _______ _______ _______ _____ _____    ______ ____
ROOT
ATOM      2  O   UNL     1       4.177  -1.461   1.270  0.00  0.00    -0.253 OA
ATOM      5  N   UNL     1       2.569   0.055   0.461  0.00  0.00    -0.279 N 
ATOM      6  N   UNL     1       0.083   1.297   0.166  0.00  0.00    -0.173 NA
ATOM      7  N   UNL     1       3.933  -0.960  -1.009  0.00  0.00    -0.297 N 
ATOM      8  C   UNL     1       2.247   0.662  -0.816  0.00  0.00    +0.110 C 
ATOM      9  C   UNL     1       0.738   0.676  -1.033  0.00  0.00    +0.133 C 
ATOM     10  C   UNL     1       1.889   0.502   1.661  0.00  0.00    +0.127 C 
ATOM     11  C   UNL     1       3.028  -0.180  -1.822  0.00  0.00    +0.129 C 
ATOM     12  C   UNL     1       0.382   0.534   1.424  0.00  0.00    +0.128 C 
ATOM     13  C   UNL     1       3.625  -0.858   0.360  0.00  0.00    +0.303 C 
ATOM     20  H   UNL     1       4.655  -1.568  -1.380  0.00  0.00    +0.150 HD
ENDROOT
BRANCH   6   1
ATOM      1  S   UNL     1      -1.560   1.738  -0.047  0.00  0.00    +0.061 S 
ATOM      3  O   UNL     1      -1.726   2.314  -1.364  0.00  0.00    -0.153 OA
ATOM      4  O   UNL     1      -2.015   2.436   1.136  0.00  0.00    -0.153 OA
BRANCH   1  14
ATOM     14  C   UNL     1      -2.308   0.139  -0.057  0.00  0.00    +0.105 A 
ATOM     15  C   UNL     1      -2.743  -0.434   1.137  0.00  0.00    +0.028 A 
ATOM     16  C   UNL     1      -2.460  -0.552  -1.259  0.00  0.00    +0.028 A 
ATOM     17  C   UNL     1      -3.331  -1.700   1.130  0.00  0.00    +0.002 A 
ATOM     18  C   UNL     1      -3.047  -1.817  -1.266  0.00  0.00    +0.002 A 
ATOM     19  C   UNL     1      -3.483  -2.391  -0.072  0.00  0.00    +0.000 A 
ENDBRANCH   1  14
ENDBRANCH   6   1
TORSDOF 2
