MODEL 1
REMARK VINA RESULT:      -5.4      0.000      0.000
REMARK  Name = 28960591
REMARK  10 active torsions:
REMARK  status: ('A' for Active; 'I' for Inactive)
REMARK    1  A    between atoms: O_3  and  C_11
REMARK    2  A    between atoms: N_5  and  C_9
REMARK    3  A    between atoms: N_5  and  C_15
REMARK    4  A    between atoms: N_5  and  C_17
REMARK    5  A    between atoms: N_6  and  C_10
REMARK    6  A    between atoms: N_7  and  C_16
REMARK    7  A    between atoms: N_8  and  C_23
REMARK    8  A    between atoms: N_8  and  C_25
REMARK    9  A    between atoms: N_8  and  C_26
REMARK   10  A    between atoms: C_15  and  C_23
REMARK                            x       y       z     vdW  Elec       q    Type
REMARK                         _______ _______ _______ _____ _____    ______ ____
ROOT
ATOM      1  O   UNL     1       9.855   8.073   5.444  0.00  0.00    -0.342 OA
ATOM      2  O   UNL     1       9.038   7.555   7.552  0.00  0.00    -0.347 OA
ATOM      9  C   UNL     1      11.423   7.828   7.260  0.00  0.00    +0.143 C 
ATOM     10  C   UNL     1      10.814   5.874   5.684  0.00  0.00    +0.136 C 
ATOM     11  C   UNL     1      11.579   6.322   6.949  0.00  0.00    +0.159 C 
ATOM     12  C   UNL     1       9.523   6.681   5.436  0.00  0.00    +0.170 C 
ATOM     13  C   UNL     1      10.026   8.324   6.846  0.00  0.00    +0.270 C 
ATOM     14  C   UNL     1       8.530   6.629   6.581  0.00  0.00    +0.196 C 
ENDROOT
BRANCH  10   6
ATOM      4  O   UNL     1      10.730   4.194   3.353  0.00  0.00    -0.253 OA
ATOM      6  N   UNL     1      11.675   5.959   4.524  0.00  0.00    -0.291 N 
ATOM      7  N   UNL     1      12.506   5.394   2.460  0.00  0.00    -0.297 N 
ATOM     18  C   UNL     1      11.560   5.098   3.438  0.00  0.00    +0.300 C 
ATOM     27  H   UNL     1      12.442   6.624   4.538  0.00  0.00    +0.151 HD
ATOM     29  H   UNL     1      13.190   6.116   2.664  0.00  0.00    +0.151 HD
BRANCH   7  16
ATOM     16  C   UNL     1      12.617   4.660   1.219  0.00  0.00    +0.074 C 
ATOM     19  C   UNL     1      13.231   5.531   0.117  0.00  0.00    +0.022 C 
ATOM     20  C   UNL     1      13.416   3.367   1.414  0.00  0.00    +0.022 C 
ATOM     21  C   UNL     1      14.722   5.788   0.337  0.00  0.00    +0.002 C 
ATOM     22  C   UNL     1      14.907   3.628   1.630  0.00  0.00    +0.002 C 
ATOM     24  C   UNL     1      15.497   4.486   0.517  0.00  0.00    +0.000 C 
ENDBRANCH   7  16
ENDBRANCH  10   6
BRANCH  11   3
ATOM      3  O   UNL     1      11.078   5.589   8.074  0.00  0.00    -0.388 OA
ATOM     28  H   UNL     1      10.162   5.332   7.873  0.00  0.00    +0.210 HD
ENDBRANCH  11   3
BRANCH   9   5
ATOM      5  N   UNL     1      12.451   8.597   6.555  0.00  0.00    -0.295 NA
ATOM     17  C   UNL     1      12.526   9.956   7.089  0.00  0.00    +0.105 C 
BRANCH   5  15
ATOM     15  C   UNL     1      13.749   7.932   6.663  0.00  0.00    +0.100 C 
BRANCH  15  23
ATOM     23  C   UNL     1      14.663   8.375   5.526  0.00  0.00    +0.099 C 
BRANCH  23   8
ATOM      8  N   UNL     1      14.302   7.684   4.293  0.00  0.00    -0.307 NA
ATOM     25  C   UNL     1      15.429   6.890   3.800  0.00  0.00    +0.104 C 
ATOM     26  C   UNL     1      13.871   8.641   3.273  0.00  0.00    +0.104 C 
ENDBRANCH  23   8
ENDBRANCH  15  23
ENDBRANCH   5  15
ENDBRANCH   9   5
TORSDOF 7
ENDMDL
MODEL 2
REMARK VINA RESULT:      -4.9     25.405     28.069
REMARK  Name = 28960591
REMARK  10 active torsions:
REMARK  status: ('A' for Active; 'I' for Inactive)
REMARK    1  A    between atoms: O_3  and  C_11
REMARK    2  A    between atoms: N_5  and  C_9
REMARK    3  A    between atoms: N_5  and  C_15
REMARK    4  A    between atoms: N_5  and  C_17
REMARK    5  A    between atoms: N_6  and  C_10
REMARK    6  A    between atoms: N_7  and  C_16
REMARK    7  A    between atoms: N_8  and  C_23
REMARK    8  A    between atoms: N_8  and  C_25
REMARK    9  A    between atoms: N_8  and  C_26
REMARK   10  A    between atoms: C_15  and  C_23
REMARK                            x       y       z     vdW  Elec       q    Type
REMARK                         _______ _______ _______ _____ _____    ______ ____
ROOT
ATOM      1  O   UNL     1      -6.362 -12.818  18.560  0.00  0.00    -0.342 OA
ATOM      2  O   UNL     1      -7.383 -11.385  20.071  0.00  0.00    -0.347 OA
ATOM      9  C   UNL     1      -8.178 -11.432  17.787  0.00  0.00    +0.143 C 
ATOM     10  C   UNL     1      -5.704 -10.716  17.580  0.00  0.00    +0.136 C 
ATOM     11  C   UNL     1      -7.183 -10.314  17.396  0.00  0.00    +0.159 C 
ATOM     12  C   UNL     1      -5.482 -11.705  18.743  0.00  0.00    +0.170 C 
ATOM     13  C   UNL     1      -7.623 -12.263  18.958  0.00  0.00    +0.270 C 
ATOM     14  C   UNL     1      -5.960 -11.196  20.089  0.00  0.00    +0.196 C 
ENDROOT
BRANCH  10   6
ATOM      4  O   UNL     1      -3.074 -10.326  16.487  0.00  0.00    -0.253 OA
ATOM      6  N   UNL     1      -5.183 -11.280  16.353  0.00  0.00    -0.291 N 
ATOM      7  N   UNL     1      -3.645 -11.692  14.700  0.00  0.00    -0.297 N 
ATOM     18  C   UNL     1      -3.892 -11.033  15.901  0.00  0.00    +0.300 C 
ATOM     27  H   UNL     1      -5.812 -11.813  15.760  0.00  0.00    +0.151 HD
ATOM     29  H   UNL     1      -4.415 -12.192  14.265  0.00  0.00    +0.151 HD
BRANCH   7  16
ATOM     16  C   UNL     1      -2.382 -11.616  14.000  0.00  0.00    +0.074 C 
ATOM     19  C   UNL     1      -2.178 -12.838  13.097  0.00  0.00    +0.022 C 
ATOM     20  C   UNL     1      -2.272 -10.313  13.202  0.00  0.00    +0.022 C 
ATOM     21  C   UNL     1      -3.092 -12.819  11.871  0.00  0.00    +0.002 C 
ATOM     22  C   UNL     1      -3.185 -10.298  11.976  0.00  0.00    +0.002 C 
ATOM     24  C   UNL     1      -2.956 -11.517  11.089  0.00  0.00    +0.000 C 
ENDBRANCH   7  16
ENDBRANCH  10   6
BRANCH  11   3
ATOM      3  O   UNL     1      -7.458  -9.177  18.223  0.00  0.00    -0.388 OA
ATOM     28  H   UNL     1      -7.997  -8.557  17.702  0.00  0.00    +0.210 HD
ENDBRANCH  11   3
BRANCH   9   5
ATOM      5  N   UNL     1      -8.433 -12.303  16.638  0.00  0.00    -0.295 NA
ATOM     17  C   UNL     1      -9.578 -13.172  16.903  0.00  0.00    +0.105 C 
BRANCH   5  15
ATOM     15  C   UNL     1      -8.664 -11.504  15.435  0.00  0.00    +0.100 C 
BRANCH  15  23
ATOM     23  C   UNL     1      -8.033 -12.185  14.224  0.00  0.00    +0.099 C 
BRANCH  23   8
ATOM      8  N   UNL     1      -6.909 -11.396  13.733  0.00  0.00    -0.307 NA
ATOM     25  C   UNL     1      -7.244  -9.971  13.730  0.00  0.00    +0.104 C 
ATOM     26  C   UNL     1      -6.523 -11.830  12.389  0.00  0.00    +0.104 C 
ENDBRANCH  23   8
ENDBRANCH  15  23
ENDBRANCH   5  15
ENDBRANCH   9   5
TORSDOF 7
ENDMDL
MODEL 3
REMARK VINA RESULT:      -4.9     23.879     26.071
REMARK  Name = 28960591
REMARK  10 active torsions:
REMARK  status: ('A' for Active; 'I' for Inactive)
REMARK    1  A    between atoms: O_3  and  C_11
REMARK    2  A    between atoms: N_5  and  C_9
REMARK    3  A    between atoms: N_5  and  C_15
REMARK    4  A    between atoms: N_5  and  C_17
REMARK    5  A    between atoms: N_6  and  C_10
REMARK    6  A    between atoms: N_7  and  C_16
REMARK    7  A    between atoms: N_8  and  C_23
REMARK    8  A    between atoms: N_8  and  C_25
REMARK    9  A    between atoms: N_8  and  C_26
REMARK   10  A    between atoms: C_15  and  C_23
REMARK                            x       y       z     vdW  Elec       q    Type
REMARK                         _______ _______ _______ _____ _____    ______ ____
ROOT
ATOM      1  O   UNL     1      -4.702  -9.975  16.197  0.00  0.00    -0.342 OA
ATOM      2  O   UNL     1      -4.261 -11.690  17.695  0.00  0.00    -0.347 OA
ATOM      9  C   UNL     1      -2.948 -11.544  15.669  0.00  0.00    +0.143 C 
ATOM     10  C   UNL     1      -5.373 -11.843  14.830  0.00  0.00    +0.136 C 
ATOM     11  C   UNL     1      -3.956 -12.450  14.925  0.00  0.00    +0.159 C 
ATOM     12  C   UNL     1      -5.735 -10.950  16.034  0.00  0.00    +0.170 C 
ATOM     13  C   UNL     1      -3.653 -10.755  16.788  0.00  0.00    +0.270 C 
ATOM     14  C   UNL     1      -5.660 -11.657  17.375  0.00  0.00    +0.196 C 
ENDROOT
BRANCH  10   6
ATOM      4  O   UNL     1      -7.562 -11.968  12.970  0.00  0.00    -0.253 OA
ATOM      6  N   UNL     1      -5.511 -11.088  13.603  0.00  0.00    -0.291 N 
ATOM      7  N   UNL     1      -6.495 -10.381  11.653  0.00  0.00    -0.297 N 
ATOM     18  C   UNL     1      -6.611 -11.216  12.761  0.00  0.00    +0.300 C 
ATOM     27  H   UNL     1      -4.738 -10.500  13.307  0.00  0.00    +0.151 HD
ATOM     29  H   UNL     1      -5.634  -9.854  11.543  0.00  0.00    +0.151 HD
BRANCH   7  16
ATOM     16  C   UNL     1      -7.495 -10.306  10.611  0.00  0.00    +0.074 C 
ATOM     19  C   UNL     1      -7.636  -8.873  10.086  0.00  0.00    +0.022 C 
ATOM     20  C   UNL     1      -7.182 -11.285   9.475  0.00  0.00    +0.022 C 
ATOM     21  C   UNL     1      -6.434  -8.436   9.247  0.00  0.00    +0.002 C 
ATOM     22  C   UNL     1      -5.981 -10.844   8.637  0.00  0.00    +0.002 C 
ATOM     24  C   UNL     1      -6.149  -9.421   8.117  0.00  0.00    +0.000 C 
ENDBRANCH   7  16
ENDBRANCH  10   6
BRANCH  11   3
ATOM      3  O   UNL     1      -4.034 -13.692  15.636  0.00  0.00    -0.388 OA
ATOM     28  H   UNL     1      -4.666 -13.574  16.366  0.00  0.00    +0.210 HD
ENDBRANCH  11   3
BRANCH   9   5
ATOM      5  N   UNL     1      -2.318 -10.614  14.729  0.00  0.00    -0.295 NA
ATOM     17  C   UNL     1      -1.145  -9.991  15.338  0.00  0.00    +0.105 C 
BRANCH   5  15
ATOM     15  C   UNL     1      -1.947 -11.309  13.497  0.00  0.00    +0.100 C 
BRANCH  15  23
ATOM     23  C   UNL     1      -1.903 -10.326  12.332  0.00  0.00    +0.099 C 
BRANCH  23   8
ATOM      8  N   UNL     1      -3.108 -10.453  11.521  0.00  0.00    -0.307 NA
ATOM     25  C   UNL     1      -3.230 -11.812  10.991  0.00  0.00    +0.104 C 
ATOM     26  C   UNL     1      -3.098  -9.480  10.427  0.00  0.00    +0.104 C 
ENDBRANCH  23   8
ENDBRANCH  15  23
ENDBRANCH   5  15
ENDBRANCH   9   5
TORSDOF 7
ENDMDL
MODEL 4
REMARK VINA RESULT:      -4.8      2.780      7.149
REMARK  Name = 28960591
REMARK  10 active torsions:
REMARK  status: ('A' for Active; 'I' for Inactive)
REMARK    1  A    between atoms: O_3  and  C_11
REMARK    2  A    between atoms: N_5  and  C_9
REMARK    3  A    between atoms: N_5  and  C_15
REMARK    4  A    between atoms: N_5  and  C_17
REMARK    5  A    between atoms: N_6  and  C_10
REMARK    6  A    between atoms: N_7  and  C_16
REMARK    7  A    between atoms: N_8  and  C_23
REMARK    8  A    between atoms: N_8  and  C_25
REMARK    9  A    between atoms: N_8  and  C_26
REMARK   10  A    between atoms: C_15  and  C_23
REMARK                            x       y       z     vdW  Elec       q    Type
REMARK                         _______ _______ _______ _____ _____    ______ ____
ROOT
ATOM      1  O   UNL     1      14.198   6.228  -0.184  0.00  0.00    -0.342 OA
ATOM      2  O   UNL     1      15.761   4.675  -0.908  0.00  0.00    -0.347 OA
ATOM      9  C   UNL     1      13.806   3.895   0.284  0.00  0.00    +0.143 C 
ATOM     10  C   UNL     1      14.985   5.464   1.963  0.00  0.00    +0.136 C 
ATOM     11  C   UNL     1      14.552   4.020   1.632  0.00  0.00    +0.159 C 
ATOM     12  C   UNL     1      15.311   6.304   0.711  0.00  0.00    +0.170 C 
ATOM     13  C   UNL     1      14.354   4.912  -0.734  0.00  0.00    +0.270 C 
ATOM     14  C   UNL     1      16.405   5.717  -0.161  0.00  0.00    +0.196 C 
ENDROOT
BRANCH  10   6
ATOM      4  O   UNL     1      15.388   7.180   4.235  0.00  0.00    -0.253 OA
ATOM      6  N   UNL     1      13.960   6.126   2.742  0.00  0.00    -0.291 N 
ATOM      7  N   UNL     1      13.089   7.452   4.401  0.00  0.00    -0.297 N 
ATOM     18  C   UNL     1      14.251   6.941   3.830  0.00  0.00    +0.300 C 
ATOM     27  H   UNL     1      12.986   5.926   2.531  0.00  0.00    +0.151 HD
ATOM     29  H   UNL     1      12.198   7.133   4.032  0.00  0.00    +0.151 HD
BRANCH   7  16
ATOM     16  C   UNL     1      13.091   8.332   5.548  0.00  0.00    +0.074 C 
ATOM     19  C   UNL     1      11.816   9.180   5.594  0.00  0.00    +0.022 C 
ATOM     20  C   UNL     1      13.278   7.541   6.848  0.00  0.00    +0.022 C 
ATOM     21  C   UNL     1      10.580   8.361   5.968  0.00  0.00    +0.002 C 
ATOM     22  C   UNL     1      12.040   6.725   7.220  0.00  0.00    +0.002 C 
ATOM     24  C   UNL     1      10.787   7.593   7.270  0.00  0.00    +0.000 C 
ENDBRANCH   7  16
ENDBRANCH  10   6
BRANCH  11   3
ATOM      3  O   UNL     1      15.721   3.194   1.562  0.00  0.00    -0.388 OA
ATOM     28  H   UNL     1      15.855   2.953   0.629  0.00  0.00    +0.210 HD
ENDBRANCH  11   3
BRANCH   9   5
ATOM      5  N   UNL     1      12.371   4.114   0.480  0.00  0.00    -0.295 NA
ATOM     17  C   UNL     1      11.621   3.647  -0.684  0.00  0.00    +0.105 C 
BRANCH   5  15
ATOM     15  C   UNL     1      11.913   3.434   1.691  0.00  0.00    +0.100 C 
BRANCH  15  23
ATOM     23  C   UNL     1      10.618   4.066   2.190  0.00  0.00    +0.099 C 
BRANCH  23   8
ATOM      8  N   UNL     1      10.914   5.210   3.044  0.00  0.00    -0.307 NA
ATOM     25  C   UNL     1      10.497   4.945   4.422  0.00  0.00    +0.104 C 
ATOM     26  C   UNL     1      10.255   6.415   2.537  0.00  0.00    +0.104 C 
ENDBRANCH  23   8
ENDBRANCH  15  23
ENDBRANCH   5  15
ENDBRANCH   9   5
TORSDOF 7
ENDMDL
MODEL 5
REMARK VINA RESULT:      -4.8     12.784     15.539
REMARK  Name = 28960591
REMARK  10 active torsions:
REMARK  status: ('A' for Active; 'I' for Inactive)
REMARK    1  A    between atoms: O_3  and  C_11
REMARK    2  A    between atoms: N_5  and  C_9
REMARK    3  A    between atoms: N_5  and  C_15
REMARK    4  A    between atoms: N_5  and  C_17
REMARK    5  A    between atoms: N_6  and  C_10
REMARK    6  A    between atoms: N_7  and  C_16
REMARK    7  A    between atoms: N_8  and  C_23
REMARK    8  A    between atoms: N_8  and  C_25
REMARK    9  A    between atoms: N_8  and  C_26
REMARK   10  A    between atoms: C_15  and  C_23
REMARK                            x       y       z     vdW  Elec       q    Type
REMARK                         _______ _______ _______ _____ _____    ______ ____
ROOT
ATOM      1  O   UNL     1      12.063   9.688  20.881  0.00  0.00    -0.342 OA
ATOM      2  O   UNL     1      11.538   7.757  22.052  0.00  0.00    -0.347 OA
ATOM      9  C   UNL     1      13.861   8.395  21.835  0.00  0.00    +0.143 C 
ATOM     10  C   UNL     1      13.064   8.072  19.399  0.00  0.00    +0.136 C 
ATOM     11  C   UNL     1      13.987   7.573  20.532  0.00  0.00    +0.159 C 
ATOM     12  C   UNL     1      11.745   8.684  19.913  0.00  0.00    +0.170 C 
ATOM     13  C   UNL     1      12.416   8.894  22.022  0.00  0.00    +0.270 C 
ATOM     14  C   UNL     1      10.913   7.740  20.760  0.00  0.00    +0.196 C 
ENDROOT
BRANCH  10   6
ATOM      4  O   UNL     1      12.798   8.422  16.558  0.00  0.00    -0.253 OA
ATOM      6  N   UNL     1      13.762   9.036  18.576  0.00  0.00    -0.291 N 
ATOM      7  N   UNL     1      14.359  10.137  16.652  0.00  0.00    -0.297 N 
ATOM     18  C   UNL     1      13.568   9.132  17.202  0.00  0.00    +0.300 C 
ATOM     27  H   UNL     1      14.478   9.614  19.007  0.00  0.00    +0.151 HD
ATOM     29  H   UNL     1      15.014  10.615  17.264  0.00  0.00    +0.151 HD
BRANCH   7  16
ATOM     16  C   UNL     1      14.361  10.461  15.243  0.00  0.00    +0.074 C 
ATOM     19  C   UNL     1      13.565  11.742  14.970  0.00  0.00    +0.022 C 
ATOM     20  C   UNL     1      15.792  10.572  14.705  0.00  0.00    +0.022 C 
ATOM     21  C   UNL     1      14.285  12.995  15.468  0.00  0.00    +0.002 C 
ATOM     22  C   UNL     1      16.508  11.828  15.203  0.00  0.00    +0.002 C 
ATOM     24  C   UNL     1      15.702  13.089  14.911  0.00  0.00    +0.000 C 
ENDBRANCH   7  16
ENDBRANCH  10   6
BRANCH  11   3
ATOM      3  O   UNL     1      13.646   6.215  20.838  0.00  0.00    -0.388 OA
ATOM     28  H   UNL     1      12.938   6.232  21.504  0.00  0.00    +0.210 HD
ENDBRANCH  11   3
BRANCH   9   5
ATOM      5  N   UNL     1      14.778   9.536  21.802  0.00  0.00    -0.295 NA
ATOM     17  C   UNL     1      14.660  10.321  23.029  0.00  0.00    +0.105 C 
BRANCH   5  15
ATOM     15  C   UNL     1      16.155   9.077  21.618  0.00  0.00    +0.100 C 
BRANCH  15  23
ATOM     23  C   UNL     1      16.895  10.004  20.660  0.00  0.00    +0.099 C 
BRANCH  23   8
ATOM      8  N   UNL     1      18.255  10.233  21.132  0.00  0.00    -0.307 NA
ATOM     25  C   UNL     1      18.906   8.963  21.461  0.00  0.00    +0.104 C 
ATOM     26  C   UNL     1      18.255  11.120  22.296  0.00  0.00    +0.104 C 
ENDBRANCH  23   8
ENDBRANCH  15  23
ENDBRANCH   5  15
ENDBRANCH   9   5
TORSDOF 7
ENDMDL
MODEL 6
REMARK VINA RESULT:      -4.8     25.429     28.874
REMARK  Name = 28960591
REMARK  10 active torsions:
REMARK  status: ('A' for Active; 'I' for Inactive)
REMARK    1  A    between atoms: O_3  and  C_11
REMARK    2  A    between atoms: N_5  and  C_9
REMARK    3  A    between atoms: N_5  and  C_15
REMARK    4  A    between atoms: N_5  and  C_17
REMARK    5  A    between atoms: N_6  and  C_10
REMARK    6  A    between atoms: N_7  and  C_16
REMARK    7  A    between atoms: N_8  and  C_23
REMARK    8  A    between atoms: N_8  and  C_25
REMARK    9  A    between atoms: N_8  and  C_26
REMARK   10  A    between atoms: C_15  and  C_23
REMARK                            x       y       z     vdW  Elec       q    Type
REMARK                         _______ _______ _______ _____ _____    ______ ____
ROOT
ATOM      1  O   UNL     1     -13.867   6.898  13.986  0.00  0.00    -0.342 OA
ATOM      2  O   UNL     1     -14.436   8.471  12.378  0.00  0.00    -0.347 OA
ATOM      9  C   UNL     1     -12.511   8.883  13.784  0.00  0.00    +0.143 C 
ATOM     10  C   UNL     1     -14.483   8.716  15.446  0.00  0.00    +0.136 C 
ATOM     11  C   UNL     1     -13.397   9.616  14.817  0.00  0.00    +0.159 C 
ATOM     12  C   UNL     1     -14.995   7.621  14.487  0.00  0.00    +0.170 C 
ATOM     13  C   UNL     1     -13.330   7.821  13.027  0.00  0.00    +0.270 C 
ATOM     14  C   UNL     1     -15.576   8.155  13.191  0.00  0.00    +0.196 C 
ENDROOT
BRANCH  10   6
ATOM      4  O   UNL     1     -14.778   9.723  18.122  0.00  0.00    -0.253 OA
ATOM      6  N   UNL     1     -13.984   8.106  16.660  0.00  0.00    -0.291 N 
ATOM      7  N   UNL     1     -13.598   7.887  18.912  0.00  0.00    -0.297 N 
ATOM     18  C   UNL     1     -14.176   8.670  17.917  0.00  0.00    +0.300 C 
ATOM     27  H   UNL     1     -13.405   7.275  16.583  0.00  0.00    +0.151 HD
ATOM     29  H   UNL     1     -13.061   7.074  18.625  0.00  0.00    +0.151 HD
BRANCH   7  16
ATOM     16  C   UNL     1     -13.643   8.230  20.316  0.00  0.00    +0.074 C 
ATOM     19  C   UNL     1     -14.874   7.617  20.993  0.00  0.00    +0.022 C 
ATOM     20  C   UNL     1     -12.352   7.812  21.028  0.00  0.00    +0.022 C 
ATOM     21  C   UNL     1     -14.757   6.102  21.158  0.00  0.00    +0.002 C 
ATOM     22  C   UNL     1     -12.240   6.296  21.193  0.00  0.00    +0.002 C 
ATOM     24  C   UNL     1     -13.470   5.711  21.878  0.00  0.00    +0.000 C 
ENDBRANCH   7  16
ENDBRANCH  10   6
BRANCH  11   3
ATOM      3  O   UNL     1     -14.037  10.709  14.147  0.00  0.00    -0.388 OA
ATOM     28  H   UNL     1     -13.382  11.422  14.055  0.00  0.00    +0.210 HD
ENDBRANCH  11   3
BRANCH   9   5
ATOM      5  N   UNL     1     -11.375   8.248  14.455  0.00  0.00    -0.295 NA
ATOM     17  C   UNL     1     -10.442   7.704  13.470  0.00  0.00    +0.105 C 
BRANCH   5  15
ATOM     15  C   UNL     1     -10.699   9.206  15.328  0.00  0.00    +0.100 C 
BRANCH  15  23
ATOM     23  C   UNL     1     -10.437   8.578  16.693  0.00  0.00    +0.099 C 
BRANCH  23   8
ATOM      8  N   UNL     1     -10.953   9.441  17.750  0.00  0.00    -0.307 NA
ATOM     25  C   UNL     1     -11.169  10.799  17.246  0.00  0.00    +0.104 C 
ATOM     26  C   UNL     1     -10.036   9.463  18.891  0.00  0.00    +0.104 C 
ENDBRANCH  23   8
ENDBRANCH  15  23
ENDBRANCH   5  15
ENDBRANCH   9   5
TORSDOF 7
ENDMDL
MODEL 7
REMARK VINA RESULT:      -4.7     29.414     33.263
REMARK  Name = 28960591
REMARK  10 active torsions:
REMARK  status: ('A' for Active; 'I' for Inactive)
REMARK    1  A    between atoms: O_3  and  C_11
REMARK    2  A    between atoms: N_5  and  C_9
REMARK    3  A    between atoms: N_5  and  C_15
REMARK    4  A    between atoms: N_5  and  C_17
REMARK    5  A    between atoms: N_6  and  C_10
REMARK    6  A    between atoms: N_7  and  C_16
REMARK    7  A    between atoms: N_8  and  C_23
REMARK    8  A    between atoms: N_8  and  C_25
REMARK    9  A    between atoms: N_8  and  C_26
REMARK   10  A    between atoms: C_15  and  C_23
REMARK                            x       y       z     vdW  Elec       q    Type
REMARK                         _______ _______ _______ _____ _____    ______ ____
ROOT
ATOM      1  O   UNL     1     -16.029   2.828  23.030  0.00  0.00    -0.342 OA
ATOM      2  O   UNL     1     -17.678   2.720  24.657  0.00  0.00    -0.347 OA
ATOM      9  C   UNL     1     -18.210   3.722  22.521  0.00  0.00    +0.143 C 
ATOM     10  C   UNL     1     -16.295   5.188  23.447  0.00  0.00    +0.136 C 
ATOM     11  C   UNL     1     -17.783   5.113  23.044  0.00  0.00    +0.159 C 
ATOM     12  C   UNL     1     -15.743   3.852  23.986  0.00  0.00    +0.170 C 
ATOM     13  C   UNL     1     -17.430   2.610  23.246  0.00  0.00    +0.270 C 
ATOM     14  C   UNL     1     -16.488   3.316  25.194  0.00  0.00    +0.196 C 
ENDROOT
BRANCH  10   6
ATOM      4  O   UNL     1     -14.912   7.696  23.199  0.00  0.00    -0.253 OA
ATOM      6  N   UNL     1     -15.495   5.629  22.323  0.00  0.00    -0.291 N 
ATOM      7  N   UNL     1     -14.161   7.041  21.101  0.00  0.00    -0.297 N 
ATOM     18  C   UNL     1     -14.861   6.866  22.292  0.00  0.00    +0.300 C 
ATOM     27  H   UNL     1     -15.460   5.043  21.494  0.00  0.00    +0.151 HD
ATOM     29  H   UNL     1     -14.246   6.322  20.390  0.00  0.00    +0.151 HD
BRANCH   7  16
ATOM     16  C   UNL     1     -13.406   8.236  20.796  0.00  0.00    +0.074 C 
ATOM     19  C   UNL     1     -11.899   7.956  20.820  0.00  0.00    +0.022 C 
ATOM     20  C   UNL     1     -13.838   8.833  19.452  0.00  0.00    +0.022 C 
ATOM     21  C   UNL     1     -11.441   7.115  19.628  0.00  0.00    +0.002 C 
ATOM     22  C   UNL     1     -13.376   7.990  18.263  0.00  0.00    +0.002 C 
ATOM     24  C   UNL     1     -11.874   7.735  18.303  0.00  0.00    +0.000 C 
ENDBRANCH   7  16
ENDBRANCH  10   6
BRANCH  11   3
ATOM      3  O   UNL     1     -18.586   5.413  24.193  0.00  0.00    -0.388 OA
ATOM     28  H   UNL     1     -19.371   5.898  23.884  0.00  0.00    +0.210 HD
ENDBRANCH  11   3
BRANCH   9   5
ATOM      5  N   UNL     1     -17.977   3.633  21.079  0.00  0.00    -0.295 NA
ATOM     17  C   UNL     1     -18.789   2.566  20.496  0.00  0.00    +0.105 C 
BRANCH   5  15
ATOM     15  C   UNL     1     -18.273   4.912  20.435  0.00  0.00    +0.100 C 
BRANCH  15  23
ATOM     23  C   UNL     1     -17.265   5.187  19.324  0.00  0.00    +0.099 C 
BRANCH  23   8
ATOM      8  N   UNL     1     -16.896   6.598  19.317  0.00  0.00    -0.307 NA
ATOM     25  C   UNL     1     -17.828   7.377  20.136  0.00  0.00    +0.104 C 
ATOM     26  C   UNL     1     -16.867   7.117  17.949  0.00  0.00    +0.104 C 
ENDBRANCH  23   8
ENDBRANCH  15  23
ENDBRANCH   5  15
ENDBRANCH   9   5
TORSDOF 7
ENDMDL
MODEL 8
REMARK VINA RESULT:      -4.6     14.760     17.742
REMARK  Name = 28960591
REMARK  10 active torsions:
REMARK  status: ('A' for Active; 'I' for Inactive)
REMARK    1  A    between atoms: O_3  and  C_11
REMARK    2  A    between atoms: N_5  and  C_9
REMARK    3  A    between atoms: N_5  and  C_15
REMARK    4  A    between atoms: N_5  and  C_17
REMARK    5  A    between atoms: N_6  and  C_10
REMARK    6  A    between atoms: N_7  and  C_16
REMARK    7  A    between atoms: N_8  and  C_23
REMARK    8  A    between atoms: N_8  and  C_25
REMARK    9  A    between atoms: N_8  and  C_26
REMARK   10  A    between atoms: C_15  and  C_23
REMARK                            x       y       z     vdW  Elec       q    Type
REMARK                         _______ _______ _______ _____ _____    ______ ____
ROOT
ATOM      1  O   UNL     1      14.813   9.004  18.761  0.00  0.00    -0.342 OA
ATOM      2  O   UNL     1      12.846   8.147  17.879  0.00  0.00    -0.347 OA
ATOM      9  C   UNL     1      12.979   8.551  20.260  0.00  0.00    +0.143 C 
ATOM     10  C   UNL     1      14.853   6.831  19.805  0.00  0.00    +0.136 C 
ATOM     11  C   UNL     1      13.501   7.115  20.495  0.00  0.00    +0.159 C 
ATOM     12  C   UNL     1      15.041   7.617  18.492  0.00  0.00    +0.170 C 
ATOM     13  C   UNL     1      13.382   9.050  18.860  0.00  0.00    +0.270 C 
ATOM     14  C   UNL     1      13.966   7.358  17.454  0.00  0.00    +0.196 C 
ENDROOT
BRANCH  10   6
ATOM      4  O   UNL     1      17.537   5.816  19.641  0.00  0.00    -0.253 OA
ATOM      6  N   UNL     1      15.945   7.120  20.710  0.00  0.00    -0.291 N 
ATOM      7  N   UNL     1      18.077   7.017  21.553  0.00  0.00    -0.297 N 
ATOM     18  C   UNL     1      17.216   6.580  20.550  0.00  0.00    +0.300 C 
ATOM     27  H   UNL     1      15.755   7.679  21.536  0.00  0.00    +0.151 HD
ATOM     29  H   UNL     1      17.689   7.590  22.296  0.00  0.00    +0.151 HD
BRANCH   7  16
ATOM     16  C   UNL     1      19.464   6.614  21.636  0.00  0.00    +0.074 C 
ATOM     19  C   UNL     1      20.340   7.464  20.709  0.00  0.00    +0.022 C 
ATOM     20  C   UNL     1      19.968   6.670  23.082  0.00  0.00    +0.022 C 
ATOM     21  C   UNL     1      20.513   8.896  21.217  0.00  0.00    +0.002 C 
ATOM     22  C   UNL     1      20.141   8.103  23.586  0.00  0.00    +0.002 C 
ATOM     24  C   UNL     1      21.025   8.925  22.654  0.00  0.00    +0.000 C 
ENDBRANCH   7  16
ENDBRANCH  10   6
BRANCH  11   3
ATOM      3  O   UNL     1      12.521   6.204  19.980  0.00  0.00    -0.388 OA
ATOM     28  H   UNL     1      11.739   6.258  20.556  0.00  0.00    +0.210 HD
ENDBRANCH  11   3
BRANCH   9   5
ATOM      5  N   UNL     1      13.513   9.454  21.281  0.00  0.00    -0.295 NA
ATOM     17  C   UNL     1      13.681  10.799  20.734  0.00  0.00    +0.105 C 
BRANCH   5  15
ATOM     15  C   UNL     1      12.630   9.483  22.448  0.00  0.00    +0.100 C 
BRANCH  15  23
ATOM     23  C   UNL     1      12.037  10.877  22.623  0.00  0.00    +0.099 C 
BRANCH  23   8
ATOM      8  N   UNL     1      12.186  11.316  24.006  0.00  0.00    -0.307 NA
ATOM     25  C   UNL     1      10.915  11.825  24.524  0.00  0.00    +0.104 C 
ATOM     26  C   UNL     1      13.225  12.342  24.111  0.00  0.00    +0.104 C 
ENDBRANCH  23   8
ENDBRANCH  15  23
ENDBRANCH   5  15
ENDBRANCH   9   5
TORSDOF 7
ENDMDL
MODEL 9
REMARK VINA RESULT:      -4.6     23.682     26.698
REMARK  Name = 28960591
REMARK  10 active torsions:
REMARK  status: ('A' for Active; 'I' for Inactive)
REMARK    1  A    between atoms: O_3  and  C_11
REMARK    2  A    between atoms: N_5  and  C_9
REMARK    3  A    between atoms: N_5  and  C_15
REMARK    4  A    between atoms: N_5  and  C_17
REMARK    5  A    between atoms: N_6  and  C_10
REMARK    6  A    between atoms: N_7  and  C_16
REMARK    7  A    between atoms: N_8  and  C_23
REMARK    8  A    between atoms: N_8  and  C_25
REMARK    9  A    between atoms: N_8  and  C_26
REMARK   10  A    between atoms: C_15  and  C_23
REMARK                            x       y       z     vdW  Elec       q    Type
REMARK                         _______ _______ _______ _____ _____    ______ ____
ROOT
ATOM      1  O   UNL     1     -10.520   8.167  17.828  0.00  0.00    -0.342 OA
ATOM      2  O   UNL     1     -12.371   7.874  19.194  0.00  0.00    -0.347 OA
ATOM      9  C   UNL     1     -12.561   9.323  17.267  0.00  0.00    +0.143 C 
ATOM     10  C   UNL     1     -10.702  10.410  18.694  0.00  0.00    +0.136 C 
ATOM     11  C   UNL     1     -12.127  10.541  18.114  0.00  0.00    +0.159 C 
ATOM     12  C   UNL     1     -10.303   8.952  19.003  0.00  0.00    +0.170 C 
ATOM     13  C   UNL     1     -11.948   8.028  17.829  0.00  0.00    +0.270 C 
ATOM     14  C   UNL     1     -11.229   8.250  19.978  0.00  0.00    +0.196 C 
ENDROOT
BRANCH  10   6
ATOM      4  O   UNL     1     -10.446  13.194  18.025  0.00  0.00    -0.253 OA
ATOM      6  N   UNL     1      -9.738  10.998  17.787  0.00  0.00    -0.291 N 
ATOM      7  N   UNL     1      -8.676  12.664  16.619  0.00  0.00    -0.297 N 
ATOM     18  C   UNL     1      -9.691  12.363  17.523  0.00  0.00    +0.300 C 
ATOM     27  H   UNL     1      -9.124  10.380  17.265  0.00  0.00    +0.151 HD
ATOM     29  H   UNL     1      -8.158  11.892  16.212  0.00  0.00    +0.151 HD
BRANCH   7  16
ATOM     16  C   UNL     1      -8.395  14.007  16.164  0.00  0.00    +0.074 C 
ATOM     19  C   UNL     1      -7.718  14.832  17.265  0.00  0.00    +0.022 C 
ATOM     20  C   UNL     1      -7.551  13.991  14.885  0.00  0.00    +0.022 C 
ATOM     21  C   UNL     1      -6.274  14.396  17.518  0.00  0.00    +0.002 C 
ATOM     22  C   UNL     1      -6.107  13.557  15.143  0.00  0.00    +0.002 C 
ATOM     24  C   UNL     1      -5.452  14.398  16.233  0.00  0.00    +0.000 C 
ENDBRANCH   7  16
ENDBRANCH  10   6
BRANCH  11   3
ATOM      3  O   UNL     1     -13.054  10.672  19.199  0.00  0.00    -0.388 OA
ATOM     28  H   UNL     1     -13.902  10.971  18.826  0.00  0.00    +0.210 HD
ENDBRANCH  11   3
BRANCH   9   5
ATOM      5  N   UNL     1     -12.147   9.504  15.875  0.00  0.00    -0.295 NA
ATOM     17  C   UNL     1     -12.747   8.476  15.026  0.00  0.00    +0.105 C 
BRANCH   5  15
ATOM     15  C   UNL     1     -12.516  10.838  15.402  0.00  0.00    +0.100 C 
BRANCH  15  23
ATOM     23  C   UNL     1     -11.522  11.316  14.349  0.00  0.00    +0.099 C 
BRANCH  23   8
ATOM      8  N   UNL     1     -11.279  12.746  14.500  0.00  0.00    -0.307 NA
ATOM     25  C   UNL     1     -12.436  13.403  15.110  0.00  0.00    +0.104 C 
ATOM     26  C   UNL     1     -10.972  13.357  13.206  0.00  0.00    +0.104 C 
ENDBRANCH  23   8
ENDBRANCH  15  23
ENDBRANCH   5  15
ENDBRANCH   9   5
TORSDOF 7
ENDMDL
MODEL 10
REMARK VINA RESULT:      -4.6     24.562     27.032
REMARK  Name = 28960591
REMARK  10 active torsions:
REMARK  status: ('A' for Active; 'I' for Inactive)
REMARK    1  A    between atoms: O_3  and  C_11
REMARK    2  A    between atoms: N_5  and  C_9
REMARK    3  A    between atoms: N_5  and  C_15
REMARK    4  A    between atoms: N_5  and  C_17
REMARK    5  A    between atoms: N_6  and  C_10
REMARK    6  A    between atoms: N_7  and  C_16
REMARK    7  A    between atoms: N_8  and  C_23
REMARK    8  A    between atoms: N_8  and  C_25
REMARK    9  A    between atoms: N_8  and  C_26
REMARK   10  A    between atoms: C_15  and  C_23
REMARK                            x       y       z     vdW  Elec       q    Type
REMARK                         _______ _______ _______ _____ _____    ______ ____
ROOT
ATOM      1  O   UNL     1      -7.250  -9.172  17.152  0.00  0.00    -0.342 OA
ATOM      2  O   UNL     1      -8.515 -10.617  18.452  0.00  0.00    -0.347 OA
ATOM      9  C   UNL     1      -6.518 -11.458  17.378  0.00  0.00    +0.143 C 
ATOM     10  C   UNL     1      -8.004 -10.668  15.418  0.00  0.00    +0.136 C 
ATOM     11  C   UNL     1      -7.335 -11.864  16.130  0.00  0.00    +0.159 C 
ATOM     12  C   UNL     1      -8.401  -9.531  16.382  0.00  0.00    +0.170 C 
ATOM     13  C   UNL     1      -7.173 -10.257  18.086  0.00  0.00    +0.270 C 
ATOM     14  C   UNL     1      -9.349  -9.958  17.487  0.00  0.00    +0.196 C 
ENDROOT
BRANCH  10   6
ATOM      4  O   UNL     1      -7.475 -11.862  12.857  0.00  0.00    -0.253 OA
ATOM      6  N   UNL     1      -7.132 -10.151  14.385  0.00  0.00    -0.291 N 
ATOM      7  N   UNL     1      -6.053 -10.096  12.360  0.00  0.00    -0.297 N 
ATOM     18  C   UNL     1      -6.936 -10.802  13.172  0.00  0.00    +0.300 C 
ATOM     27  H   UNL     1      -6.583  -9.321  14.585  0.00  0.00    +0.151 HD
ATOM     29  H   UNL     1      -5.610  -9.268  12.747  0.00  0.00    +0.151 HD
BRANCH   7  16
ATOM     16  C   UNL     1      -5.665 -10.539  11.039  0.00  0.00    +0.074 C 
ATOM     19  C   UNL     1      -5.633  -9.366  10.053  0.00  0.00    +0.022 C 
ATOM     20  C   UNL     1      -4.319 -11.270  11.076  0.00  0.00    +0.022 C 
ATOM     21  C   UNL     1      -4.457  -8.422  10.304  0.00  0.00    +0.002 C 
ATOM     22  C   UNL     1      -3.145 -10.323  11.325  0.00  0.00    +0.002 C 
ATOM     24  C   UNL     1      -3.128  -9.172  10.325  0.00  0.00    +0.000 C 
ENDBRANCH   7  16
ENDBRANCH  10   6
BRANCH  11   3
ATOM      3  O   UNL     1      -8.356 -12.777  16.554  0.00  0.00    -0.388 OA
ATOM     28  H   UNL     1      -8.924 -12.308  17.189  0.00  0.00    +0.210 HD
ENDBRANCH  11   3
BRANCH   9   5
ATOM      5  N   UNL     1      -5.146 -11.120  16.994  0.00  0.00    -0.295 NA
ATOM     17  C   UNL     1      -4.282 -11.081  18.172  0.00  0.00    +0.105 C 
BRANCH   5  15
ATOM     15  C   UNL     1      -4.638 -12.083  16.018  0.00  0.00    +0.100 C 
BRANCH  15  23
ATOM     23  C   UNL     1      -3.729 -11.383  15.013  0.00  0.00    +0.099 C 
BRANCH  23   8
ATOM      8  N   UNL     1      -2.345 -11.797  15.215  0.00  0.00    -0.307 NA
ATOM     25  C   UNL     1      -1.510 -10.645  15.562  0.00  0.00    +0.104 C 
ATOM     26  C   UNL     1      -1.825 -12.459  14.017  0.00  0.00    +0.104 C 
ENDBRANCH  23   8
ENDBRANCH  15  23
ENDBRANCH   5  15
ENDBRANCH   9   5
TORSDOF 7
ENDMDL
