MODEL 1
REMARK VINA RESULT:      -6.9      0.000      0.000
REMARK  Name = 45783461
REMARK  9 active torsions:
REMARK  status: ('A' for Active; 'I' for Inactive)
REMARK    1  A    between atoms: O_2  and  C_22
REMARK    2  A    between atoms: O_2  and  C_25
REMARK    3  A    between atoms: O_3  and  C_26
REMARK    4  A    between atoms: O_3  and  C_27
REMARK    5  A    between atoms: N_4  and  C_14
REMARK    6  A    between atoms: C_10  and  C_15
REMARK    7  A    between atoms: C_14  and  C_16
REMARK    8  A    between atoms: C_17  and  C_20
REMARK    9  A    between atoms: C_25  and  C_26
REMARK                            x       y       z     vdW  Elec       q    Type
REMARK                         _______ _______ _______ _____ _____    ______ ____
ROOT
ATOM      1  O   UNL     1      16.289   5.920  18.384  0.00  0.00    -0.336 OA
ATOM      5  N   UNL     1      16.816   6.941  20.307  0.00  0.00    -0.189 NA
ATOM      8  N   UNL     1      17.585   5.499  18.706  0.00  0.00    -0.054 NA
ATOM     15  C   UNL     1      15.910   6.766  19.377  0.00  0.00    +0.245 A 
ATOM     17  C   UNL     1      17.825   6.143  19.852  0.00  0.00    +0.221 A 
ENDROOT
BRANCH  17  20
ATOM      9  N   UNL     1      19.306   6.969  21.492  0.00  0.00    -0.252 NA
ATOM     20  C   UNL     1      19.062   6.014  20.567  0.00  0.00    +0.115 A 
ATOM     21  C   UNL     1      19.920   4.961  20.294  0.00  0.00    +0.077 A 
ATOM     22  C   UNL     1      21.106   4.885  21.016  0.00  0.00    +0.124 A 
ATOM     23  C   UNL     1      20.468   6.861  22.174  0.00  0.00    +0.115 A 
ATOM     24  C   UNL     1      21.393   5.849  21.976  0.00  0.00    +0.065 A 
BRANCH  22   2
ATOM      2  O   UNL     1      21.982   3.870  20.785  0.00  0.00    -0.490 OA
BRANCH   2  25
ATOM     25  C   UNL     1      22.694   3.355  21.910  0.00  0.00    +0.257 C 
BRANCH  25  26
ATOM     26  C   UNL     1      24.165   3.251  21.560  0.00  0.00    +0.200 C 
BRANCH  26   3
ATOM      3  O   UNL     1      24.295   2.686  20.261  0.00  0.00    -0.380 OA
ATOM     27  C   UNL     1      25.421   3.214  19.574  0.00  0.00    +0.194 C 
ENDBRANCH  26   3
ENDBRANCH  25  26
ENDBRANCH   2  25
ENDBRANCH  22   2
ENDBRANCH  17  20
BRANCH  15  10
ATOM      4  N   UNL     1      14.373   8.602  20.054  0.00  0.00    -0.284 NA
ATOM     10  C   UNL     1      14.524   7.366  19.260  0.00  0.00    +0.146 C 
ATOM     11  C   UNL     1      14.177   7.783  17.818  0.00  0.00    +0.030 C 
ATOM     12  C   UNL     1      13.784   9.250  17.913  0.00  0.00    +0.017 C 
ATOM     13  C   UNL     1      13.375   9.418  19.362  0.00  0.00    +0.085 C 
BRANCH   4  14
ATOM     14  C   UNL     1      14.008   8.351  21.443  0.00  0.00    +0.159 C 
BRANCH  14  16
ATOM      6  N   UNL     1      12.583   6.291  21.361  0.00  0.00    -0.347 N 
ATOM      7  N   UNL     1      11.521   8.184  21.835  0.00  0.00    -0.239 NA
ATOM     16  C   UNL     1      12.685   7.641  21.555  0.00  0.00    +0.121 A 
ATOM     18  C   UNL     1      11.270   5.952  21.529  0.00  0.00    +0.104 A 
ATOM     19  C   UNL     1      10.635   7.136  21.819  0.00  0.00    +0.130 A 
ATOM     28  H   UNL     1      13.339   5.658  21.136  0.00  0.00    +0.167 HD
ENDBRANCH  14  16
ENDBRANCH   4  14
ENDBRANCH  15  10
TORSDOF 8
ENDMDL
MODEL 2
REMARK VINA RESULT:      -6.8      2.701      8.736
REMARK  Name = 45783461
REMARK  9 active torsions:
REMARK  status: ('A' for Active; 'I' for Inactive)
REMARK    1  A    between atoms: O_2  and  C_22
REMARK    2  A    between atoms: O_2  and  C_25
REMARK    3  A    between atoms: O_3  and  C_26
REMARK    4  A    between atoms: O_3  and  C_27
REMARK    5  A    between atoms: N_4  and  C_14
REMARK    6  A    between atoms: C_10  and  C_15
REMARK    7  A    between atoms: C_14  and  C_16
REMARK    8  A    between atoms: C_17  and  C_20
REMARK    9  A    between atoms: C_25  and  C_26
REMARK                            x       y       z     vdW  Elec       q    Type
REMARK                         _______ _______ _______ _____ _____    ______ ____
ROOT
ATOM      1  O   UNL     1      18.265   7.000  20.418  0.00  0.00    -0.336 OA
ATOM      5  N   UNL     1      16.645   8.511  20.748  0.00  0.00    -0.189 NA
ATOM      8  N   UNL     1      17.164   6.559  19.675  0.00  0.00    -0.054 NA
ATOM     15  C   UNL     1      17.876   8.155  21.019  0.00  0.00    +0.245 A 
ATOM     17  C   UNL     1      16.249   7.502  19.920  0.00  0.00    +0.221 A 
ENDROOT
BRANCH  17  20
ATOM      9  N   UNL     1      14.793   8.062  18.151  0.00  0.00    -0.252 NA
ATOM     20  C   UNL     1      14.931   7.464  19.355  0.00  0.00    +0.115 A 
ATOM     21  C   UNL     1      13.896   6.843  20.036  0.00  0.00    +0.077 A 
ATOM     22  C   UNL     1      12.639   6.836  19.442  0.00  0.00    +0.124 A 
ATOM     23  C   UNL     1      13.556   8.035  17.606  0.00  0.00    +0.115 A 
ATOM     24  C   UNL     1      12.457   7.441  18.204  0.00  0.00    +0.065 A 
BRANCH  22   2
ATOM      2  O   UNL     1      11.591   6.238  20.071  0.00  0.00    -0.490 OA
BRANCH   2  25
ATOM     25  C   UNL     1      11.566   6.300  21.497  0.00  0.00    +0.257 C 
BRANCH  25  26
ATOM     26  C   UNL     1      10.639   7.418  21.928  0.00  0.00    +0.200 C 
BRANCH  26   3
ATOM      3  O   UNL     1      11.401   8.436  22.563  0.00  0.00    -0.380 OA
ATOM     27  C   UNL     1      10.737   9.691  22.517  0.00  0.00    +0.194 C 
ENDBRANCH  26   3
ENDBRANCH  25  26
ENDBRANCH   2  25
ENDBRANCH  22   2
ENDBRANCH  17  20
BRANCH  15  10
ATOM      4  N   UNL     1      20.193   8.123  21.924  0.00  0.00    -0.284 NA
ATOM     10  C   UNL     1      18.904   8.842  21.893  0.00  0.00    +0.146 C 
ATOM     11  C   UNL     1      19.258  10.257  21.395  0.00  0.00    +0.030 C 
ATOM     12  C   UNL     1      20.771  10.254  21.234  0.00  0.00    +0.017 C 
ATOM     13  C   UNL     1      21.226   9.135  22.148  0.00  0.00    +0.085 C 
BRANCH   4  14
ATOM     14  C   UNL     1      20.235   7.065  22.927  0.00  0.00    +0.159 C 
BRANCH  14  16
ATOM      6  N   UNL     1      20.691   5.429  21.084  0.00  0.00    -0.347 N 
ATOM      7  N   UNL     1      21.608   4.952  23.050  0.00  0.00    -0.239 NA
ATOM     16  C   UNL     1      20.861   5.807  22.387  0.00  0.00    +0.121 A 
ATOM     18  C   UNL     1      21.373   4.259  20.904  0.00  0.00    +0.104 A 
ATOM     19  C   UNL     1      21.930   3.985  22.131  0.00  0.00    +0.130 A 
ATOM     28  H   UNL     1      20.160   5.924  20.380  0.00  0.00    +0.167 HD
ENDBRANCH  14  16
ENDBRANCH   4  14
ENDBRANCH  15  10
TORSDOF 8
ENDMDL
MODEL 3
REMARK VINA RESULT:      -6.7      2.288      9.008
REMARK  Name = 45783461
REMARK  9 active torsions:
REMARK  status: ('A' for Active; 'I' for Inactive)
REMARK    1  A    between atoms: O_2  and  C_22
REMARK    2  A    between atoms: O_2  and  C_25
REMARK    3  A    between atoms: O_3  and  C_26
REMARK    4  A    between atoms: O_3  and  C_27
REMARK    5  A    between atoms: N_4  and  C_14
REMARK    6  A    between atoms: C_10  and  C_15
REMARK    7  A    between atoms: C_14  and  C_16
REMARK    8  A    between atoms: C_17  and  C_20
REMARK    9  A    between atoms: C_25  and  C_26
REMARK                            x       y       z     vdW  Elec       q    Type
REMARK                         _______ _______ _______ _____ _____    ______ ____
ROOT
ATOM      1  O   UNL     1      17.966   5.773  19.341  0.00  0.00    -0.336 OA
ATOM      5  N   UNL     1      16.874   6.916  20.927  0.00  0.00    -0.189 NA
ATOM      8  N   UNL     1      16.636   5.858  18.914  0.00  0.00    -0.054 NA
ATOM     15  C   UNL     1      18.021   6.422  20.534  0.00  0.00    +0.245 A 
ATOM     17  C   UNL     1      16.055   6.546  19.901  0.00  0.00    +0.221 A 
ENDROOT
BRANCH  17  20
ATOM      9  N   UNL     1      14.112   7.132  21.105  0.00  0.00    -0.252 NA
ATOM     20  C   UNL     1      14.659   6.878  19.894  0.00  0.00    +0.115 A 
ATOM     21  C   UNL     1      13.957   6.924  18.701  0.00  0.00    +0.077 A 
ATOM     22  C   UNL     1      12.607   7.251  18.753  0.00  0.00    +0.124 A 
ATOM     23  C   UNL     1      12.798   7.446  21.115  0.00  0.00    +0.115 A 
ATOM     24  C   UNL     1      12.008   7.518  19.979  0.00  0.00    +0.065 A 
BRANCH  22   2
ATOM      2  O   UNL     1      11.874   7.309  17.608  0.00  0.00    -0.490 OA
BRANCH   2  25
ATOM     25  C   UNL     1      11.299   8.571  17.267  0.00  0.00    +0.257 C 
BRANCH  25  26
ATOM     26  C   UNL     1      12.371   9.454  16.660  0.00  0.00    +0.200 C 
BRANCH  26   3
ATOM      3  O   UNL     1      12.849   8.850  15.465  0.00  0.00    -0.380 OA
ATOM     27  C   UNL     1      14.267   8.762  15.456  0.00  0.00    +0.194 C 
ENDBRANCH  26   3
ENDBRANCH  25  26
ENDBRANCH   2  25
ENDBRANCH  22   2
ENDBRANCH  17  20
BRANCH  15  10
ATOM      4  N   UNL     1      20.456   5.943  20.361  0.00  0.00    -0.284 NA
ATOM     10  C   UNL     1      19.373   6.472  21.214  0.00  0.00    +0.146 C 
ATOM     11  C   UNL     1      19.812   7.909  21.557  0.00  0.00    +0.030 C 
ATOM     12  C   UNL     1      21.178   8.073  20.907  0.00  0.00    +0.017 C 
ATOM     13  C   UNL     1      21.675   6.649  20.756  0.00  0.00    +0.085 C 
BRANCH   4  14
ATOM     14  C   UNL     1      20.605   4.496  20.456  0.00  0.00    +0.159 C 
BRANCH  14  16
ATOM      6  N   UNL     1      22.915   3.612  20.860  0.00  0.00    -0.347 N 
ATOM      7  N   UNL     1      21.770   4.188  22.674  0.00  0.00    -0.239 NA
ATOM     16  C   UNL     1      21.744   4.109  21.361  0.00  0.00    +0.121 A 
ATOM     18  C   UNL     1      23.740   3.359  21.919  0.00  0.00    +0.104 A 
ATOM     19  C   UNL     1      23.011   3.721  23.027  0.00  0.00    +0.130 A 
ATOM     28  H   UNL     1      23.134   3.461  19.884  0.00  0.00    +0.167 HD
ENDBRANCH  14  16
ENDBRANCH   4  14
ENDBRANCH  15  10
TORSDOF 8
ENDMDL
MODEL 4
REMARK VINA RESULT:      -6.6      1.794      2.408
REMARK  Name = 45783461
REMARK  9 active torsions:
REMARK  status: ('A' for Active; 'I' for Inactive)
REMARK    1  A    between atoms: O_2  and  C_22
REMARK    2  A    between atoms: O_2  and  C_25
REMARK    3  A    between atoms: O_3  and  C_26
REMARK    4  A    between atoms: O_3  and  C_27
REMARK    5  A    between atoms: N_4  and  C_14
REMARK    6  A    between atoms: C_10  and  C_15
REMARK    7  A    between atoms: C_14  and  C_16
REMARK    8  A    between atoms: C_17  and  C_20
REMARK    9  A    between atoms: C_25  and  C_26
REMARK                            x       y       z     vdW  Elec       q    Type
REMARK                         _______ _______ _______ _____ _____    ______ ____
ROOT
ATOM      1  O   UNL     1      14.820   9.040  19.896  0.00  0.00    -0.336 OA
ATOM      5  N   UNL     1      15.893   7.161  19.320  0.00  0.00    -0.189 NA
ATOM      8  N   UNL     1      15.997   9.017  20.652  0.00  0.00    -0.054 NA
ATOM     15  C   UNL     1      14.836   7.912  19.139  0.00  0.00    +0.245 A 
ATOM     17  C   UNL     1      16.577   7.880  20.257  0.00  0.00    +0.221 A 
ENDROOT
BRANCH  17  20
ATOM      9  N   UNL     1      18.347   8.172  21.788  0.00  0.00    -0.252 NA
ATOM     20  C   UNL     1      17.836   7.432  20.778  0.00  0.00    +0.115 A 
ATOM     21  C   UNL     1      18.451   6.308  20.252  0.00  0.00    +0.077 A 
ATOM     22  C   UNL     1      19.670   5.919  20.795  0.00  0.00    +0.124 A 
ATOM     23  C   UNL     1      19.534   7.763  22.290  0.00  0.00    +0.115 A 
ATOM     24  C   UNL     1      20.229   6.654  21.834  0.00  0.00    +0.065 A 
BRANCH  22   2
ATOM      2  O   UNL     1      20.314   4.822  20.312  0.00  0.00    -0.490 OA
BRANCH   2  25
ATOM     25  C   UNL     1      21.688   4.665  20.666  0.00  0.00    +0.257 C 
BRANCH  25  26
ATOM     26  C   UNL     1      21.862   3.353  21.405  0.00  0.00    +0.200 C 
BRANCH  26   3
ATOM      3  O   UNL     1      23.022   2.694  20.914  0.00  0.00    -0.380 OA
ATOM     27  C   UNL     1      24.066   3.616  20.634  0.00  0.00    +0.194 C 
ENDBRANCH  26   3
ENDBRANCH  25  26
ENDBRANCH   2  25
ENDBRANCH  22   2
ENDBRANCH  17  20
BRANCH  15  10
ATOM      4  N   UNL     1      12.493   8.537  18.583  0.00  0.00    -0.284 NA
ATOM     10  C   UNL     1      13.653   7.700  18.218  0.00  0.00    +0.146 C 
ATOM     11  C   UNL     1      13.963   8.076  16.756  0.00  0.00    +0.030 C 
ATOM     12  C   UNL     1      12.888   9.082  16.369  0.00  0.00    +0.017 C 
ATOM     13  C   UNL     1      11.762   8.795  17.342  0.00  0.00    +0.085 C 
BRANCH   4  14
ATOM     14  C   UNL     1      11.646   7.931  19.602  0.00  0.00    +0.159 C 
BRANCH  14  16
ATOM      6  N   UNL     1      11.970  10.108  20.799  0.00  0.00    -0.347 N 
ATOM      7  N   UNL     1      10.629   8.645  21.798  0.00  0.00    -0.239 NA
ATOM     16  C   UNL     1      11.392   8.869  20.751  0.00  0.00    +0.121 A 
ATOM     18  C   UNL     1      11.549  10.711  21.951  0.00  0.00    +0.104 A 
ATOM     19  C   UNL     1      10.725   9.790  22.550  0.00  0.00    +0.130 A 
ATOM     28  H   UNL     1      12.593  10.507  20.110  0.00  0.00    +0.167 HD
ENDBRANCH  14  16
ENDBRANCH   4  14
ENDBRANCH  15  10
TORSDOF 8
ENDMDL
MODEL 5
REMARK VINA RESULT:      -6.5      2.627      9.293
REMARK  Name = 45783461
REMARK  9 active torsions:
REMARK  status: ('A' for Active; 'I' for Inactive)
REMARK    1  A    between atoms: O_2  and  C_22
REMARK    2  A    between atoms: O_2  and  C_25
REMARK    3  A    between atoms: O_3  and  C_26
REMARK    4  A    between atoms: O_3  and  C_27
REMARK    5  A    between atoms: N_4  and  C_14
REMARK    6  A    between atoms: C_10  and  C_15
REMARK    7  A    between atoms: C_14  and  C_16
REMARK    8  A    between atoms: C_17  and  C_20
REMARK    9  A    between atoms: C_25  and  C_26
REMARK                            x       y       z     vdW  Elec       q    Type
REMARK                         _______ _______ _______ _____ _____    ______ ____
ROOT
ATOM      1  O   UNL     1      18.356   5.465  19.256  0.00  0.00    -0.336 OA
ATOM      5  N   UNL     1      17.365   6.974  20.582  0.00  0.00    -0.189 NA
ATOM      8  N   UNL     1      17.042   5.587  18.792  0.00  0.00    -0.054 NA
ATOM     15  C   UNL     1      18.464   6.315  20.311  0.00  0.00    +0.245 A 
ATOM     17  C   UNL     1      16.521   6.494  19.624  0.00  0.00    +0.221 A 
ENDROOT
BRANCH  17  20
ATOM      9  N   UNL     1      14.862   7.670  18.427  0.00  0.00    -0.252 NA
ATOM     20  C   UNL     1      15.161   6.941  19.526  0.00  0.00    +0.115 A 
ATOM     21  C   UNL     1      14.248   6.623  20.518  0.00  0.00    +0.077 A 
ATOM     22  C   UNL     1      12.944   7.082  20.373  0.00  0.00    +0.124 A 
ATOM     23  C   UNL     1      13.585   8.099  18.321  0.00  0.00    +0.115 A 
ATOM     24  C   UNL     1      12.597   7.835  19.256  0.00  0.00    +0.065 A 
BRANCH  22   2
ATOM      2  O   UNL     1      12.010   6.796  21.320  0.00  0.00    -0.490 OA
BRANCH   2  25
ATOM     25  C   UNL     1      10.792   7.540  21.279  0.00  0.00    +0.257 C 
BRANCH  25  26
ATOM     26  C   UNL     1      10.704   8.413  22.515  0.00  0.00    +0.200 C 
BRANCH  26   3
ATOM      3  O   UNL     1      11.107   9.735  22.180  0.00  0.00    -0.380 OA
ATOM     27  C   UNL     1      10.919  10.628  23.269  0.00  0.00    +0.194 C 
ENDBRANCH  26   3
ENDBRANCH  25  26
ENDBRANCH   2  25
ENDBRANCH  22   2
ENDBRANCH  17  20
BRANCH  15  10
ATOM      4  N   UNL     1      20.844   5.590  20.287  0.00  0.00    -0.284 NA
ATOM     10  C   UNL     1      19.813   6.371  20.998  0.00  0.00    +0.146 C 
ATOM     11  C   UNL     1      20.384   7.800  21.069  0.00  0.00    +0.030 C 
ATOM     12  C   UNL     1      21.763   7.709  20.430  0.00  0.00    +0.017 C 
ATOM     13  C   UNL     1      22.123   6.244  20.566  0.00  0.00    +0.085 C 
BRANCH   4  14
ATOM     14  C   UNL     1      20.855   4.181  20.660  0.00  0.00    +0.159 C 
BRANCH  14  16
ATOM      6  N   UNL     1      22.995   3.161  21.473  0.00  0.00    -0.347 N 
ATOM      7  N   UNL     1      21.821   4.282  22.990  0.00  0.00    -0.239 NA
ATOM     16  C   UNL     1      21.870   3.894  21.734  0.00  0.00    +0.121 A 
ATOM     18  C   UNL     1      23.707   3.076  22.636  0.00  0.00    +0.104 A 
ATOM     19  C   UNL     1      22.963   3.774  23.557  0.00  0.00    +0.130 A 
ATOM     28  H   UNL     1      23.255   2.756  20.583  0.00  0.00    +0.167 HD
ENDBRANCH  14  16
ENDBRANCH   4  14
ENDBRANCH  15  10
TORSDOF 8
ENDMDL
MODEL 6
REMARK VINA RESULT:      -6.4     26.303     30.254
REMARK  Name = 45783461
REMARK  9 active torsions:
REMARK  status: ('A' for Active; 'I' for Inactive)
REMARK    1  A    between atoms: O_2  and  C_22
REMARK    2  A    between atoms: O_2  and  C_25
REMARK    3  A    between atoms: O_3  and  C_26
REMARK    4  A    between atoms: O_3  and  C_27
REMARK    5  A    between atoms: N_4  and  C_14
REMARK    6  A    between atoms: C_10  and  C_15
REMARK    7  A    between atoms: C_14  and  C_16
REMARK    8  A    between atoms: C_17  and  C_20
REMARK    9  A    between atoms: C_25  and  C_26
REMARK                            x       y       z     vdW  Elec       q    Type
REMARK                         _______ _______ _______ _____ _____    ______ ____
ROOT
ATOM      1  O   UNL     1      -4.082 -11.248  17.870  0.00  0.00    -0.336 OA
ATOM      5  N   UNL     1      -5.508 -10.728  16.223  0.00  0.00    -0.189 NA
ATOM      8  N   UNL     1      -5.312 -10.990  18.487  0.00  0.00    -0.054 NA
ATOM     15  C   UNL     1      -4.284 -11.072  16.538  0.00  0.00    +0.245 A 
ATOM     17  C   UNL     1      -6.102 -10.691  17.451  0.00  0.00    +0.221 A 
ENDROOT
BRANCH  17  20
ATOM      9  N   UNL     1      -8.276 -11.325  18.109  0.00  0.00    -0.252 NA
ATOM     20  C   UNL     1      -7.486 -10.349  17.608  0.00  0.00    +0.115 A 
ATOM     21  C   UNL     1      -7.939  -9.088  17.256  0.00  0.00    +0.077 A 
ATOM     22  C   UNL     1      -9.290  -8.811  17.429  0.00  0.00    +0.124 A 
ATOM     23  C   UNL     1      -9.584 -11.018  18.263  0.00  0.00    +0.115 A 
ATOM     24  C   UNL     1     -10.136  -9.788  17.941  0.00  0.00    +0.065 A 
BRANCH  22   2
ATOM      2  O   UNL     1      -9.784  -7.587  17.098  0.00  0.00    -0.490 OA
BRANCH   2  25
ATOM     25  C   UNL     1     -10.253  -7.414  15.761  0.00  0.00    +0.257 C 
BRANCH  25  26
ATOM     26  C   UNL     1     -10.837  -6.022  15.618  0.00  0.00    +0.200 C 
BRANCH  26   3
ATOM      3  O   UNL     1     -12.245  -6.088  15.805  0.00  0.00    -0.380 OA
ATOM     27  C   UNL     1     -12.945  -5.796  14.603  0.00  0.00    +0.194 C 
ENDBRANCH  26   3
ENDBRANCH  25  26
ENDBRANCH   2  25
ENDBRANCH  22   2
ENDBRANCH  17  20
BRANCH  15  10
ATOM      4  N   UNL     1      -3.173 -10.529  14.380  0.00  0.00    -0.284 NA
ATOM     10  C   UNL     1      -3.087 -11.296  15.638  0.00  0.00    +0.146 C 
ATOM     11  C   UNL     1      -1.765 -10.841  16.284  0.00  0.00    +0.030 C 
ATOM     12  C   UNL     1      -1.150  -9.868  15.288  0.00  0.00    +0.017 C 
ATOM     13  C   UNL     1      -1.796 -10.249  13.972  0.00  0.00    +0.085 C 
BRANCH   4  14
ATOM     14  C   UNL     1      -3.924 -11.218  13.338  0.00  0.00    +0.159 C 
BRANCH  14  16
ATOM      6  N   UNL     1      -6.031  -9.870  13.187  0.00  0.00    -0.347 N 
ATOM      7  N   UNL     1      -4.698  -9.782  11.412  0.00  0.00    -0.239 NA
ATOM     16  C   UNL     1      -4.861 -10.288  12.615  0.00  0.00    +0.121 A 
ATOM     18  C   UNL     1      -6.652  -9.045  12.292  0.00  0.00    +0.104 A 
ATOM     19  C   UNL     1      -5.812  -9.007  11.205  0.00  0.00    +0.130 A 
ATOM     28  H   UNL     1      -6.375 -10.122  14.104  0.00  0.00    +0.167 HD
ENDBRANCH  14  16
ENDBRANCH   4  14
ENDBRANCH  15  10
TORSDOF 8
ENDMDL
MODEL 7
REMARK VINA RESULT:      -6.3      2.635      3.845
REMARK  Name = 45783461
REMARK  9 active torsions:
REMARK  status: ('A' for Active; 'I' for Inactive)
REMARK    1  A    between atoms: O_2  and  C_22
REMARK    2  A    between atoms: O_2  and  C_25
REMARK    3  A    between atoms: O_3  and  C_26
REMARK    4  A    between atoms: O_3  and  C_27
REMARK    5  A    between atoms: N_4  and  C_14
REMARK    6  A    between atoms: C_10  and  C_15
REMARK    7  A    between atoms: C_14  and  C_16
REMARK    8  A    between atoms: C_17  and  C_20
REMARK    9  A    between atoms: C_25  and  C_26
REMARK                            x       y       z     vdW  Elec       q    Type
REMARK                         _______ _______ _______ _____ _____    ______ ____
ROOT
ATOM      1  O   UNL     1      14.831   8.648  20.445  0.00  0.00    -0.336 OA
ATOM      5  N   UNL     1      15.426   6.559  19.897  0.00  0.00    -0.189 NA
ATOM      8  N   UNL     1      16.198   8.547  20.723  0.00  0.00    -0.054 NA
ATOM     15  C   UNL     1      14.454   7.435  19.962  0.00  0.00    +0.245 A 
ATOM     17  C   UNL     1      16.476   7.287  20.374  0.00  0.00    +0.221 A 
ENDROOT
BRANCH  17  20
ATOM      9  N   UNL     1      18.035   5.644  19.718  0.00  0.00    -0.252 NA
ATOM     20  C   UNL     1      17.790   6.725  20.491  0.00  0.00    +0.115 A 
ATOM     21  C   UNL     1      18.717   7.286  21.355  0.00  0.00    +0.077 A 
ATOM     22  C   UNL     1      19.976   6.700  21.429  0.00  0.00    +0.124 A 
ATOM     23  C   UNL     1      19.270   5.101  19.817  0.00  0.00    +0.115 A 
ATOM     24  C   UNL     1      20.266   5.586  20.649  0.00  0.00    +0.065 A 
BRANCH  22   2
ATOM      2  O   UNL     1      20.921   7.215  22.262  0.00  0.00    -0.490 OA
BRANCH   2  25
ATOM     25  C   UNL     1      21.154   6.523  23.488  0.00  0.00    +0.257 C 
BRANCH  25  26
ATOM     26  C   UNL     1      20.793   7.432  24.646  0.00  0.00    +0.200 C 
BRANCH  26   3
ATOM      3  O   UNL     1      20.150   6.665  25.656  0.00  0.00    -0.380 OA
ATOM     27  C   UNL     1      20.312   7.254  26.939  0.00  0.00    +0.194 C 
ENDBRANCH  26   3
ENDBRANCH  25  26
ENDBRANCH   2  25
ENDBRANCH  22   2
ENDBRANCH  17  20
BRANCH  15  10
ATOM      4  N   UNL     1      12.151   8.359  20.131  0.00  0.00    -0.284 NA
ATOM     10  C   UNL     1      12.997   7.283  19.579  0.00  0.00    +0.146 C 
ATOM     11  C   UNL     1      12.772   7.351  18.056  0.00  0.00    +0.030 C 
ATOM     12  C   UNL     1      11.740   8.451  17.856  0.00  0.00    +0.017 C 
ATOM     13  C   UNL     1      11.038   8.531  19.196  0.00  0.00    +0.085 C 
BRANCH   4  14
ATOM     14  C   UNL     1      11.690   8.089  21.487  0.00  0.00    +0.159 C 
BRANCH  14  16
ATOM      6  N   UNL     1      12.819   9.987  22.670  0.00  0.00    -0.347 N 
ATOM      7  N   UNL     1      10.604   9.932  22.825  0.00  0.00    -0.239 NA
ATOM     16  C   UNL     1      11.666   9.336  22.330  0.00  0.00    +0.121 A 
ATOM     18  C   UNL     1      12.470  11.068  23.429  0.00  0.00    +0.104 A 
ATOM     19  C   UNL     1      11.099  11.012  23.512  0.00  0.00    +0.130 A 
ATOM     28  H   UNL     1      13.759   9.722  22.407  0.00  0.00    +0.167 HD
ENDBRANCH  14  16
ENDBRANCH   4  14
ENDBRANCH  15  10
TORSDOF 8
ENDMDL
MODEL 8
REMARK VINA RESULT:      -6.2     27.497     29.571
REMARK  Name = 45783461
REMARK  9 active torsions:
REMARK  status: ('A' for Active; 'I' for Inactive)
REMARK    1  A    between atoms: O_2  and  C_22
REMARK    2  A    between atoms: O_2  and  C_25
REMARK    3  A    between atoms: O_3  and  C_26
REMARK    4  A    between atoms: O_3  and  C_27
REMARK    5  A    between atoms: N_4  and  C_14
REMARK    6  A    between atoms: C_10  and  C_15
REMARK    7  A    between atoms: C_14  and  C_16
REMARK    8  A    between atoms: C_17  and  C_20
REMARK    9  A    between atoms: C_25  and  C_26
REMARK                            x       y       z     vdW  Elec       q    Type
REMARK                         _______ _______ _______ _____ _____    ______ ____
ROOT
ATOM      1  O   UNL     1      -4.338 -12.162  16.613  0.00  0.00    -0.336 OA
ATOM      5  N   UNL     1      -4.775 -10.220  15.587  0.00  0.00    -0.189 NA
ATOM      8  N   UNL     1      -3.725 -12.239  15.357  0.00  0.00    -0.054 NA
ATOM     15  C   UNL     1      -4.933 -10.942  16.668  0.00  0.00    +0.245 A 
ATOM     17  C   UNL     1      -4.026 -11.057  14.811  0.00  0.00    +0.221 A 
ENDROOT
BRANCH  17  20
ATOM      9  N   UNL     1      -2.275 -10.810  13.251  0.00  0.00    -0.252 NA
ATOM     20  C   UNL     1      -3.599 -10.682  13.495  0.00  0.00    +0.115 A 
ATOM     21  C   UNL     1      -4.518 -10.224  12.565  0.00  0.00    +0.077 A 
ATOM     22  C   UNL     1      -4.048  -9.874  11.304  0.00  0.00    +0.124 A 
ATOM     23  C   UNL     1      -1.856 -10.460  12.014  0.00  0.00    +0.115 A 
ATOM     24  C   UNL     1      -2.694  -9.991  11.014  0.00  0.00    +0.065 A 
BRANCH  22   2
ATOM      2  O   UNL     1      -4.912  -9.419  10.356  0.00  0.00    -0.490 OA
BRANCH   2  25
ATOM     25  C   UNL     1      -4.377  -9.164   9.057  0.00  0.00    +0.257 C 
BRANCH  25  26
ATOM     26  C   UNL     1      -5.237  -9.863   8.022  0.00  0.00    +0.200 C 
BRANCH  26   3
ATOM      3  O   UNL     1      -4.584 -11.055   7.604  0.00  0.00    -0.380 OA
ATOM     27  C   UNL     1      -4.874 -11.359   6.247  0.00  0.00    +0.194 C 
ENDBRANCH  26   3
ENDBRANCH  25  26
ENDBRANCH   2  25
ENDBRANCH  22   2
ENDBRANCH  17  20
BRANCH  15  10
ATOM      4  N   UNL     1      -7.139 -10.588  17.762  0.00  0.00    -0.284 NA
ATOM     10  C   UNL     1      -5.674 -10.609  17.945  0.00  0.00    +0.146 C 
ATOM     11  C   UNL     1      -5.434 -11.647  19.059  0.00  0.00    +0.030 C 
ATOM     12  C   UNL     1      -6.823 -12.106  19.480  0.00  0.00    +0.017 C 
ATOM     13  C   UNL     1      -7.722 -10.964  19.050  0.00  0.00    +0.085 C 
BRANCH   4  14
ATOM     14  C   UNL     1      -7.639  -9.303  17.288  0.00  0.00    +0.159 C 
BRANCH  14  16
ATOM      6  N   UNL     1      -7.654  -9.554  14.795  0.00  0.00    -0.347 N 
ATOM      7  N   UNL     1      -9.648  -9.442  15.768  0.00  0.00    -0.239 NA
ATOM     16  C   UNL     1      -8.349  -9.431  15.967  0.00  0.00    +0.121 A 
ATOM     18  C   UNL     1      -8.569  -9.649  13.785  0.00  0.00    +0.104 A 
ATOM     19  C   UNL     1      -9.791  -9.576  14.409  0.00  0.00    +0.130 A 
ATOM     28  H   UNL     1      -6.648  -9.574  14.693  0.00  0.00    +0.167 HD
ENDBRANCH  14  16
ENDBRANCH   4  14
ENDBRANCH  15  10
TORSDOF 8
ENDMDL
MODEL 9
REMARK VINA RESULT:      -6.1     16.528     19.690
REMARK  Name = 45783461
REMARK  9 active torsions:
REMARK  status: ('A' for Active; 'I' for Inactive)
REMARK    1  A    between atoms: O_2  and  C_22
REMARK    2  A    between atoms: O_2  and  C_25
REMARK    3  A    between atoms: O_3  and  C_26
REMARK    4  A    between atoms: O_3  and  C_27
REMARK    5  A    between atoms: N_4  and  C_14
REMARK    6  A    between atoms: C_10  and  C_15
REMARK    7  A    between atoms: C_14  and  C_16
REMARK    8  A    between atoms: C_17  and  C_20
REMARK    9  A    between atoms: C_25  and  C_26
REMARK                            x       y       z     vdW  Elec       q    Type
REMARK                         _______ _______ _______ _____ _____    ______ ____
ROOT
ATOM      1  O   UNL     1      11.387   6.881   4.001  0.00  0.00    -0.336 OA
ATOM      5  N   UNL     1      10.904   4.738   3.567  0.00  0.00    -0.189 NA
ATOM      8  N   UNL     1      11.952   6.599   2.752  0.00  0.00    -0.054 NA
ATOM     15  C   UNL     1      10.789   5.733   4.411  0.00  0.00    +0.245 A 
ATOM     17  C   UNL     1      11.624   5.318   2.565  0.00  0.00    +0.221 A 
ENDROOT
BRANCH  17  20
ATOM      9  N   UNL     1      13.293   4.185   1.341  0.00  0.00    -0.252 NA
ATOM     20  C   UNL     1      12.003   4.587   1.390  0.00  0.00    +0.115 A 
ATOM     21  C   UNL     1      11.073   4.332   0.395  0.00  0.00    +0.077 A 
ATOM     22  C   UNL     1      11.495   3.619  -0.722  0.00  0.00    +0.124 A 
ATOM     23  C   UNL     1      13.665   3.495   0.240  0.00  0.00    +0.115 A 
ATOM     24  C   UNL     1      12.814   3.189  -0.809  0.00  0.00    +0.065 A 
BRANCH  22   2
ATOM      2  O   UNL     1      10.619   3.343  -1.726  0.00  0.00    -0.490 OA
BRANCH   2  25
ATOM     25  C   UNL     1      11.027   2.382  -2.699  0.00  0.00    +0.257 C 
BRANCH  25  26
ATOM     26  C   UNL     1      11.099   3.052  -4.057  0.00  0.00    +0.200 C 
BRANCH  26   3
ATOM      3  O   UNL     1      12.462   3.271  -4.396  0.00  0.00    -0.380 OA
ATOM     27  C   UNL     1      12.814   4.642  -4.282  0.00  0.00    +0.194 C 
ENDBRANCH  26   3
ENDBRANCH  25  26
ENDBRANCH   2  25
ENDBRANCH  22   2
ENDBRANCH  17  20
BRANCH  15  10
ATOM      4  N   UNL     1      10.565   6.890   6.602  0.00  0.00    -0.284 NA
ATOM     10  C   UNL     1      10.093   5.777   5.756  0.00  0.00    +0.146 C 
ATOM     11  C   UNL     1       8.573   5.997   5.631  0.00  0.00    +0.030 C 
ATOM     12  C   UNL     1       8.278   7.218   6.490  0.00  0.00    +0.017 C 
ATOM     13  C   UNL     1       9.440   7.263   7.460  0.00  0.00    +0.085 C 
BRANCH   4  14
ATOM     14  C   UNL     1      11.757   6.559   7.373  0.00  0.00    +0.159 C 
BRANCH  14  16
ATOM      6  N   UNL     1      13.919   6.676   6.111  0.00  0.00    -0.347 N 
ATOM      7  N   UNL     1      13.267   8.561   7.089  0.00  0.00    -0.239 NA
ATOM     16  C   UNL     1      12.970   7.298   6.874  0.00  0.00    +0.121 A 
ATOM     18  C   UNL     1      14.882   7.600   5.821  0.00  0.00    +0.104 A 
ATOM     19  C   UNL     1      14.459   8.755   6.435  0.00  0.00    +0.130 A 
ATOM     28  H   UNL     1      13.911   5.709   5.813  0.00  0.00    +0.167 HD
ENDBRANCH  14  16
ENDBRANCH   4  14
ENDBRANCH  15  10
TORSDOF 8
ENDMDL
MODEL 10
REMARK VINA RESULT:      -6.0     26.659     29.384
REMARK  Name = 45783461
REMARK  9 active torsions:
REMARK  status: ('A' for Active; 'I' for Inactive)
REMARK    1  A    between atoms: O_2  and  C_22
REMARK    2  A    between atoms: O_2  and  C_25
REMARK    3  A    between atoms: O_3  and  C_26
REMARK    4  A    between atoms: O_3  and  C_27
REMARK    5  A    between atoms: N_4  and  C_14
REMARK    6  A    between atoms: C_10  and  C_15
REMARK    7  A    between atoms: C_14  and  C_16
REMARK    8  A    between atoms: C_17  and  C_20
REMARK    9  A    between atoms: C_25  and  C_26
REMARK                            x       y       z     vdW  Elec       q    Type
REMARK                         _______ _______ _______ _____ _____    ______ ____
ROOT
ATOM      1  O   UNL     1      -1.755 -10.362  14.553  0.00  0.00    -0.336 OA
ATOM      5  N   UNL     1      -3.892 -11.029  14.619  0.00  0.00    -0.189 NA
ATOM      8  N   UNL     1      -2.124 -10.354  15.903  0.00  0.00    -0.054 NA
ATOM     15  C   UNL     1      -2.852 -10.772  13.864  0.00  0.00    +0.245 A 
ATOM     17  C   UNL     1      -3.397 -10.759  15.861  0.00  0.00    +0.221 A 
ENDROOT
BRANCH  17  20
ATOM      9  N   UNL     1      -3.668 -11.658  18.024  0.00  0.00    -0.252 NA
ATOM     20  C   UNL     1      -4.202 -10.902  17.039  0.00  0.00    +0.115 A 
ATOM     21  C   UNL     1      -5.441 -10.287  17.119  0.00  0.00    +0.077 A 
ATOM     22  C   UNL     1      -6.178 -10.459  18.284  0.00  0.00    +0.124 A 
ATOM     23  C   UNL     1      -4.415 -11.802  19.142  0.00  0.00    +0.115 A 
ATOM     24  C   UNL     1      -5.663 -11.230  19.321  0.00  0.00    +0.065 A 
BRANCH  22   2
ATOM      2  O   UNL     1      -7.401  -9.874  18.411  0.00  0.00    -0.490 OA
BRANCH   2  25
ATOM     25  C   UNL     1      -8.316 -10.039  17.328  0.00  0.00    +0.257 C 
BRANCH  25  26
ATOM     26  C   UNL     1      -8.868  -8.683  16.936  0.00  0.00    +0.200 C 
BRANCH  26   3
ATOM      3  O   UNL     1     -10.255  -8.810  16.648  0.00  0.00    -0.380 OA
ATOM     27  C   UNL     1     -10.573 -10.116  16.186  0.00  0.00    +0.194 C 
ENDBRANCH  26   3
ENDBRANCH  25  26
ENDBRANCH   2  25
ENDBRANCH  22   2
ENDBRANCH  17  20
BRANCH  15  10
ATOM      4  N   UNL     1      -3.839 -10.245  11.642  0.00  0.00    -0.284 NA
ATOM     10  C   UNL     1      -2.709 -10.867  12.360  0.00  0.00    +0.146 C 
ATOM     11  C   UNL     1      -1.460 -10.134  11.834  0.00  0.00    +0.030 C 
ATOM     12  C   UNL     1      -1.982  -9.164  10.783  0.00  0.00    +0.017 C 
ATOM     13  C   UNL     1      -3.307  -9.770  10.365  0.00  0.00    +0.085 C 
BRANCH   4  14
ATOM     14  C   UNL     1      -4.971 -11.145  11.464  0.00  0.00    +0.159 C 
BRANCH  14  16
ATOM      6  N   UNL     1      -6.727 -11.314  13.243  0.00  0.00    -0.347 N 
ATOM      7  N   UNL     1      -6.898  -9.570  11.879  0.00  0.00    -0.239 NA
ATOM     16  C   UNL     1      -6.202 -10.646  12.172  0.00  0.00    +0.121 A 
ATOM     18  C   UNL     1      -7.827 -10.620  13.660  0.00  0.00    +0.104 A 
ATOM     19  C   UNL     1      -7.913  -9.549  12.803  0.00  0.00    +0.130 A 
ATOM     28  H   UNL     1      -6.367 -12.165  13.655  0.00  0.00    +0.167 HD
ENDBRANCH  14  16
ENDBRANCH   4  14
ENDBRANCH  15  10
TORSDOF 8
ENDMDL
