MODEL 1
REMARK VINA RESULT:      -7.9      0.000      0.000
REMARK  Name = 7674709
REMARK  4 active torsions:
REMARK  status: ('A' for Active; 'I' for Inactive)
REMARK    1  A    between atoms: O_7  and  C_31
REMARK    2  A    between atoms: O_7  and  C_32
REMARK    3  A    between atoms: C_19  and  C_22
REMARK    4  A    between atoms: C_20  and  C_23
REMARK                            x       y       z     vdW  Elec       q    Type
REMARK                         _______ _______ _______ _____ _____    ______ ____
ROOT
ATOM      5  O   UNL     1      15.888   6.212  18.504  0.00  0.00    -0.267 OA
ATOM      6  O   UNL     1      14.667  10.793  16.612  0.00  0.00    -0.269 OA
ATOM      8  N   UNL     1      13.189  10.384  18.379  0.00  0.00    -0.296 N 
ATOM      9  N   UNL     1      14.287   7.621  19.445  0.00  0.00    -0.311 N 
ATOM     10  C   UNL     1      12.072   8.165  18.277  0.00  0.00    +0.027 C 
ATOM     11  C   UNL     1      12.586   9.176  20.463  0.00  0.00    +0.054 C 
ATOM     12  C   UNL     1      11.540   8.374  19.691  0.00  0.00    +0.018 C 
ATOM     13  C   UNL     1      12.312   9.521  17.588  0.00  0.00    +0.113 C 
ATOM     14  C   UNL     1      13.351   7.320  18.353  0.00  0.00    +0.130 C 
ATOM     15  C   UNL     1      12.790  10.547  19.786  0.00  0.00    +0.117 C 
ATOM     16  C   UNL     1      13.910   8.437  20.516  0.00  0.00    +0.027 A 
ATOM     17  C   UNL     1      14.734   8.600  21.564  0.00  0.00    +0.022 A 
ATOM     18  C   UNL     1      15.533   6.966  19.411  0.00  0.00    +0.259 A 
ATOM     19  C   UNL     1      14.331  10.930  17.787  0.00  0.00    +0.253 C 
ATOM     20  C   UNL     1      16.454   7.205  20.577  0.00  0.00    +0.047 A 
ATOM     21  C   UNL     1      16.027   7.976  21.588  0.00  0.00    +0.015 A 
ENDROOT
BRANCH  20  23
ATOM     23  C   UNL     1      17.806   6.624  20.613  0.00  0.00    -0.012 A 
ATOM     25  C   UNL     1      18.156   5.612  19.718  0.00  0.00    +0.012 A 
ATOM     26  C   UNL     1      18.739   7.086  21.541  0.00  0.00    +0.012 A 
ATOM     29  C   UNL     1      19.438   5.062  19.753  0.00  0.00    +0.046 A 
ATOM     30  C   UNL     1      20.022   6.536  21.576  0.00  0.00    +0.046 A 
ATOM     31  C   UNL     1      20.369   5.524  20.681  0.00  0.00    +0.130 A 
BRANCH  31   7
ATOM      7  O   UNL     1      21.620   4.986  20.715  0.00  0.00    -0.406 OA
BRANCH   7  32
ATOM      2  F   UNL     1      21.655   3.807  22.675  0.00  0.00    -0.133 F 
ATOM      3  F   UNL     1      23.040   3.268  21.072  0.00  0.00    -0.133 F 
ATOM      4  F   UNL     1      20.915   2.814  20.844  0.00  0.00    -0.133 F 
ATOM     32  C   UNL     1      21.791   3.716  21.335  0.00  0.00    +0.575 C 
ENDBRANCH   7  32
ENDBRANCH  31   7
ENDBRANCH  20  23
BRANCH  19  22
ATOM      1  S   UNL     1      15.122  13.422  18.599  0.00  0.00    -0.092 S 
ATOM     22  C   UNL     1      15.236  11.717  18.632  0.00  0.00    +0.074 A 
ATOM     24  C   UNL     1      16.212  11.272  19.491  0.00  0.00    +0.021 A 
ATOM     27  C   UNL     1      16.882  12.352  20.136  0.00  0.00    +0.008 A 
ATOM     28  C   UNL     1      16.387  13.576  19.743  0.00  0.00    +0.046 A 
ENDBRANCH  19  22
TORSDOF 4
ENDMDL
MODEL 2
REMARK VINA RESULT:      -7.6     16.031     18.448
REMARK  Name = 7674709
REMARK  4 active torsions:
REMARK  status: ('A' for Active; 'I' for Inactive)
REMARK    1  A    between atoms: O_7  and  C_31
REMARK    2  A    between atoms: O_7  and  C_32
REMARK    3  A    between atoms: C_19  and  C_22
REMARK    4  A    between atoms: C_20  and  C_23
REMARK                            x       y       z     vdW  Elec       q    Type
REMARK                         _______ _______ _______ _____ _____    ______ ____
ROOT
ATOM      5  O   UNL     1      10.615   3.964   3.079  0.00  0.00    -0.267 OA
ATOM      6  O   UNL     1      15.347   4.209   1.179  0.00  0.00    -0.269 OA
ATOM      8  N   UNL     1      13.963   5.348  -0.324  0.00  0.00    -0.296 N 
ATOM      9  N   UNL     1      11.191   5.190   1.181  0.00  0.00    -0.311 N 
ATOM     10  C   UNL     1      11.937   4.078  -1.004  0.00  0.00    +0.027 C 
ATOM     11  C   UNL     1      11.845   6.534  -0.846  0.00  0.00    +0.054 C 
ATOM     12  C   UNL     1      11.380   5.333  -1.668  0.00  0.00    +0.018 C 
ATOM     13  C   UNL     1      13.475   4.128  -0.967  0.00  0.00    +0.113 C 
ATOM     14  C   UNL     1      11.328   3.953   0.399  0.00  0.00    +0.130 C 
ATOM     15  C   UNL     1      13.386   6.596  -0.849  0.00  0.00    +0.117 C 
ATOM     16  C   UNL     1      11.345   6.444   0.583  0.00  0.00    +0.027 A 
ATOM     17  C   UNL     1      11.095   7.562   1.283  0.00  0.00    +0.022 A 
ATOM     18  C   UNL     1      10.796   5.050   2.525  0.00  0.00    +0.259 A 
ATOM     19  C   UNL     1      14.865   5.251   0.739  0.00  0.00    +0.253 C 
ATOM     20  C   UNL     1      10.568   6.321   3.299  0.00  0.00    +0.047 A 
ATOM     21  C   UNL     1      10.705   7.495   2.664  0.00  0.00    +0.015 A 
ENDROOT
BRANCH  20  23
ATOM     23  C   UNL     1      10.218   6.292   4.728  0.00  0.00    -0.012 A 
ATOM     25  C   UNL     1      11.224   6.279   5.695  0.00  0.00    +0.012 A 
ATOM     26  C   UNL     1       8.878   6.278   5.118  0.00  0.00    +0.012 A 
ATOM     29  C   UNL     1      10.890   6.252   7.049  0.00  0.00    +0.046 A 
ATOM     30  C   UNL     1       8.544   6.251   6.472  0.00  0.00    +0.046 A 
ATOM     31  C   UNL     1       9.552   6.238   7.437  0.00  0.00    +0.130 A 
BRANCH  31   7
ATOM      7  O   UNL     1       9.227   6.211   8.759  0.00  0.00    -0.406 OA
BRANCH   7  32
ATOM      2  F   UNL     1       9.515   3.946   8.621  0.00  0.00    -0.133 F 
ATOM      3  F   UNL     1       8.304   4.779  10.240  0.00  0.00    -0.133 F 
ATOM      4  F   UNL     1      10.472   5.044  10.283  0.00  0.00    -0.133 F 
ATOM     32  C   UNL     1       9.396   4.989   9.470  0.00  0.00    +0.575 C 
ENDBRANCH   7  32
ENDBRANCH  31   7
ENDBRANCH  20  23
BRANCH  19  22
ATOM      1  S   UNL     1      16.600   7.367   0.814  0.00  0.00    -0.092 S 
ATOM     22  C   UNL     1      15.265   6.488   1.418  0.00  0.00    +0.074 A 
ATOM     24  C   UNL     1      14.703   7.079   2.523  0.00  0.00    +0.021 A 
ATOM     27  C   UNL     1      15.381   8.280   2.884  0.00  0.00    +0.008 A 
ATOM     28  C   UNL     1      16.432   8.555   2.037  0.00  0.00    +0.046 A 
ENDBRANCH  19  22
TORSDOF 4
ENDMDL
MODEL 3
REMARK VINA RESULT:      -7.6     28.054     30.130
REMARK  Name = 7674709
REMARK  4 active torsions:
REMARK  status: ('A' for Active; 'I' for Inactive)
REMARK    1  A    between atoms: O_7  and  C_31
REMARK    2  A    between atoms: O_7  and  C_32
REMARK    3  A    between atoms: C_19  and  C_22
REMARK    4  A    between atoms: C_20  and  C_23
REMARK                            x       y       z     vdW  Elec       q    Type
REMARK                         _______ _______ _______ _____ _____    ______ ____
ROOT
ATOM      5  O   UNL     1     -13.148  10.021  20.479  0.00  0.00    -0.267 OA
ATOM      6  O   UNL     1     -14.431  11.851  15.889  0.00  0.00    -0.269 OA
ATOM      8  N   UNL     1     -12.095  11.717  15.927  0.00  0.00    -0.296 N 
ATOM      9  N   UNL     1     -11.620  10.406  18.761  0.00  0.00    -0.311 N 
ATOM     10  C   UNL     1     -11.049  12.761  17.926  0.00  0.00    +0.027 C 
ATOM     11  C   UNL     1      -9.993  10.798  16.878  0.00  0.00    +0.054 C 
ATOM     12  C   UNL     1      -9.708  12.145  17.539  0.00  0.00    +0.018 C 
ATOM     13  C   UNL     1     -11.927  12.961  16.678  0.00  0.00    +0.113 C 
ATOM     14  C   UNL     1     -11.721  11.858  18.969  0.00  0.00    +0.130 C 
ATOM     15  C   UNL     1     -10.842  11.015  15.607  0.00  0.00    +0.117 C 
ATOM     16  C   UNL     1     -10.730   9.871  17.825  0.00  0.00    +0.027 A 
ATOM     17  C   UNL     1     -10.562   8.541  17.737  0.00  0.00    +0.022 A 
ATOM     18  C   UNL     1     -12.380   9.588  19.619  0.00  0.00    +0.259 A 
ATOM     19  C   UNL     1     -13.382  11.266  15.622  0.00  0.00    +0.253 C 
ATOM     20  C   UNL     1     -12.206   8.102  19.464  0.00  0.00    +0.047 A 
ATOM     21  C   UNL     1     -11.318   7.646  18.568  0.00  0.00    +0.015 A 
ENDROOT
BRANCH  20  23
ATOM     23  C   UNL     1     -13.000   7.153  20.263  0.00  0.00    -0.012 A 
ATOM     25  C   UNL     1     -14.379   7.058  20.068  0.00  0.00    +0.012 A 
ATOM     26  C   UNL     1     -12.374   6.348  21.215  0.00  0.00    +0.012 A 
ATOM     29  C   UNL     1     -15.130   6.159  20.824  0.00  0.00    +0.046 A 
ATOM     30  C   UNL     1     -13.126   5.449  21.972  0.00  0.00    +0.046 A 
ATOM     31  C   UNL     1     -14.504   5.355  21.776  0.00  0.00    +0.130 A 
BRANCH  31   7
ATOM      7  O   UNL     1     -15.238   4.478  22.515  0.00  0.00    -0.406 OA
BRANCH   7  32
ATOM      2  F   UNL     1     -15.331   4.328  24.796  0.00  0.00    -0.133 F 
ATOM      3  F   UNL     1     -17.170   4.678  23.666  0.00  0.00    -0.133 F 
ATOM      4  F   UNL     1     -15.700   6.286  23.839  0.00  0.00    -0.133 F 
ATOM     32  C   UNL     1     -15.846   4.950  23.713  0.00  0.00    +0.575 C 
ENDBRANCH   7  32
ENDBRANCH  31   7
ENDBRANCH  20  23
BRANCH  19  22
ATOM      1  S   UNL     1     -13.574   9.933  13.239  0.00  0.00    -0.092 S 
ATOM     22  C   UNL     1     -13.517   9.971  14.947  0.00  0.00    +0.074 A 
ATOM     24  C   UNL     1     -13.609   8.719  15.504  0.00  0.00    +0.021 A 
ATOM     27  C   UNL     1     -13.730   7.705  14.510  0.00  0.00    +0.008 A 
ATOM     28  C   UNL     1     -13.723   8.226  13.235  0.00  0.00    +0.046 A 
ENDBRANCH  19  22
TORSDOF 4
ENDMDL
MODEL 4
REMARK VINA RESULT:      -7.5      5.062      9.459
REMARK  Name = 7674709
REMARK  4 active torsions:
REMARK  status: ('A' for Active; 'I' for Inactive)
REMARK    1  A    between atoms: O_7  and  C_31
REMARK    2  A    between atoms: O_7  and  C_32
REMARK    3  A    between atoms: C_19  and  C_22
REMARK    4  A    between atoms: C_20  and  C_23
REMARK                            x       y       z     vdW  Elec       q    Type
REMARK                         _______ _______ _______ _____ _____    ______ ____
ROOT
ATOM      5  O   UNL     1      20.161   3.817  20.493  0.00  0.00    -0.267 OA
ATOM      6  O   UNL     1      22.493   3.698  25.033  0.00  0.00    -0.269 OA
ATOM      8  N   UNL     1      23.942   4.801  23.565  0.00  0.00    -0.296 N 
ATOM      9  N   UNL     1      22.186   4.883  20.942  0.00  0.00    -0.311 N 
ATOM     10  C   UNL     1      24.344   3.591  21.431  0.00  0.00    +0.027 C 
ATOM     11  C   UNL     1      24.355   6.053  21.461  0.00  0.00    +0.054 C 
ATOM     12  C   UNL     1      25.043   4.825  20.869  0.00  0.00    +0.018 C 
ATOM     13  C   UNL     1      24.450   3.567  22.966  0.00  0.00    +0.113 C 
ATOM     14  C   UNL     1      22.886   3.591  20.951  0.00  0.00    +0.130 C 
ATOM     15  C   UNL     1      24.501   6.038  22.997  0.00  0.00    +0.117 C 
ATOM     16  C   UNL     1      22.884   6.084  21.094  0.00  0.00    +0.027 A 
ATOM     17  C   UNL     1      22.245   7.258  20.958  0.00  0.00    +0.022 A 
ATOM     18  C   UNL     1      20.805   4.853  20.668  0.00  0.00    +0.259 A 
ATOM     19  C   UNL     1      22.961   4.731  24.557  0.00  0.00    +0.253 C 
ATOM     20  C   UNL     1      20.107   6.183  20.569  0.00  0.00    +0.047 A 
ATOM     21  C   UNL     1      20.834   7.303  20.697  0.00  0.00    +0.015 A 
ENDROOT
BRANCH  20  23
ATOM     23  C   UNL     1      18.653   6.267  20.353  0.00  0.00    -0.012 A 
ATOM     25  C   UNL     1      18.096   5.807  19.160  0.00  0.00    +0.012 A 
ATOM     26  C   UNL     1      17.831   6.808  21.343  0.00  0.00    +0.012 A 
ATOM     29  C   UNL     1      16.718   5.888  18.956  0.00  0.00    +0.046 A 
ATOM     30  C   UNL     1      16.453   6.888  21.139  0.00  0.00    +0.046 A 
ATOM     31  C   UNL     1      15.898   6.428  19.945  0.00  0.00    +0.130 A 
BRANCH  31   7
ATOM      7  O   UNL     1      14.553   6.507  19.745  0.00  0.00    -0.406 OA
BRANCH   7  32
ATOM      2  F   UNL     1      13.230   7.372  18.092  0.00  0.00    -0.133 F 
ATOM      3  F   UNL     1      15.059   8.423  18.665  0.00  0.00    -0.133 F 
ATOM      4  F   UNL     1      13.351   8.433  20.027  0.00  0.00    -0.133 F 
ATOM     32  C   UNL     1      14.030   7.682  19.134  0.00  0.00    +0.575 C 
ENDBRANCH   7  32
ENDBRANCH  31   7
ENDBRANCH  20  23
BRANCH  19  22
ATOM      1  S   UNL     1      23.092   6.672  26.483  0.00  0.00    -0.092 S 
ATOM     22  C   UNL     1      22.411   5.989  25.072  0.00  0.00    +0.074 A 
ATOM     24  C   UNL     1      21.378   6.742  24.570  0.00  0.00    +0.021 A 
ATOM     27  C   UNL     1      21.138   7.905  25.358  0.00  0.00    +0.008 A 
ATOM     28  C   UNL     1      22.000   7.991  26.429  0.00  0.00    +0.046 A 
ENDBRANCH  19  22
TORSDOF 4
ENDMDL
MODEL 5
REMARK VINA RESULT:      -7.5     16.161     18.687
REMARK  Name = 7674709
REMARK  4 active torsions:
REMARK  status: ('A' for Active; 'I' for Inactive)
REMARK    1  A    between atoms: O_7  and  C_31
REMARK    2  A    between atoms: O_7  and  C_32
REMARK    3  A    between atoms: C_19  and  C_22
REMARK    4  A    between atoms: C_20  and  C_23
REMARK                            x       y       z     vdW  Elec       q    Type
REMARK                         _______ _______ _______ _____ _____    ______ ____
ROOT
ATOM      5  O   UNL     1       8.666   7.204   3.601  0.00  0.00    -0.267 OA
ATOM      6  O   UNL     1       9.205   5.079  -1.010  0.00  0.00    -0.269 OA
ATOM      8  N   UNL     1      10.601   6.955  -0.971  0.00  0.00    -0.296 N 
ATOM      9  N   UNL     1      10.202   7.934   2.005  0.00  0.00    -0.311 N 
ATOM     10  C   UNL     1       9.485   9.037  -0.193  0.00  0.00    +0.027 C 
ATOM     11  C   UNL     1      11.876   8.682   0.279  0.00  0.00    +0.054 C 
ATOM     12  C   UNL     1      10.842   9.732  -0.124  0.00  0.00    +0.018 C 
ATOM     13  C   UNL     1       9.517   7.903  -1.233  0.00  0.00    +0.113 C 
ATOM     14  C   UNL     1       9.120   8.529   1.207  0.00  0.00    +0.130 C 
ATOM     15  C   UNL     1      11.926   7.570  -0.790  0.00  0.00    +0.117 C 
ATOM     16  C   UNL     1      11.540   8.073   1.627  0.00  0.00    +0.027 A 
ATOM     17  C   UNL     1      12.519   7.630   2.432  0.00  0.00    +0.022 A 
ATOM     18  C   UNL     1       9.830   7.315   3.215  0.00  0.00    +0.259 A 
ATOM     19  C   UNL     1      10.312   5.593  -0.859  0.00  0.00    +0.253 C 
ATOM     20  C   UNL     1      10.947   6.786   4.074  0.00  0.00    +0.047 A 
ATOM     21  C   UNL     1      12.213   6.973   3.671  0.00  0.00    +0.015 A 
ENDROOT
BRANCH  20  23
ATOM     23  C   UNL     1      10.670   6.062   5.325  0.00  0.00    -0.012 A 
ATOM     25  C   UNL     1      11.061   6.607   6.549  0.00  0.00    +0.012 A 
ATOM     26  C   UNL     1      10.016   4.831   5.288  0.00  0.00    +0.012 A 
ATOM     29  C   UNL     1      10.797   5.920   7.734  0.00  0.00    +0.046 A 
ATOM     30  C   UNL     1       9.752   4.144   6.474  0.00  0.00    +0.046 A 
ATOM     31  C   UNL     1      10.144   4.690   7.697  0.00  0.00    +0.130 A 
BRANCH  31   7
ATOM      7  O   UNL     1       9.888   4.019   8.854  0.00  0.00    -0.406 OA
BRANCH   7  32
ATOM      2  F   UNL     1       8.339   3.965  10.536  0.00  0.00    -0.133 F 
ATOM      3  F   UNL     1       8.643   5.817   9.415  0.00  0.00    -0.133 F 
ATOM      4  F   UNL     1      10.181   5.154  10.818  0.00  0.00    -0.133 F 
ATOM     32  C   UNL     1       9.267   4.729   9.921  0.00  0.00    +0.575 C 
ENDBRANCH   7  32
ENDBRANCH  31   7
ENDBRANCH  20  23
BRANCH  19  22
ATOM      1  S   UNL     1      11.617   4.239   1.129  0.00  0.00    -0.092 S 
ATOM     22  C   UNL     1      11.407   4.683  -0.508  0.00  0.00    +0.074 A 
ATOM     24  C   UNL     1      12.338   4.102  -1.333  0.00  0.00    +0.021 A 
ATOM     27  C   UNL     1      13.245   3.275  -0.610  0.00  0.00    +0.008 A 
ATOM     28  C   UNL     1      12.966   3.258   0.739  0.00  0.00    +0.046 A 
ENDBRANCH  19  22
TORSDOF 4
ENDMDL
MODEL 6
REMARK VINA RESULT:      -7.4     28.277     31.080
REMARK  Name = 7674709
REMARK  4 active torsions:
REMARK  status: ('A' for Active; 'I' for Inactive)
REMARK    1  A    between atoms: O_7  and  C_31
REMARK    2  A    between atoms: O_7  and  C_32
REMARK    3  A    between atoms: C_19  and  C_22
REMARK    4  A    between atoms: C_20  and  C_23
REMARK                            x       y       z     vdW  Elec       q    Type
REMARK                         _______ _______ _______ _____ _____    ______ ____
ROOT
ATOM      5  O   UNL     1      -6.672 -10.048  14.084  0.00  0.00    -0.267 OA
ATOM      6  O   UNL     1      -4.489 -14.354  12.425  0.00  0.00    -0.269 OA
ATOM      8  N   UNL     1      -2.766 -13.009  13.260  0.00  0.00    -0.296 N 
ATOM      9  N   UNL     1      -4.411 -10.547  14.359  0.00  0.00    -0.311 N 
ATOM     10  C   UNL     1      -2.780 -10.680  12.387  0.00  0.00    +0.027 C 
ATOM     11  C   UNL     1      -1.980 -11.125  14.673  0.00  0.00    +0.054 C 
ATOM     12  C   UNL     1      -1.723 -10.294  13.417  0.00  0.00    +0.018 C 
ATOM     13  C   UNL     1      -2.682 -12.181  12.057  0.00  0.00    +0.113 C 
ATOM     14  C   UNL     1      -4.162 -10.296  12.932  0.00  0.00    +0.130 C 
ATOM     15  C   UNL     1      -1.841 -12.625  14.338  0.00  0.00    +0.117 C 
ATOM     16  C   UNL     1      -3.364 -10.857  15.232  0.00  0.00    +0.027 A 
ATOM     17  C   UNL     1      -3.593 -10.961  16.551  0.00  0.00    +0.022 A 
ATOM     18  C   UNL     1      -5.729 -10.356  14.815  0.00  0.00    +0.259 A 
ATOM     19  C   UNL     1      -3.715 -14.032  13.326  0.00  0.00    +0.253 C 
ATOM     20  C   UNL     1      -5.964 -10.525  16.292  0.00  0.00    +0.047 A 
ATOM     21  C   UNL     1      -4.916 -10.796  17.085  0.00  0.00    +0.015 A 
ENDROOT
BRANCH  20  23
ATOM     23  C   UNL     1      -7.315 -10.414  16.868  0.00  0.00    -0.012 A 
ATOM     25  C   UNL     1      -8.042 -11.565  17.171  0.00  0.00    +0.012 A 
ATOM     26  C   UNL     1      -7.868  -9.156  17.110  0.00  0.00    +0.012 A 
ATOM     29  C   UNL     1      -9.321 -11.458  17.717  0.00  0.00    +0.046 A 
ATOM     30  C   UNL     1      -9.148  -9.050  17.656  0.00  0.00    +0.046 A 
ATOM     31  C   UNL     1      -9.874 -10.202  17.959  0.00  0.00    +0.130 A 
BRANCH  31   7
ATOM      7  O   UNL     1     -11.123 -10.098  18.491  0.00  0.00    -0.406 OA
BRANCH   7  32
ATOM      2  F   UNL     1     -10.115 -10.199  20.541  0.00  0.00    -0.133 F 
ATOM      3  F   UNL     1     -11.707 -11.616  20.056  0.00  0.00    -0.133 F 
ATOM      4  F   UNL     1     -12.215  -9.522  20.416  0.00  0.00    -0.133 F 
ATOM     32  C   UNL     1     -11.285 -10.343  19.884  0.00  0.00    +0.575 C 
ENDBRANCH   7  32
ENDBRANCH  31   7
ENDBRANCH  20  23
BRANCH  19  22
ATOM      1  S   UNL     1      -2.913 -16.212  14.774  0.00  0.00    -0.092 S 
ATOM     22  C   UNL     1      -3.832 -14.784  14.579  0.00  0.00    +0.074 A 
ATOM     24  C   UNL     1      -4.606 -14.503  15.679  0.00  0.00    +0.021 A 
ATOM     27  C   UNL     1      -4.444 -15.480  16.704  0.00  0.00    +0.008 A 
ATOM     28  C   UNL     1      -3.551 -16.465  16.344  0.00  0.00    +0.046 A 
ENDBRANCH  19  22
TORSDOF 4
ENDMDL
MODEL 7
REMARK VINA RESULT:      -7.3     23.127     24.586
REMARK  Name = 7674709
REMARK  4 active torsions:
REMARK  status: ('A' for Active; 'I' for Inactive)
REMARK    1  A    between atoms: O_7  and  C_31
REMARK    2  A    between atoms: O_7  and  C_32
REMARK    3  A    between atoms: C_19  and  C_22
REMARK    4  A    between atoms: C_20  and  C_23
REMARK                            x       y       z     vdW  Elec       q    Type
REMARK                         _______ _______ _______ _____ _____    ______ ____
ROOT
ATOM      5  O   UNL     1       9.517  -9.427  32.457  0.00  0.00    -0.267 OA
ATOM      6  O   UNL     1       8.939  -8.246  37.390  0.00  0.00    -0.269 OA
ATOM      8  N   UNL     1       8.430  -6.312  36.175  0.00  0.00    -0.296 N 
ATOM      9  N   UNL     1       8.691  -7.382  33.215  0.00  0.00    -0.311 N 
ATOM     10  C   UNL     1      10.144  -5.694  34.483  0.00  0.00    +0.027 C 
ATOM     11  C   UNL     1       7.771  -5.194  34.058  0.00  0.00    +0.054 C 
ATOM     12  C   UNL     1       9.191  -4.653  33.905  0.00  0.00    +0.018 C 
ATOM     13  C   UNL     1       9.831  -5.942  35.969  0.00  0.00    +0.113 C 
ATOM     14  C   UNL     1      10.037  -6.976  33.647  0.00  0.00    +0.130 C 
ATOM     15  C   UNL     1       7.454  -5.402  35.554  0.00  0.00    +0.117 C 
ATOM     16  C   UNL     1       7.605  -6.508  33.319  0.00  0.00    +0.027 A 
ATOM     17  C   UNL     1       6.412  -6.851  32.806  0.00  0.00    +0.022 A 
ATOM     18  C   UNL     1       8.577  -8.643  32.599  0.00  0.00    +0.259 A 
ATOM     19  C   UNL     1       8.124  -7.484  36.871  0.00  0.00    +0.253 C 
ATOM     20  C   UNL     1       7.217  -9.019  32.077  0.00  0.00    +0.047 A 
ATOM     21  C   UNL     1       6.218  -8.129  32.181  0.00  0.00    +0.015 A 
ENDROOT
BRANCH  20  23
ATOM     23  C   UNL     1       6.968 -10.339  31.475  0.00  0.00    -0.012 A 
ATOM     25  C   UNL     1       7.211 -10.546  30.117  0.00  0.00    +0.012 A 
ATOM     26  C   UNL     1       6.489 -11.386  32.264  0.00  0.00    +0.012 A 
ATOM     29  C   UNL     1       6.975 -11.797  29.549  0.00  0.00    +0.046 A 
ATOM     30  C   UNL     1       6.253 -12.638  31.695  0.00  0.00    +0.046 A 
ATOM     31  C   UNL     1       6.496 -12.842  30.337  0.00  0.00    +0.130 A 
BRANCH  31   7
ATOM      7  O   UNL     1       6.265 -14.064  29.782  0.00  0.00    -0.406 OA
BRANCH   7  32
ATOM      2  F   UNL     1       4.443 -15.266  30.465  0.00  0.00    -0.133 F 
ATOM      3  F   UNL     1       4.879 -15.095  28.329  0.00  0.00    -0.133 F 
ATOM      4  F   UNL     1       4.124 -13.351  29.408  0.00  0.00    -0.133 F 
ATOM     32  C   UNL     1       4.919 -14.438  29.510  0.00  0.00    +0.575 C 
ENDBRANCH   7  32
ENDBRANCH  31   7
ENDBRANCH  20  23
BRANCH  19  22
ATOM      1  S   UNL     1       5.812  -7.331  38.329  0.00  0.00    -0.092 S 
ATOM     22  C   UNL     1       6.714  -7.871  36.981  0.00  0.00    +0.074 A 
ATOM     24  C   UNL     1       5.966  -8.642  36.124  0.00  0.00    +0.021 A 
ATOM     27  C   UNL     1       4.625  -8.793  36.581  0.00  0.00    +0.008 A 
ATOM     28  C   UNL     1       4.405  -8.130  37.768  0.00  0.00    +0.046 A 
ENDBRANCH  19  22
TORSDOF 4
ENDMDL
MODEL 8
REMARK VINA RESULT:      -7.2     28.719     31.022
REMARK  Name = 7674709
REMARK  4 active torsions:
REMARK  status: ('A' for Active; 'I' for Inactive)
REMARK    1  A    between atoms: O_7  and  C_31
REMARK    2  A    between atoms: O_7  and  C_32
REMARK    3  A    between atoms: C_19  and  C_22
REMARK    4  A    between atoms: C_20  and  C_23
REMARK                            x       y       z     vdW  Elec       q    Type
REMARK                         _______ _______ _______ _____ _____    ______ ____
ROOT
ATOM      5  O   UNL     1      -6.808 -13.247  15.139  0.00  0.00    -0.267 OA
ATOM      6  O   UNL     1     -11.508 -11.901  16.609  0.00  0.00    -0.269 OA
ATOM      8  N   UNL     1     -10.123 -11.642  18.477  0.00  0.00    -0.296 N 
ATOM      9  N   UNL     1      -7.308 -12.357  17.235  0.00  0.00    -0.311 N 
ATOM     10  C   UNL     1      -8.703 -13.622  18.972  0.00  0.00    +0.027 C 
ATOM     11  C   UNL     1      -7.868 -11.362  19.480  0.00  0.00    +0.054 C 
ATOM     12  C   UNL     1      -7.921 -12.800  19.992  0.00  0.00    +0.018 C 
ATOM     13  C   UNL     1     -10.129 -13.065  18.815  0.00  0.00    +0.113 C 
ATOM     14  C   UNL     1      -7.932 -13.623  17.646  0.00  0.00    +0.130 C 
ATOM     15  C   UNL     1      -9.301 -10.801  19.363  0.00  0.00    +0.117 C 
ATOM     16  C   UNL     1      -7.185 -11.288  18.128  0.00  0.00    +0.027 A 
ATOM     17  C   UNL     1      -6.503 -10.187  17.773  0.00  0.00    +0.022 A 
ATOM     18  C   UNL     1      -6.752 -12.315  15.942  0.00  0.00    +0.259 A 
ATOM     19  C   UNL     1     -10.822 -11.199  17.351  0.00  0.00    +0.253 C 
ATOM     20  C   UNL     1      -6.035 -11.050  15.556  0.00  0.00    +0.047 A 
ATOM     21  C   UNL     1      -5.925 -10.068  16.464  0.00  0.00    +0.015 A 
ENDROOT
BRANCH  20  23
ATOM     23  C   UNL     1      -5.474 -10.872  14.206  0.00  0.00    -0.012 A 
ATOM     25  C   UNL     1      -6.324 -10.726  13.109  0.00  0.00    +0.012 A 
ATOM     26  C   UNL     1      -4.091 -10.848  14.023  0.00  0.00    +0.012 A 
ATOM     29  C   UNL     1      -5.791 -10.557  11.832  0.00  0.00    +0.046 A 
ATOM     30  C   UNL     1      -3.558 -10.679  12.745  0.00  0.00    +0.046 A 
ATOM     31  C   UNL     1      -4.409 -10.534  11.650  0.00  0.00    +0.130 A 
BRANCH  31   7
ATOM      7  O   UNL     1      -3.890 -10.370  10.402  0.00  0.00    -0.406 OA
BRANCH   7  32
ATOM      2  F   UNL     1      -4.245  -8.124  10.651  0.00  0.00    -0.133 F 
ATOM      3  F   UNL     1      -3.787  -8.926   8.670  0.00  0.00    -0.133 F 
ATOM      4  F   UNL     1      -2.207  -8.836  10.176  0.00  0.00    -0.133 F 
ATOM     32  C   UNL     1      -3.526  -9.056   9.990  0.00  0.00    +0.575 C 
ENDBRANCH   7  32
ENDBRANCH  31   7
ENDBRANCH  20  23
BRANCH  19  22
ATOM      1  S   UNL     1      -9.607  -9.315  15.780  0.00  0.00    -0.092 S 
ATOM     22  C   UNL     1     -10.720  -9.782  16.991  0.00  0.00    +0.074 A 
ATOM     24  C   UNL     1     -11.418  -8.714  17.502  0.00  0.00    +0.021 A 
ATOM     27  C   UNL     1     -11.033  -7.487  16.889  0.00  0.00    +0.008 A 
ATOM     28  C   UNL     1     -10.057  -7.669  15.934  0.00  0.00    +0.046 A 
ENDBRANCH  19  22
TORSDOF 4
ENDMDL
MODEL 9
REMARK VINA RESULT:      -7.2     32.087     33.789
REMARK  Name = 7674709
REMARK  4 active torsions:
REMARK  status: ('A' for Active; 'I' for Inactive)
REMARK    1  A    between atoms: O_7  and  C_31
REMARK    2  A    between atoms: O_7  and  C_32
REMARK    3  A    between atoms: C_19  and  C_22
REMARK    4  A    between atoms: C_20  and  C_23
REMARK                            x       y       z     vdW  Elec       q    Type
REMARK                         _______ _______ _______ _____ _____    ______ ____
ROOT
ATOM      5  O   UNL     1     -11.601  -7.570  10.077  0.00  0.00    -0.267 OA
ATOM      6  O   UNL     1     -16.463  -6.017  10.153  0.00  0.00    -0.269 OA
ATOM      8  N   UNL     1     -15.281  -4.583  11.575  0.00  0.00    -0.296 N 
ATOM      9  N   UNL     1     -12.335  -5.655  11.186  0.00  0.00    -0.311 N 
ATOM     10  C   UNL     1     -13.857  -5.753  13.245  0.00  0.00    +0.027 C 
ATOM     11  C   UNL     1     -13.148  -3.572  12.347  0.00  0.00    +0.054 C 
ATOM     12  C   UNL     1     -13.208  -4.423  13.614  0.00  0.00    +0.018 C 
ATOM     13  C   UNL     1     -15.277  -5.521  12.697  0.00  0.00    +0.113 C 
ATOM     14  C   UNL     1     -12.958  -6.476  12.234  0.00  0.00    +0.130 C 
ATOM     15  C   UNL     1     -14.578  -3.315  11.829  0.00  0.00    +0.117 C 
ATOM     16  C   UNL     1     -12.335  -4.259  11.266  0.00  0.00    +0.027 A 
ATOM     17  C   UNL     1     -11.655  -3.531  10.366  0.00  0.00    +0.022 A 
ATOM     18  C   UNL     1     -11.654  -6.342  10.163  0.00  0.00    +0.259 A 
ATOM     19  C   UNL     1     -15.877  -4.957  10.368  0.00  0.00    +0.253 C 
ATOM     20  C   UNL     1     -10.941  -5.499   9.141  0.00  0.00    +0.047 A 
ATOM     21  C   UNL     1     -10.953  -4.164   9.285  0.00  0.00    +0.015 A 
ENDROOT
BRANCH  20  23
ATOM     23  C   UNL     1     -10.253  -6.110   7.992  0.00  0.00    -0.012 A 
ATOM     25  C   UNL     1     -10.987  -6.540   6.886  0.00  0.00    +0.012 A 
ATOM     26  C   UNL     1      -8.866  -6.261   8.009  0.00  0.00    +0.012 A 
ATOM     29  C   UNL     1     -10.334  -7.118   5.798  0.00  0.00    +0.046 A 
ATOM     30  C   UNL     1      -8.213  -6.840   6.920  0.00  0.00    +0.046 A 
ATOM     31  C   UNL     1      -8.949  -7.269   5.815  0.00  0.00    +0.130 A 
BRANCH  31   7
ATOM      7  O   UNL     1      -8.312  -7.835   4.753  0.00  0.00    -0.406 OA
BRANCH   7  32
ATOM      2  F   UNL     1      -8.363  -9.845   5.844  0.00  0.00    -0.133 F 
ATOM      3  F   UNL     1      -6.437  -8.914   5.398  0.00  0.00    -0.133 F 
ATOM      4  F   UNL     1      -7.608  -9.776   3.768  0.00  0.00    -0.133 F 
ATOM     32  C   UNL     1      -7.693  -9.104   4.936  0.00  0.00    +0.575 C 
ENDBRANCH   7  32
ENDBRANCH  31   7
ENDBRANCH  20  23
BRANCH  19  22
ATOM      1  S   UNL     1     -17.079  -2.954   8.941  0.00  0.00    -0.092 S 
ATOM     22  C   UNL     1     -15.783  -4.028   9.237  0.00  0.00    +0.074 A 
ATOM     24  C   UNL     1     -14.762  -3.881   8.330  0.00  0.00    +0.021 A 
ATOM     27  C   UNL     1     -15.047  -2.865   7.371  0.00  0.00    +0.008 A 
ATOM     28  C   UNL     1     -16.274  -2.279   7.588  0.00  0.00    +0.046 A 
ENDBRANCH  19  22
TORSDOF 4
ENDMDL
MODEL 10
REMARK VINA RESULT:      -6.8      5.232      9.706
REMARK  Name = 7674709
REMARK  4 active torsions:
REMARK  status: ('A' for Active; 'I' for Inactive)
REMARK    1  A    between atoms: O_7  and  C_31
REMARK    2  A    between atoms: O_7  and  C_32
REMARK    3  A    between atoms: C_19  and  C_22
REMARK    4  A    between atoms: C_20  and  C_23
REMARK                            x       y       z     vdW  Elec       q    Type
REMARK                         _______ _______ _______ _____ _____    ______ ____
ROOT
ATOM      5  O   UNL     1      21.037   9.048  20.819  0.00  0.00    -0.267 OA
ATOM      6  O   UNL     1      25.148   6.233  19.707  0.00  0.00    -0.269 OA
ATOM      8  N   UNL     1      25.094   6.446  22.036  0.00  0.00    -0.296 N 
ATOM      9  N   UNL     1      22.398   8.045  22.425  0.00  0.00    -0.311 N 
ATOM     10  C   UNL     1      24.817   8.784  22.837  0.00  0.00    +0.027 C 
ATOM     11  C   UNL     1      23.864   6.924  24.139  0.00  0.00    +0.054 C 
ATOM     12  C   UNL     1      24.586   8.265  24.253  0.00  0.00    +0.018 C 
ATOM     13  C   UNL     1      25.676   7.789  22.036  0.00  0.00    +0.113 C 
ATOM     14  C   UNL     1      23.455   9.036  22.177  0.00  0.00    +0.130 C 
ATOM     15  C   UNL     1      24.750   5.923  23.368  0.00  0.00    +0.117 C 
ATOM     16  C   UNL     1      22.535   7.078  23.425  0.00  0.00    +0.027 A 
ATOM     17  C   UNL     1      21.510   6.262  23.719  0.00  0.00    +0.022 A 
ATOM     18  C   UNL     1      21.210   8.187  21.683  0.00  0.00    +0.259 A 
ATOM     19  C   UNL     1      24.862   5.797  20.821  0.00  0.00    +0.253 C 
ATOM     20  C   UNL     1      20.096   7.228  22.003  0.00  0.00    +0.047 A 
ATOM     21  C   UNL     1      20.275   6.338  22.991  0.00  0.00    +0.015 A 
ENDROOT
BRANCH  20  23
ATOM     23  C   UNL     1      18.834   7.242  21.244  0.00  0.00    -0.012 A 
ATOM     25  C   UNL     1      17.931   8.293  21.408  0.00  0.00    +0.012 A 
ATOM     26  C   UNL     1      18.541   6.205  20.358  0.00  0.00    +0.012 A 
ATOM     29  C   UNL     1      16.737   8.307  20.688  0.00  0.00    +0.046 A 
ATOM     30  C   UNL     1      17.346   6.218  19.638  0.00  0.00    +0.046 A 
ATOM     31  C   UNL     1      16.445   7.270  19.804  0.00  0.00    +0.130 A 
BRANCH  31   7
ATOM      7  O   UNL     1      15.278   7.282  19.102  0.00  0.00    -0.406 OA
BRANCH   7  32
ATOM      2  F   UNL     1      13.103   6.585  18.987  0.00  0.00    -0.133 F 
ATOM      3  F   UNL     1      13.633   8.235  20.320  0.00  0.00    -0.133 F 
ATOM      4  F   UNL     1      14.249   6.203  20.837  0.00  0.00    -0.133 F 
ATOM     32  C   UNL     1      14.063   7.058  19.809  0.00  0.00    +0.575 C 
ENDBRANCH   7  32
ENDBRANCH  31   7
ENDBRANCH  20  23
BRANCH  19  22
ATOM      1  S   UNL     1      25.147   3.076  20.733  0.00  0.00    -0.092 S 
ATOM     22  C   UNL     1      24.196   4.491  20.853  0.00  0.00    +0.074 A 
ATOM     24  C   UNL     1      22.855   4.214  20.972  0.00  0.00    +0.021 A 
ATOM     27  C   UNL     1      22.601   2.812  20.964  0.00  0.00    +0.008 A 
ATOM     28  C   UNL     1      23.759   2.077  20.840  0.00  0.00    +0.046 A 
ENDBRANCH  19  22
TORSDOF 4
ENDMDL
