REMARK  Name = 71693828
REMARK  6 active torsions:
REMARK  status: ('A' for Active; 'I' for Inactive)
REMARK    1  A    between atoms: O_1  and  C_6
REMARK    2  A    between atoms: O_2  and  C_8
REMARK    3  A    between atoms: N_3  and  C_4
REMARK    4  A    between atoms: N_3  and  C_10
REMARK    5  A    between atoms: C_5  and  C_15
REMARK    6  A    between atoms: C_9  and  C_10
REMARK                            x       y       z     vdW  Elec       q    Type
REMARK                         _______ _______ _______ _____ _____    ______ ____
ROOT
ATOM      4  C   UNL     1      -0.389  -1.032  -0.659  0.00  0.00    +0.092 C 
ATOM      5  C   UNL     1      -1.013  -0.359   0.603  0.00  0.00    +0.041 C 
ATOM      6  C   UNL     1      -1.040  -2.422  -0.736  0.00  0.00    +0.160 C 
ATOM      7  C   UNL     1      -1.979  -1.401   1.200  0.00  0.00    +0.043 C 
ATOM      8  C   UNL     1      -1.424  -2.729   0.708  0.00  0.00    +0.145 C 
ENDROOT
BRANCH   5  15
ATOM     15  C   UNL     1      -1.671   0.976   0.329  0.00  0.00    -0.043 A 
ATOM     16  C   UNL     1      -2.263   1.222  -0.910  0.00  0.00    +0.004 A 
ATOM     17  C   UNL     1      -1.685   1.962   1.316  0.00  0.00    +0.004 A 
ATOM     18  C   UNL     1      -2.869   2.453  -1.161  0.00  0.00    +0.000 A 
ATOM     19  C   UNL     1      -2.291   3.192   1.064  0.00  0.00    +0.000 A 
ATOM     20  C   UNL     1      -2.883   3.438  -0.174  0.00  0.00    +0.000 A 
ENDBRANCH   5  15
BRANCH   6   1
ATOM      1  O   UNL     1      -2.202  -2.330  -1.559  0.00  0.00    -0.388 OA
ATOM     22  H   UNL     1      -1.904  -2.124  -2.462  0.00  0.00    +0.210 HD
ENDBRANCH   6   1
BRANCH   8   2
ATOM      2  O   UNL     1      -2.386  -3.760   0.808  0.00  0.00    -0.389 OA
ATOM     23  H   UNL     1      -2.643  -3.830   1.743  0.00  0.00    +0.210 HD
ENDBRANCH   8   2
BRANCH   4   3
ATOM      3  N   UNL     1       1.057  -1.168  -0.478  0.00  0.00    -0.310 NA
ATOM     21  H   UNL     1       1.420  -1.876  -1.116  0.00  0.00    +0.122 HD
BRANCH   3  10
ATOM     10  C   UNL     1       1.735   0.093  -0.742  0.00  0.00    +0.084 C 
BRANCH  10   9
ATOM      9  C   UNL     1       3.235  -0.038  -0.548  0.00  0.00    +0.003 C 
ATOM     11  C   UNL     1       3.628  -0.380   0.886  0.00  0.00    +0.005 C 
ATOM     12  C   UNL     1       3.990   1.265  -0.789  0.00  0.00    +0.005 C 
ATOM     13  C   UNL     1       5.109  -0.025   0.957  0.00  0.00    +0.000 C 
ATOM     14  C   UNL     1       5.340   1.043  -0.114  0.00  0.00    +0.000 C 
ENDBRANCH  10   9
ENDBRANCH   3  10
ENDBRANCH   4   3
TORSDOF 6
