MODEL 1
REMARK VINA RESULT:      -7.7      0.000      0.000
REMARK  Name = 25390377
REMARK  11 active torsions:
REMARK  status: ('A' for Active; 'I' for Inactive)
REMARK    1  A    between atoms: O_2  and  C_11
REMARK    2  A    between atoms: O_3  and  C_12
REMARK    3  A    between atoms: N_7  and  C_15
REMARK    4  A    between atoms: C_10  and  C_14
REMARK    5  A    between atoms: C_13  and  C_15
REMARK    6  A    between atoms: C_14  and  C_16
REMARK    7  A    between atoms: C_21  and  C_22
REMARK    8  A    between atoms: C_21  and  C_24
REMARK    9  A    between atoms: C_21  and  C_25
REMARK   10  A    between atoms: C_24  and  C_27
REMARK   11  A    between atoms: C_25  and  C_28
REMARK                            x       y       z     vdW  Elec       q    Type
REMARK                         _______ _______ _______ _____ _____    ______ ____
ROOT
ATOM      1  O   UNL     1      11.982  10.449  20.836  0.00  0.00    -0.366 OA
ATOM     10  C   UNL     1      12.495   9.514  19.860  0.00  0.00    +0.159 C 
ATOM     11  C   UNL     1      11.629   8.265  19.964  0.00  0.00    +0.175 C 
ATOM     12  C   UNL     1      11.192   8.304  21.414  0.00  0.00    +0.176 C 
ATOM     13  C   UNL     1      10.975   9.793  21.626  0.00  0.00    +0.167 C 
ENDROOT
BRANCH  11   2
ATOM      2  O   UNL     1      10.503   8.433  19.103  0.00  0.00    -0.387 OA
ATOM     32  H   UNL     1      10.293   7.562  18.726  0.00  0.00    +0.210 HD
ENDBRANCH  11   2
BRANCH  12   3
ATOM      3  O   UNL     1      10.021   7.556  21.665  0.00  0.00    -0.387 OA
ATOM     33  H   UNL     1       9.728   7.768  22.568  0.00  0.00    +0.210 HD
ENDBRANCH  12   3
BRANCH  10  14
ATOM     14  C   UNL     1      13.959   9.254  20.188  0.00  0.00    +0.130 C 
BRANCH  14  16
ATOM      4  O   UNL     1      13.984   7.826  18.298  0.00  0.00    -0.276 OA
ATOM      6  N   UNL     1      15.493   7.331  19.991  0.00  0.00    -0.298 N 
ATOM      8  N   UNL     1      18.179   6.593  20.441  0.00  0.00    -0.312 N 
ATOM      9  N   UNL     1      20.409   7.262  20.874  0.00  0.00    -0.240 NA
ATOM     16  C   UNL     1      14.473   8.075  19.403  0.00  0.00    +0.218 C 
ATOM     17  C   UNL     1      16.099   7.594  21.298  0.00  0.00    +0.126 C 
ATOM     18  C   UNL     1      16.036   6.157  19.312  0.00  0.00    +0.126 C 
ATOM     19  C   UNL     1      17.616   7.736  21.172  0.00  0.00    +0.125 C 
ATOM     20  C   UNL     1      17.549   6.279  19.149  0.00  0.00    +0.125 C 
ATOM     23  C   UNL     1      19.532   6.270  20.600  0.00  0.00    +0.121 A 
ATOM     26  C   UNL     1      19.886   4.937  20.463  0.00  0.00    +0.043 A 
ATOM     29  C   UNL     1      21.226   4.601  20.619  0.00  0.00    +0.005 A 
ATOM     30  C   UNL     1      21.702   6.897  21.017  0.00  0.00    +0.113 A 
ATOM     31  C   UNL     1      22.158   5.593  20.901  0.00  0.00    +0.020 A 
ENDBRANCH  14  16
ENDBRANCH  10  14
BRANCH  13  15
ATOM     15  C   UNL     1      11.107  10.219  23.078  0.00  0.00    +0.138 C 
BRANCH  15   7
ATOM      5  O   UNL     1      10.783  11.608  25.573  0.00  0.00    -0.276 OA
ATOM      7  N   UNL     1      10.768  11.611  23.254  0.00  0.00    -0.313 N 
ATOM     22  C   UNL     1      10.633  12.198  24.504  0.00  0.00    +0.216 C 
ATOM     34  H   UNL     1      10.538  12.146  22.423  0.00  0.00    +0.149 HD
BRANCH  22  21
ATOM     21  C   UNL     1      10.253  13.679  24.419  0.00  0.00    +0.074 C 
BRANCH  21  24
ATOM     24  C   UNL     1       9.920  14.113  22.981  0.00  0.00    +0.009 C 
ATOM     27  C   UNL     1       8.665  14.975  22.910  0.00  0.00    +0.004 C 
ENDBRANCH  21  24
BRANCH  21  25
ATOM     25  C   UNL     1      11.365  14.549  25.042  0.00  0.00    +0.009 C 
ATOM     28  C   UNL     1      11.091  15.011  26.467  0.00  0.00    +0.004 C 
ENDBRANCH  21  25
ENDBRANCH  22  21
ENDBRANCH  15   7
ENDBRANCH  13  15
TORSDOF 9
ENDMDL
MODEL 2
REMARK VINA RESULT:      -7.5      3.980      7.480
REMARK  Name = 25390377
REMARK  11 active torsions:
REMARK  status: ('A' for Active; 'I' for Inactive)
REMARK    1  A    between atoms: O_2  and  C_11
REMARK    2  A    between atoms: O_3  and  C_12
REMARK    3  A    between atoms: N_7  and  C_15
REMARK    4  A    between atoms: C_10  and  C_14
REMARK    5  A    between atoms: C_13  and  C_15
REMARK    6  A    between atoms: C_14  and  C_16
REMARK    7  A    between atoms: C_21  and  C_22
REMARK    8  A    between atoms: C_21  and  C_24
REMARK    9  A    between atoms: C_21  and  C_25
REMARK   10  A    between atoms: C_24  and  C_27
REMARK   11  A    between atoms: C_25  and  C_28
REMARK                            x       y       z     vdW  Elec       q    Type
REMARK                         _______ _______ _______ _____ _____    ______ ____
ROOT
ATOM      1  O   UNL     1      12.239   8.537  21.702  0.00  0.00    -0.366 OA
ATOM     10  C   UNL     1      11.534   7.856  20.639  0.00  0.00    +0.159 C 
ATOM     11  C   UNL     1      12.365   6.627  20.289  0.00  0.00    +0.175 C 
ATOM     12  C   UNL     1      13.765   7.083  20.645  0.00  0.00    +0.176 C 
ATOM     13  C   UNL     1      13.511   7.895  21.904  0.00  0.00    +0.167 C 
ENDROOT
BRANCH  11   2
ATOM      2  O   UNL     1      11.960   5.559  21.145  0.00  0.00    -0.387 OA
ATOM     32  H   UNL     1      12.379   4.747  20.812  0.00  0.00    +0.210 HD
ENDBRANCH  11   2
BRANCH  12   3
ATOM      3  O   UNL     1      14.659   6.015  20.875  0.00  0.00    -0.387 OA
ATOM     33  H   UNL     1      15.169   6.227  21.676  0.00  0.00    +0.210 HD
ENDBRANCH  12   3
BRANCH  10  14
ATOM     14  C   UNL     1      11.389   8.829  19.477  0.00  0.00    +0.130 C 
BRANCH  14  16
ATOM      4  O   UNL     1      11.616   7.299  17.682  0.00  0.00    -0.276 OA
ATOM      6  N   UNL     1      13.222   8.969  17.832  0.00  0.00    -0.298 N 
ATOM      8  N   UNL     1      14.653  10.836  16.272  0.00  0.00    -0.312 N 
ATOM      9  N   UNL     1      14.805  13.025  15.384  0.00  0.00    -0.240 NA
ATOM     16  C   UNL     1      12.080   8.291  18.251  0.00  0.00    +0.218 C 
ATOM     17  C   UNL     1      13.804  10.147  18.479  0.00  0.00    +0.126 C 
ATOM     18  C   UNL     1      13.970   8.504  16.666  0.00  0.00    +0.126 C 
ATOM     19  C   UNL     1      13.952  11.294  17.480  0.00  0.00    +0.125 C 
ATOM     20  C   UNL     1      14.117   9.622  15.637  0.00  0.00    +0.125 C 
ATOM     23  C   UNL     1      15.298  11.769  15.452  0.00  0.00    +0.121 A 
ATOM     26  C   UNL     1      16.414  11.334  14.754  0.00  0.00    +0.043 A 
ATOM     29  C   UNL     1      17.066  12.249  13.935  0.00  0.00    +0.005 A 
ATOM     30  C   UNL     1      15.465  13.886  14.577  0.00  0.00    +0.113 A 
ATOM     31  C   UNL     1      16.589  13.551  13.840  0.00  0.00    +0.020 A 
ENDBRANCH  14  16
ENDBRANCH  10  14
BRANCH  13  15
ATOM     15  C   UNL     1      14.576   8.944  22.169  0.00  0.00    +0.138 C 
BRANCH  15   7
ATOM      5  O   UNL     1      16.822  10.369  21.081  0.00  0.00    -0.276 OA
ATOM      7  N   UNL     1      15.902   8.422  21.940  0.00  0.00    -0.313 N 
ATOM     22  C   UNL     1      16.929   9.188  21.408  0.00  0.00    +0.216 C 
ATOM     34  H   UNL     1      16.048   7.430  22.098  0.00  0.00    +0.149 HD
BRANCH  22  21
ATOM     21  C   UNL     1      18.231   8.396  21.249  0.00  0.00    +0.074 C 
BRANCH  21  24
ATOM     24  C   UNL     1      18.004   6.878  21.345  0.00  0.00    +0.009 C 
ATOM     27  C   UNL     1      18.163   6.180  20.000  0.00  0.00    +0.004 C 
ENDBRANCH  21  24
BRANCH  21  25
ATOM     25  C   UNL     1      19.280   8.890  22.267  0.00  0.00    +0.009 C 
ATOM     28  C   UNL     1      20.460   7.949  22.474  0.00  0.00    +0.004 C 
ENDBRANCH  21  25
ENDBRANCH  22  21
ENDBRANCH  15   7
ENDBRANCH  13  15
TORSDOF 9
ENDMDL
MODEL 3
REMARK VINA RESULT:      -7.5      1.817      3.201
REMARK  Name = 25390377
REMARK  11 active torsions:
REMARK  status: ('A' for Active; 'I' for Inactive)
REMARK    1  A    between atoms: O_2  and  C_11
REMARK    2  A    between atoms: O_3  and  C_12
REMARK    3  A    between atoms: N_7  and  C_15
REMARK    4  A    between atoms: C_10  and  C_14
REMARK    5  A    between atoms: C_13  and  C_15
REMARK    6  A    between atoms: C_14  and  C_16
REMARK    7  A    between atoms: C_21  and  C_22
REMARK    8  A    between atoms: C_21  and  C_24
REMARK    9  A    between atoms: C_21  and  C_25
REMARK   10  A    between atoms: C_24  and  C_27
REMARK   11  A    between atoms: C_25  and  C_28
REMARK                            x       y       z     vdW  Elec       q    Type
REMARK                         _______ _______ _______ _____ _____    ______ ____
ROOT
ATOM      1  O   UNL     1      13.589   8.915  19.812  0.00  0.00    -0.366 OA
ATOM     10  C   UNL     1      14.678   8.153  19.242  0.00  0.00    +0.159 C 
ATOM     11  C   UNL     1      14.103   7.409  18.043  0.00  0.00    +0.175 C 
ATOM     12  C   UNL     1      12.653   7.235  18.447  0.00  0.00    +0.176 C 
ATOM     13  C   UNL     1      12.369   8.558  19.139  0.00  0.00    +0.167 C 
ENDROOT
BRANCH  11   2
ATOM      2  O   UNL     1      14.200   8.262  16.903  0.00  0.00    -0.387 OA
ATOM     32  H   UNL     1      14.781   9.003  17.144  0.00  0.00    +0.210 HD
ENDBRANCH  11   2
BRANCH  12   3
ATOM      3  O   UNL     1      11.790   7.013  17.352  0.00  0.00    -0.387 OA
ATOM     33  H   UNL     1      11.753   7.838  16.838  0.00  0.00    +0.210 HD
ENDBRANCH  12   3
BRANCH  10  14
ATOM     14  C   UNL     1      15.211   7.222  20.323  0.00  0.00    +0.130 C 
BRANCH  14  16
ATOM      4  O   UNL     1      16.164   8.670  21.939  0.00  0.00    -0.276 OA
ATOM      6  N   UNL     1      17.648   7.470  20.617  0.00  0.00    -0.298 N 
ATOM      8  N   UNL     1      20.024   5.951  20.745  0.00  0.00    -0.312 N 
ATOM      9  N   UNL     1      21.050   3.830  20.975  0.00  0.00    -0.240 NA
ATOM     16  C   UNL     1      16.378   7.857  21.036  0.00  0.00    +0.218 C 
ATOM     17  C   UNL     1      17.943   6.510  19.551  0.00  0.00    +0.126 C 
ATOM     18  C   UNL     1      18.838   8.051  21.236  0.00  0.00    +0.126 C 
ATOM     19  C   UNL     1      18.847   5.390  20.067  0.00  0.00    +0.125 C 
ATOM     20  C   UNL     1      19.751   6.957  21.783  0.00  0.00    +0.125 C 
ATOM     23  C   UNL     1      21.179   5.172  20.881  0.00  0.00    +0.121 A 
ATOM     26  C   UNL     1      22.393   5.840  20.910  0.00  0.00    +0.043 A 
ATOM     29  C   UNL     1      23.550   5.080  21.044  0.00  0.00    +0.005 A 
ATOM     30  C   UNL     1      22.197   3.125  21.106  0.00  0.00    +0.113 A 
ATOM     31  C   UNL     1      23.458   3.697  21.144  0.00  0.00    +0.020 A 
ENDBRANCH  14  16
ENDBRANCH  10  14
BRANCH  13  15
ATOM     15  C   UNL     1      11.235   8.479  20.146  0.00  0.00    +0.138 C 
BRANCH  15   7
ATOM      5  O   UNL     1      10.871   8.607  22.994  0.00  0.00    -0.276 OA
ATOM      7  N   UNL     1      11.161   9.672  20.955  0.00  0.00    -0.313 N 
ATOM     22  C   UNL     1      10.983   9.636  22.331  0.00  0.00    +0.216 C 
ATOM     34  H   UNL     1      11.152  10.565  20.473  0.00  0.00    +0.149 HD
BRANCH  22  21
ATOM     21  C   UNL     1      10.920  11.035  22.951  0.00  0.00    +0.074 C 
BRANCH  21  24
ATOM     24  C   UNL     1      11.871  12.024  22.254  0.00  0.00    +0.009 C 
ATOM     27  C   UNL     1      11.131  13.202  21.632  0.00  0.00    +0.004 C 
ENDBRANCH  21  24
BRANCH  21  25
ATOM     25  C   UNL     1      11.181  10.955  24.470  0.00  0.00    +0.009 C 
ATOM     28  C   UNL     1      10.870  12.232  25.239  0.00  0.00    +0.004 C 
ENDBRANCH  21  25
ENDBRANCH  22  21
ENDBRANCH  15   7
ENDBRANCH  13  15
TORSDOF 9
ENDMDL
MODEL 4
REMARK VINA RESULT:      -7.2     28.721     29.805
REMARK  Name = 25390377
REMARK  11 active torsions:
REMARK  status: ('A' for Active; 'I' for Inactive)
REMARK    1  A    between atoms: O_2  and  C_11
REMARK    2  A    between atoms: O_3  and  C_12
REMARK    3  A    between atoms: N_7  and  C_15
REMARK    4  A    between atoms: C_10  and  C_14
REMARK    5  A    between atoms: C_13  and  C_15
REMARK    6  A    between atoms: C_14  and  C_16
REMARK    7  A    between atoms: C_21  and  C_22
REMARK    8  A    between atoms: C_21  and  C_24
REMARK    9  A    between atoms: C_21  and  C_25
REMARK   10  A    between atoms: C_24  and  C_27
REMARK   11  A    between atoms: C_25  and  C_28
REMARK                            x       y       z     vdW  Elec       q    Type
REMARK                         _______ _______ _______ _____ _____    ______ ____
ROOT
ATOM      1  O   UNL     1      -7.425 -11.770  17.169  0.00  0.00    -0.366 OA
ATOM     10  C   UNL     1      -6.925 -12.754  18.103  0.00  0.00    +0.159 C 
ATOM     11  C   UNL     1      -7.575 -12.445  19.445  0.00  0.00    +0.175 C 
ATOM     12  C   UNL     1      -7.803 -10.950  19.348  0.00  0.00    +0.176 C 
ATOM     13  C   UNL     1      -8.203 -10.797  17.890  0.00  0.00    +0.167 C 
ENDROOT
BRANCH  11   2
ATOM      2  O   UNL     1      -8.825 -13.133  19.502  0.00  0.00    -0.387 OA
ATOM     32  H   UNL     1      -8.999 -13.491  18.616  0.00  0.00    +0.210 HD
ENDBRANCH  11   2
BRANCH  12   3
ATOM      3  O   UNL     1      -8.804 -10.479  20.225  0.00  0.00    -0.387 OA
ATOM     33  H   UNL     1      -9.571 -11.070  20.138  0.00  0.00    +0.210 HD
ENDBRANCH  12   3
BRANCH  10  14
ATOM     14  C   UNL     1      -5.407 -12.637  18.134  0.00  0.00    +0.130 C 
BRANCH  14  16
ATOM      4  O   UNL     1      -4.834 -14.530  16.829  0.00  0.00    -0.276 OA
ATOM      6  N   UNL     1      -4.239 -12.458  15.967  0.00  0.00    -0.298 N 
ATOM      8  N   UNL     1      -4.230 -10.953  13.580  0.00  0.00    -0.312 N 
ATOM      9  N   UNL     1      -5.333  -9.405  12.168  0.00  0.00    -0.240 NA
ATOM     16  C   UNL     1      -4.803 -13.300  16.922  0.00  0.00    +0.218 C 
ATOM     17  C   UNL     1      -4.181 -10.997  16.042  0.00  0.00    +0.126 C 
ATOM     18  C   UNL     1      -3.610 -13.015  14.772  0.00  0.00    +0.126 C 
ATOM     19  C   UNL     1      -4.808 -10.367  14.797  0.00  0.00    +0.125 C 
ATOM     20  C   UNL     1      -4.229 -12.423  13.509  0.00  0.00    +0.125 C 
ATOM     23  C   UNL     1      -4.293 -10.244  12.375  0.00  0.00    +0.121 A 
ATOM     26  C   UNL     1      -3.271 -10.453  11.462  0.00  0.00    +0.043 A 
ATOM     29  C   UNL     1      -3.320  -9.755  10.261  0.00  0.00    +0.005 A 
ATOM     30  C   UNL     1      -5.347  -8.746  10.988  0.00  0.00    +0.113 A 
ATOM     31  C   UNL     1      -4.374  -8.884  10.011  0.00  0.00    +0.020 A 
ENDBRANCH  14  16
ENDBRANCH  10  14
BRANCH  13  15
ATOM     15  C   UNL     1      -7.931  -9.411  17.333  0.00  0.00    +0.138 C 
BRANCH  15   7
ATOM      5  O   UNL     1      -9.736  -8.712  15.209  0.00  0.00    -0.276 OA
ATOM      7  N   UNL     1      -9.095  -8.563  17.432  0.00  0.00    -0.313 N 
ATOM     22  C   UNL     1      -9.911  -8.280  16.347  0.00  0.00    +0.216 C 
ATOM     34  H   UNL     1      -9.257  -8.092  18.317  0.00  0.00    +0.149 HD
BRANCH  22  21
ATOM     21  C   UNL     1     -11.067  -7.343  16.711  0.00  0.00    +0.074 C 
BRANCH  21  24
ATOM     24  C   UNL     1     -12.440  -8.007  16.509  0.00  0.00    +0.009 C 
ATOM     27  C   UNL     1     -12.670  -9.169  17.467  0.00  0.00    +0.004 C 
ENDBRANCH  21  24
BRANCH  21  25
ATOM     25  C   UNL     1     -10.944  -6.019  15.927  0.00  0.00    +0.009 C 
ATOM     28  C   UNL     1     -11.967  -5.841  14.812  0.00  0.00    +0.004 C 
ENDBRANCH  21  25
ENDBRANCH  22  21
ENDBRANCH  15   7
ENDBRANCH  13  15
TORSDOF 9
ENDMDL
MODEL 5
REMARK VINA RESULT:      -7.2     27.910     30.748
REMARK  Name = 25390377
REMARK  11 active torsions:
REMARK  status: ('A' for Active; 'I' for Inactive)
REMARK    1  A    between atoms: O_2  and  C_11
REMARK    2  A    between atoms: O_3  and  C_12
REMARK    3  A    between atoms: N_7  and  C_15
REMARK    4  A    between atoms: C_10  and  C_14
REMARK    5  A    between atoms: C_13  and  C_15
REMARK    6  A    between atoms: C_14  and  C_16
REMARK    7  A    between atoms: C_21  and  C_22
REMARK    8  A    between atoms: C_21  and  C_24
REMARK    9  A    between atoms: C_21  and  C_25
REMARK   10  A    between atoms: C_24  and  C_27
REMARK   11  A    between atoms: C_25  and  C_28
REMARK                            x       y       z     vdW  Elec       q    Type
REMARK                         _______ _______ _______ _____ _____    ______ ____
ROOT
ATOM      1  O   UNL     1      -5.909 -10.638  17.994  0.00  0.00    -0.366 OA
ATOM     10  C   UNL     1      -5.779 -11.908  18.673  0.00  0.00    +0.159 C 
ATOM     11  C   UNL     1      -4.451 -12.505  18.220  0.00  0.00    +0.175 C 
ATOM     12  C   UNL     1      -4.293 -11.908  16.837  0.00  0.00    +0.176 C 
ATOM     13  C   UNL     1      -4.833 -10.503  17.047  0.00  0.00    +0.167 C 
ENDROOT
BRANCH  11   2
ATOM      2  O   UNL     1      -3.428 -12.019  19.089  0.00  0.00    -0.387 OA
ATOM     32  H   UNL     1      -2.751 -11.598  18.532  0.00  0.00    +0.210 HD
ENDBRANCH  11   2
BRANCH  12   3
ATOM      3  O   UNL     1      -2.957 -11.900  16.381  0.00  0.00    -0.387 OA
ATOM     33  H   UNL     1      -2.978 -11.778  15.417  0.00  0.00    +0.210 HD
ENDBRANCH  12   3
BRANCH  10  14
ATOM     14  C   UNL     1      -6.979 -12.765  18.292  0.00  0.00    +0.130 C 
BRANCH  14  16
ATOM      4  O   UNL     1      -8.370 -12.428  20.180  0.00  0.00    -0.276 OA
ATOM      6  N   UNL     1      -9.152 -11.603  18.156  0.00  0.00    -0.298 N 
ATOM      8  N   UNL     1     -10.381  -9.345  16.991  0.00  0.00    -0.312 N 
ATOM      9  N   UNL     1     -10.142  -7.265  15.886  0.00  0.00    -0.240 NA
ATOM     16  C   UNL     1      -8.226 -12.254  18.967  0.00  0.00    +0.218 C 
ATOM     17  C   UNL     1      -9.018 -11.378  16.715  0.00  0.00    +0.126 C 
ATOM     18  C   UNL     1     -10.400 -11.097  18.721  0.00  0.00    +0.126 C 
ATOM     19  C   UNL     1      -9.159  -9.892  16.385  0.00  0.00    +0.125 C 
ATOM     20  C   UNL     1     -10.560  -9.607  18.428  0.00  0.00    +0.125 C 
ATOM     23  C   UNL     1     -10.951  -8.180  16.466  0.00  0.00    +0.121 A 
ATOM     26  C   UNL     1     -12.325  -8.040  16.579  0.00  0.00    +0.043 A 
ATOM     29  C   UNL     1     -12.906  -6.888  16.062  0.00  0.00    +0.005 A 
ATOM     30  C   UNL     1     -10.743  -6.158  15.396  0.00  0.00    +0.113 A 
ATOM     31  C   UNL     1     -12.107  -5.924  15.457  0.00  0.00    +0.020 A 
ENDBRANCH  14  16
ENDBRANCH  10  14
BRANCH  13  15
ATOM     15  C   UNL     1      -5.352  -9.861  15.773  0.00  0.00    +0.138 C 
BRANCH  15   7
ATOM      5  O   UNL     1      -6.089  -9.508  13.017  0.00  0.00    -0.276 OA
ATOM      7  N   UNL     1      -4.611 -10.305  14.616  0.00  0.00    -0.313 N 
ATOM     22  C   UNL     1      -5.047 -10.088  13.317  0.00  0.00    +0.216 C 
ATOM     34  H   UNL     1      -3.786 -10.873  14.779  0.00  0.00    +0.149 HD
BRANCH  22  21
ATOM     21  C   UNL     1      -4.091 -10.672  12.272  0.00  0.00    +0.074 C 
BRANCH  21  24
ATOM     24  C   UNL     1      -2.615 -10.444  12.642  0.00  0.00    +0.009 C 
ATOM     27  C   UNL     1      -1.856 -11.751  12.835  0.00  0.00    +0.004 C 
ENDBRANCH  21  24
BRANCH  21  25
ATOM     25  C   UNL     1      -4.429 -10.114  10.874  0.00  0.00    +0.009 C 
ATOM     28  C   UNL     1      -3.343  -9.244  10.255  0.00  0.00    +0.004 C 
ENDBRANCH  21  25
ENDBRANCH  22  21
ENDBRANCH  15   7
ENDBRANCH  13  15
TORSDOF 9
ENDMDL
MODEL 6
REMARK VINA RESULT:      -7.1      2.888      5.380
REMARK  Name = 25390377
REMARK  11 active torsions:
REMARK  status: ('A' for Active; 'I' for Inactive)
REMARK    1  A    between atoms: O_2  and  C_11
REMARK    2  A    between atoms: O_3  and  C_12
REMARK    3  A    between atoms: N_7  and  C_15
REMARK    4  A    between atoms: C_10  and  C_14
REMARK    5  A    between atoms: C_13  and  C_15
REMARK    6  A    between atoms: C_14  and  C_16
REMARK    7  A    between atoms: C_21  and  C_22
REMARK    8  A    between atoms: C_21  and  C_24
REMARK    9  A    between atoms: C_21  and  C_25
REMARK   10  A    between atoms: C_24  and  C_27
REMARK   11  A    between atoms: C_25  and  C_28
REMARK                            x       y       z     vdW  Elec       q    Type
REMARK                         _______ _______ _______ _____ _____    ______ ____
ROOT
ATOM      1  O   UNL     1      16.881   8.405  20.698  0.00  0.00    -0.366 OA
ATOM     10  C   UNL     1      17.473   7.140  20.324  0.00  0.00    +0.159 C 
ATOM     11  C   UNL     1      16.321   6.156  20.163  0.00  0.00    +0.175 C 
ATOM     12  C   UNL     1      15.293   6.716  21.125  0.00  0.00    +0.176 C 
ATOM     13  C   UNL     1      15.474   8.212  20.929  0.00  0.00    +0.167 C 
ENDROOT
BRANCH  11   2
ATOM      2  O   UNL     1      15.844   6.247  18.821  0.00  0.00    -0.387 OA
ATOM     32  H   UNL     1      14.931   6.579  18.859  0.00  0.00    +0.210 HD
ENDBRANCH  11   2
BRANCH  12   3
ATOM      3  O   UNL     1      13.975   6.299  20.838  0.00  0.00    -0.387 OA
ATOM     33  H   UNL     1      13.382   6.756  21.459  0.00  0.00    +0.210 HD
ENDBRANCH  12   3
BRANCH  10  14
ATOM     14  C   UNL     1      18.451   6.741  21.421  0.00  0.00    +0.130 C 
BRANCH  14  16
ATOM      4  O   UNL     1      20.080   8.455  21.281  0.00  0.00    -0.276 OA
ATOM      6  N   UNL     1      20.755   6.328  20.641  0.00  0.00    -0.298 N 
ATOM      8  N   UNL     1      22.879   4.488  20.902  0.00  0.00    -0.312 N 
ATOM      9  N   UNL     1      23.838   2.669  22.076  0.00  0.00    -0.240 NA
ATOM     16  C   UNL     1      19.832   7.259  21.110  0.00  0.00    +0.218 C 
ATOM     17  C   UNL     1      20.499   4.902  20.424  0.00  0.00    +0.126 C 
ATOM     18  C   UNL     1      22.111   6.745  20.292  0.00  0.00    +0.126 C 
ATOM     19  C   UNL     1      21.508   4.049  21.194  0.00  0.00    +0.125 C 
ATOM     20  C   UNL     1      23.144   5.926  21.062  0.00  0.00    +0.125 C 
ATOM     23  C   UNL     1      23.945   3.603  21.105  0.00  0.00    +0.121 A 
ATOM     26  C   UNL     1      25.054   3.749  20.287  0.00  0.00    +0.043 A 
ATOM     29  C   UNL     1      26.121   2.879  20.476  0.00  0.00    +0.005 A 
ATOM     30  C   UNL     1      24.896   1.841  22.231  0.00  0.00    +0.113 A 
ATOM     31  C   UNL     1      26.048   1.903  21.464  0.00  0.00    +0.020 A 
ENDBRANCH  14  16
ENDBRANCH  10  14
BRANCH  13  15
ATOM     15  C   UNL     1      15.035   9.033  22.128  0.00  0.00    +0.138 C 
BRANCH  15   7
ATOM      5  O   UNL     1      13.368  11.271  21.443  0.00  0.00    -0.276 OA
ATOM      7  N   UNL     1      13.597   9.101  22.226  0.00  0.00    -0.313 N 
ATOM     22  C   UNL     1      12.873  10.230  21.870  0.00  0.00    +0.216 C 
ATOM     34  H   UNL     1      13.119   8.315  22.656  0.00  0.00    +0.149 HD
BRANCH  22  21
ATOM     21  C   UNL     1      11.367  10.053  22.084  0.00  0.00    +0.074 C 
BRANCH  21  24
ATOM     24  C   UNL     1      10.763  11.181  22.938  0.00  0.00    +0.009 C 
ATOM     27  C   UNL     1      11.122  11.049  24.413  0.00  0.00    +0.004 C 
ENDBRANCH  21  24
BRANCH  21  25
ATOM     25  C   UNL     1      11.075   8.659  22.677  0.00  0.00    +0.009 C 
ATOM     28  C   UNL     1      10.527   7.644  21.682  0.00  0.00    +0.004 C 
ENDBRANCH  21  25
ENDBRANCH  22  21
ENDBRANCH  15   7
ENDBRANCH  13  15
TORSDOF 9
ENDMDL
MODEL 7
REMARK VINA RESULT:      -7.1     27.279     30.611
REMARK  Name = 25390377
REMARK  11 active torsions:
REMARK  status: ('A' for Active; 'I' for Inactive)
REMARK    1  A    between atoms: O_2  and  C_11
REMARK    2  A    between atoms: O_3  and  C_12
REMARK    3  A    between atoms: N_7  and  C_15
REMARK    4  A    between atoms: C_10  and  C_14
REMARK    5  A    between atoms: C_13  and  C_15
REMARK    6  A    between atoms: C_14  and  C_16
REMARK    7  A    between atoms: C_21  and  C_22
REMARK    8  A    between atoms: C_21  and  C_24
REMARK    9  A    between atoms: C_21  and  C_25
REMARK   10  A    between atoms: C_24  and  C_27
REMARK   11  A    between atoms: C_25  and  C_28
REMARK                            x       y       z     vdW  Elec       q    Type
REMARK                         _______ _______ _______ _____ _____    ______ ____
ROOT
ATOM      1  O   UNL     1      -3.444 -11.339  18.115  0.00  0.00    -0.366 OA
ATOM     10  C   UNL     1      -4.709 -11.824  18.620  0.00  0.00    +0.159 C 
ATOM     11  C   UNL     1      -5.286 -12.730  17.539  0.00  0.00    +0.175 C 
ATOM     12  C   UNL     1      -4.692 -12.134  16.279  0.00  0.00    +0.176 C 
ATOM     13  C   UNL     1      -3.296 -11.760  16.747  0.00  0.00    +0.167 C 
ENDROOT
BRANCH  11   2
ATOM      2  O   UNL     1      -4.780 -14.049  17.748  0.00  0.00    -0.387 OA
ATOM     32  H   UNL     1      -5.456 -14.672  17.434  0.00  0.00    +0.210 HD
ENDBRANCH  11   2
BRANCH  12   3
ATOM      3  O   UNL     1      -4.665 -13.036  15.193  0.00  0.00    -0.387 OA
ATOM     33  H   UNL     1      -4.269 -12.570  14.437  0.00  0.00    +0.210 HD
ENDBRANCH  12   3
BRANCH  10  14
ATOM     14  C   UNL     1      -5.586 -10.616  18.917  0.00  0.00    +0.130 C 
BRANCH  14  16
ATOM      4  O   UNL     1      -7.252 -11.690  20.214  0.00  0.00    -0.276 OA
ATOM      6  N   UNL     1      -7.959 -10.684  18.245  0.00  0.00    -0.298 N 
ATOM      8  N   UNL     1     -10.001  -9.053  17.180  0.00  0.00    -0.312 N 
ATOM      9  N   UNL     1     -10.778  -6.878  16.658  0.00  0.00    -0.240 NA
ATOM     16  C   UNL     1      -7.004 -11.049  19.190  0.00  0.00    +0.218 C 
ATOM     17  C   UNL     1      -7.704  -9.926  17.019  0.00  0.00    +0.126 C 
ATOM     18  C   UNL     1      -9.355 -11.081  18.416  0.00  0.00    +0.126 C 
ATOM     19  C   UNL     1      -8.597  -8.686  16.954  0.00  0.00    +0.125 C 
ATOM     20  C   UNL     1     -10.272  -9.861  18.379  0.00  0.00    +0.125 C 
ATOM     23  C   UNL     1     -11.019  -8.207  16.723  0.00  0.00    +0.121 A 
ATOM     26  C   UNL     1     -12.220  -8.797  16.365  0.00  0.00    +0.043 A 
ATOM     29  C   UNL     1     -13.240  -7.970  15.908  0.00  0.00    +0.005 A 
ATOM     30  C   UNL     1     -11.794  -6.106  16.210  0.00  0.00    +0.113 A 
ATOM     31  C   UNL     1     -13.031  -6.598  15.826  0.00  0.00    +0.020 A 
ENDBRANCH  14  16
ENDBRANCH  10  14
BRANCH  13  15
ATOM     15  C   UNL     1      -2.667 -10.643  15.934  0.00  0.00    +0.138 C 
BRANCH  15   7
ATOM      5  O   UNL     1      -1.723 -11.085  13.256  0.00  0.00    -0.276 OA
ATOM      7  N   UNL     1      -3.395 -10.404  14.710  0.00  0.00    -0.313 N 
ATOM     22  C   UNL     1      -2.855 -10.649  13.456  0.00  0.00    +0.216 C 
ATOM     34  H   UNL     1      -4.304  -9.958  14.785  0.00  0.00    +0.149 HD
BRANCH  22  21
ATOM     21  C   UNL     1      -3.823 -10.297  12.321  0.00  0.00    +0.074 C 
BRANCH  21  24
ATOM     24  C   UNL     1      -5.093 -11.164  12.351  0.00  0.00    +0.009 C 
ATOM     27  C   UNL     1      -4.950 -12.434  11.521  0.00  0.00    +0.004 C 
ENDBRANCH  21  24
BRANCH  21  25
ATOM     25  C   UNL     1      -3.098 -10.379  10.961  0.00  0.00    +0.009 C 
ATOM     28  C   UNL     1      -3.352  -9.200  10.031  0.00  0.00    +0.004 C 
ENDBRANCH  21  25
ENDBRANCH  22  21
ENDBRANCH  15   7
ENDBRANCH  13  15
TORSDOF 9
ENDMDL
MODEL 8
REMARK VINA RESULT:      -7.1     28.097     30.038
REMARK  Name = 25390377
REMARK  11 active torsions:
REMARK  status: ('A' for Active; 'I' for Inactive)
REMARK    1  A    between atoms: O_2  and  C_11
REMARK    2  A    between atoms: O_3  and  C_12
REMARK    3  A    between atoms: N_7  and  C_15
REMARK    4  A    between atoms: C_10  and  C_14
REMARK    5  A    between atoms: C_13  and  C_15
REMARK    6  A    between atoms: C_14  and  C_16
REMARK    7  A    between atoms: C_21  and  C_22
REMARK    8  A    between atoms: C_21  and  C_24
REMARK    9  A    between atoms: C_21  and  C_25
REMARK   10  A    between atoms: C_24  and  C_27
REMARK   11  A    between atoms: C_25  and  C_28
REMARK                            x       y       z     vdW  Elec       q    Type
REMARK                         _______ _______ _______ _____ _____    ______ ____
ROOT
ATOM      1  O   UNL     1      -4.112 -12.496  12.865  0.00  0.00    -0.366 OA
ATOM     10  C   UNL     1      -2.861 -12.174  12.216  0.00  0.00    +0.159 C 
ATOM     11  C   UNL     1      -1.843 -11.953  13.328  0.00  0.00    +0.175 C 
ATOM     12  C   UNL     1      -2.719 -11.465  14.464  0.00  0.00    +0.176 C 
ATOM     13  C   UNL     1      -3.957 -12.327  14.286  0.00  0.00    +0.167 C 
ENDROOT
BRANCH  11   2
ATOM      2  O   UNL     1      -1.264 -13.216  13.656  0.00  0.00    -0.387 OA
ATOM     32  H   UNL     1      -0.499 -13.345  13.071  0.00  0.00    +0.210 HD
ENDBRANCH  11   2
BRANCH  12   3
ATOM      3  O   UNL     1      -2.131 -11.637  15.736  0.00  0.00    -0.387 OA
ATOM     33  H   UNL     1      -1.890 -12.575  15.822  0.00  0.00    +0.210 HD
ENDBRANCH  12   3
BRANCH  10  14
ATOM     14  C   UNL     1      -3.086 -10.936  11.358  0.00  0.00    +0.130 C 
BRANCH  14  16
ATOM      4  O   UNL     1      -3.673 -12.488   9.666  0.00  0.00    -0.276 OA
ATOM      6  N   UNL     1      -4.332 -10.288   9.329  0.00  0.00    -0.298 N 
ATOM      8  N   UNL     1      -6.523  -8.719   8.489  0.00  0.00    -0.312 N 
ATOM      9  N   UNL     1      -8.471  -7.503   9.066  0.00  0.00    -0.240 NA
ATOM     16  C   UNL     1      -3.720 -11.314  10.044  0.00  0.00    +0.218 C 
ATOM     17  C   UNL     1      -4.409  -8.885   9.742  0.00  0.00    +0.126 C 
ATOM     18  C   UNL     1      -4.952 -10.558   8.034  0.00  0.00    +0.126 C 
ATOM     19  C   UNL     1      -5.861  -8.406   9.763  0.00  0.00    +0.125 C 
ATOM     20  C   UNL     1      -6.412 -10.112   8.030  0.00  0.00    +0.125 C 
ATOM     23  C   UNL     1      -7.658  -7.995   8.105  0.00  0.00    +0.121 A 
ATOM     26  C   UNL     1      -7.874  -7.831   6.746  0.00  0.00    +0.043 A 
ATOM     29  C   UNL     1      -8.997  -7.115   6.348  0.00  0.00    +0.005 A 
ATOM     30  C   UNL     1      -9.553  -6.813   8.640  0.00  0.00    +0.113 A 
ATOM     31  C   UNL     1      -9.857  -6.592   7.307  0.00  0.00    +0.020 A 
ENDBRANCH  14  16
ENDBRANCH  10  14
BRANCH  13  15
ATOM     15  C   UNL     1      -5.214 -11.702  14.866  0.00  0.00    +0.138 C 
BRANCH  15   7
ATOM      5  O   UNL     1      -5.600  -9.395  16.535  0.00  0.00    -0.276 OA
ATOM      7  N   UNL     1      -5.168 -11.662  16.308  0.00  0.00    -0.313 N 
ATOM     22  C   UNL     1      -5.367 -10.495  17.032  0.00  0.00    +0.216 C 
ATOM     34  H   UNL     1      -4.890 -12.510  16.792  0.00  0.00    +0.149 HD
BRANCH  22  21
ATOM     21  C   UNL     1      -5.250 -10.716  18.544  0.00  0.00    +0.074 C 
BRANCH  21  24
ATOM     24  C   UNL     1      -4.826 -12.154  18.891  0.00  0.00    +0.009 C 
ATOM     27  C   UNL     1      -3.407 -12.225  19.440  0.00  0.00    +0.004 C 
ENDBRANCH  21  24
BRANCH  21  25
ATOM     25  C   UNL     1      -6.566 -10.316  19.243  0.00  0.00    +0.009 C 
ATOM     28  C   UNL     1      -7.795 -11.086  18.777  0.00  0.00    +0.004 C 
ENDBRANCH  21  25
ENDBRANCH  22  21
ENDBRANCH  15   7
ENDBRANCH  13  15
TORSDOF 9
ENDMDL
MODEL 9
REMARK VINA RESULT:      -6.9     16.275     19.865
REMARK  Name = 25390377
REMARK  11 active torsions:
REMARK  status: ('A' for Active; 'I' for Inactive)
REMARK    1  A    between atoms: O_2  and  C_11
REMARK    2  A    between atoms: O_3  and  C_12
REMARK    3  A    between atoms: N_7  and  C_15
REMARK    4  A    between atoms: C_10  and  C_14
REMARK    5  A    between atoms: C_13  and  C_15
REMARK    6  A    between atoms: C_14  and  C_16
REMARK    7  A    between atoms: C_21  and  C_22
REMARK    8  A    between atoms: C_21  and  C_24
REMARK    9  A    between atoms: C_21  and  C_25
REMARK   10  A    between atoms: C_24  and  C_27
REMARK   11  A    between atoms: C_25  and  C_28
REMARK                            x       y       z     vdW  Elec       q    Type
REMARK                         _______ _______ _______ _____ _____    ______ ____
ROOT
ATOM      1  O   UNL     1      11.083   6.792   7.214  0.00  0.00    -0.366 OA
ATOM     10  C   UNL     1      10.059   6.341   8.130  0.00  0.00    +0.159 C 
ATOM     11  C   UNL     1       9.667   4.939   7.680  0.00  0.00    +0.175 C 
ATOM     12  C   UNL     1       9.949   4.995   6.192  0.00  0.00    +0.176 C 
ATOM     13  C   UNL     1      11.219   5.828   6.155  0.00  0.00    +0.167 C 
ENDROOT
BRANCH  11   2
ATOM      2  O   UNL     1      10.543   4.007   8.315  0.00  0.00    -0.387 OA
ATOM     32  H   UNL     1      10.219   3.877   9.223  0.00  0.00    +0.210 HD
ENDBRANCH  11   2
BRANCH  12   3
ATOM      3  O   UNL     1      10.133   3.722   5.610  0.00  0.00    -0.387 OA
ATOM     33  H   UNL     1       9.718   3.740   4.730  0.00  0.00    +0.210 HD
ENDBRANCH  12   3
BRANCH  10  14
ATOM     14  C   UNL     1       8.906   7.333   8.065  0.00  0.00    +0.130 C 
BRANCH  14  16
ATOM      4  O   UNL     1      10.156   9.345   8.091  0.00  0.00    -0.276 OA
ATOM      6  N   UNL     1       8.855   8.957   6.208  0.00  0.00    -0.298 N 
ATOM      8  N   UNL     1       8.912   9.093   3.389  0.00  0.00    -0.312 N 
ATOM      9  N   UNL     1       9.327   8.008   1.327  0.00  0.00    -0.240 NA
ATOM     16  C   UNL     1       9.366   8.636   7.463  0.00  0.00    +0.218 C 
ATOM     17  C   UNL     1       7.916   8.144   5.433  0.00  0.00    +0.126 C 
ATOM     18  C   UNL     1       9.228  10.212   5.559  0.00  0.00    +0.126 C 
ATOM     19  C   UNL     1       8.478   7.850   4.041  0.00  0.00    +0.125 C 
ATOM     20  C   UNL     1       9.814   9.951   4.174  0.00  0.00    +0.125 C 
ATOM     23  C   UNL     1       9.018   9.142   1.995  0.00  0.00    +0.121 A 
ATOM     26  C   UNL     1       8.797  10.366   1.385  0.00  0.00    +0.043 A 
ATOM     29  C   UNL     1       8.899  10.431  -0.000  0.00  0.00    +0.005 A 
ATOM     30  C   UNL     1       9.418   8.110  -0.018  0.00  0.00    +0.113 A 
ATOM     31  C   UNL     1       9.214   9.286  -0.723  0.00  0.00    +0.020 A 
ENDBRANCH  14  16
ENDBRANCH  10  14
BRANCH  13  15
ATOM     15  C   UNL     1      11.428   6.547   4.834  0.00  0.00    +0.138 C 
BRANCH  15   7
ATOM      5  O   UNL     1      10.108   5.054   2.763  0.00  0.00    -0.276 OA
ATOM      7  N   UNL     1      12.052   5.688   3.856  0.00  0.00    -0.313 N 
ATOM     22  C   UNL     1      11.330   5.003   2.889  0.00  0.00    +0.216 C 
ATOM     34  H   UNL     1      13.049   5.520   3.948  0.00  0.00    +0.149 HD
BRANCH  22  21
ATOM     21  C   UNL     1      12.223   4.148   1.986  0.00  0.00    +0.074 C 
BRANCH  21  24
ATOM     24  C   UNL     1      13.648   4.716   1.870  0.00  0.00    +0.009 C 
ATOM     27  C   UNL     1      14.690   3.629   1.637  0.00  0.00    +0.004 C 
ENDBRANCH  21  24
BRANCH  21  25
ATOM     25  C   UNL     1      11.560   3.963   0.605  0.00  0.00    +0.009 C 
ATOM     28  C   UNL     1      11.751   5.130  -0.356  0.00  0.00    +0.004 C 
ENDBRANCH  21  25
ENDBRANCH  22  21
ENDBRANCH  15   7
ENDBRANCH  13  15
TORSDOF 9
ENDMDL
MODEL 10
REMARK VINA RESULT:      -6.8     30.037     31.797
REMARK  Name = 25390377
REMARK  11 active torsions:
REMARK  status: ('A' for Active; 'I' for Inactive)
REMARK    1  A    between atoms: O_2  and  C_11
REMARK    2  A    between atoms: O_3  and  C_12
REMARK    3  A    between atoms: N_7  and  C_15
REMARK    4  A    between atoms: C_10  and  C_14
REMARK    5  A    between atoms: C_13  and  C_15
REMARK    6  A    between atoms: C_14  and  C_16
REMARK    7  A    between atoms: C_21  and  C_22
REMARK    8  A    between atoms: C_21  and  C_24
REMARK    9  A    between atoms: C_21  and  C_25
REMARK   10  A    between atoms: C_24  and  C_27
REMARK   11  A    between atoms: C_25  and  C_28
REMARK                            x       y       z     vdW  Elec       q    Type
REMARK                         _______ _______ _______ _____ _____    ______ ____
ROOT
ATOM      1  O   UNL     1     -15.595   2.639  31.032  0.00  0.00    -0.366 OA
ATOM     10  C   UNL     1     -15.968   2.334  29.669  0.00  0.00    +0.159 C 
ATOM     11  C   UNL     1     -15.095   1.161  29.236  0.00  0.00    +0.175 C 
ATOM     12  C   UNL     1     -13.855   1.364  30.082  0.00  0.00    +0.176 C 
ATOM     13  C   UNL     1     -14.454   1.841  31.394  0.00  0.00    +0.167 C 
ENDROOT
BRANCH  11   2
ATOM      2  O   UNL     1     -15.758  -0.047  29.611  0.00  0.00    -0.387 OA
ATOM     32  H   UNL     1     -15.546  -0.216  30.544  0.00  0.00    +0.210 HD
ENDBRANCH  11   2
BRANCH  12   3
ATOM      3  O   UNL     1     -13.091   0.187  30.244  0.00  0.00    -0.387 OA
ATOM     33  H   UNL     1     -13.476  -0.311  30.985  0.00  0.00    +0.210 HD
ENDBRANCH  12   3
BRANCH  10  14
ATOM     14  C   UNL     1     -15.742   3.586  28.833  0.00  0.00    +0.130 C 
BRANCH  14  16
ATOM      4  O   UNL     1     -17.910   4.542  28.784  0.00  0.00    -0.276 OA
ATOM      6  N   UNL     1     -17.098   3.709  26.775  0.00  0.00    -0.298 N 
ATOM      8  N   UNL     1     -16.891   4.319  24.027  0.00  0.00    -0.312 N 
ATOM      9  N   UNL     1     -15.636   5.277  22.263  0.00  0.00    -0.240 NA
ATOM     16  C   UNL     1     -17.016   3.990  28.136  0.00  0.00    +0.218 C 
ATOM     17  C   UNL     1     -16.061   3.057  25.972  0.00  0.00    +0.126 C 
ATOM     18  C   UNL     1     -18.305   4.044  26.023  0.00  0.00    +0.126 C 
ATOM     19  C   UNL     1     -15.687   3.921  24.768  0.00  0.00    +0.125 C 
ATOM     20  C   UNL     1     -17.967   4.928  24.825  0.00  0.00    +0.125 C 
ATOM     23  C   UNL     1     -16.783   4.699  22.684  0.00  0.00    +0.121 A 
ATOM     26  C   UNL     1     -17.874   4.453  21.866  0.00  0.00    +0.043 A 
ATOM     29  C   UNL     1     -17.782   4.825  20.529  0.00  0.00    +0.005 A 
ATOM     30  C   UNL     1     -15.584   5.625  20.958  0.00  0.00    +0.113 A 
ATOM     31  C   UNL     1     -16.618   5.422  20.059  0.00  0.00    +0.020 A 
ENDBRANCH  14  16
ENDBRANCH  10  14
BRANCH  13  15
ATOM     15  C   UNL     1     -13.494   2.670  32.228  0.00  0.00    +0.138 C 
BRANCH  15   7
ATOM      5  O   UNL     1     -14.282   4.143  34.567  0.00  0.00    -0.276 OA
ATOM      7  N   UNL     1     -13.900   4.055  32.282  0.00  0.00    -0.313 N 
ATOM     22  C   UNL     1     -14.265   4.684  33.463  0.00  0.00    +0.216 C 
ATOM     34  H   UNL     1     -14.001   4.547  31.400  0.00  0.00    +0.149 HD
BRANCH  22  21
ATOM     21  C   UNL     1     -14.669   6.146  33.249  0.00  0.00    +0.074 C 
BRANCH  21  24
ATOM     24  C   UNL     1     -15.094   6.425  31.797  0.00  0.00    +0.009 C 
ATOM     27  C   UNL     1     -16.528   6.931  31.698  0.00  0.00    +0.004 C 
ENDBRANCH  21  24
BRANCH  21  25
ATOM     25  C   UNL     1     -13.534   7.084  33.709  0.00  0.00    +0.009 C 
ATOM     28  C   UNL     1     -12.921   7.934  32.604  0.00  0.00    +0.004 C 
ENDBRANCH  21  25
ENDBRANCH  22  21
ENDBRANCH  15   7
ENDBRANCH  13  15
TORSDOF 9
ENDMDL
