MODEL 1
REMARK VINA RESULT:      -6.7      0.000      0.000
REMARK  Name = 75536703
REMARK  12 active torsions:
REMARK  status: ('A' for Active; 'I' for Inactive)
REMARK    1  A    between atoms: S_1  and  N_7
REMARK    2  A    between atoms: S_1  and  C_18
REMARK    3  A    between atoms: O_3  and  C_9
REMARK    4  A    between atoms: N_6  and  C_8
REMARK    5  A    between atoms: N_6  and  C_13
REMARK    6  A    between atoms: N_7  and  C_14
REMARK    7  A    between atoms: C_10  and  C_14
REMARK    8  A    between atoms: C_12  and  C_13
REMARK    9  A    between atoms: C_12  and  C_15
REMARK   10  A    between atoms: C_12  and  C_16
REMARK   11  A    between atoms: C_12  and  C_17
REMARK   12  A    between atoms: C_23  and  C_24
REMARK                            x       y       z     vdW  Elec       q    Type
REMARK                         _______ _______ _______ _____ _____    ______ ____
ROOT
ATOM      2  O   UNL     1      16.515   8.678  21.793  0.00  0.00    -0.371 OA
ATOM      8  C   UNL     1      17.714   7.197  20.376  0.00  0.00    +0.111 C 
ATOM      9  C   UNL     1      16.328   6.631  20.624  0.00  0.00    +0.164 C 
ATOM     10  C   UNL     1      15.574   7.881  21.055  0.00  0.00    +0.164 C 
ATOM     11  C   UNL     1      17.840   8.193  21.516  0.00  0.00    +0.181 C 
ENDROOT
BRANCH   9   3
ATOM      3  O   UNL     1      15.761   6.045  19.468  0.00  0.00    -0.388 OA
ATOM     26  H   UNL     1      15.013   5.489  19.743  0.00  0.00    +0.210 HD
ENDBRANCH   9   3
BRANCH   8   6
ATOM      6  N   UNL     1      18.765   6.192  20.383  0.00  0.00    -0.308 NA
ATOM     25  H   UNL     1      19.324   6.292  19.538  0.00  0.00    +0.122 HD
BRANCH   6  13
ATOM     13  C   UNL     1      19.623   6.337  21.552  0.00  0.00    +0.087 C 
BRANCH  13  12
ATOM     12  C   UNL     1      21.082   5.863  21.327  0.00  0.00    -0.025 C 
ATOM     15  C   UNL     1      21.042   4.503  20.606  0.00  0.00    +0.012 C 
ATOM     16  C   UNL     1      21.853   6.864  20.448  0.00  0.00    +0.012 C 
ATOM     17  C   UNL     1      21.823   5.687  22.665  0.00  0.00    +0.012 C 
ENDBRANCH  13  12
ENDBRANCH   6  13
ENDBRANCH   8   6
BRANCH  10  14
ATOM     14  C   UNL     1      14.363   7.584  21.922  0.00  0.00    +0.140 C 
BRANCH  14   7
ATOM      7  N   UNL     1      13.575   6.493  21.316  0.00  0.00    -0.187 NA
ATOM     27  H   UNL     1      14.118   5.696  20.959  0.00  0.00    +0.148 HD
BRANCH   7   1
ATOM      1  S   UNL     1      12.063   6.823  20.610  0.00  0.00    +0.058 S 
ATOM      4  O   UNL     1      11.056   5.969  21.211  0.00  0.00    -0.153 OA
ATOM      5  O   UNL     1      12.214   6.869  19.168  0.00  0.00    -0.153 OA
BRANCH   1  18
ATOM     18  C   UNL     1      11.766   8.479  21.151  0.00  0.00    +0.105 A 
ATOM     19  C   UNL     1      12.239   9.554  20.398  0.00  0.00    +0.029 A 
ATOM     20  C   UNL     1      11.061   8.712  22.332  0.00  0.00    +0.029 A 
ATOM     21  C   UNL     1      12.007  10.862  20.826  0.00  0.00    +0.005 A 
ATOM     22  C   UNL     1      10.829  10.020  22.760  0.00  0.00    +0.005 A 
ATOM     23  C   UNL     1      11.302  11.094  22.007  0.00  0.00    -0.050 A 
ATOM     24  C   UNL     1      11.054  12.492  22.464  0.00  0.00    +0.044 C 
ENDBRANCH   1  18
ENDBRANCH   7   1
ENDBRANCH  14   7
ENDBRANCH  10  14
TORSDOF 8
ENDMDL
MODEL 2
REMARK VINA RESULT:      -6.5      1.463      2.335
REMARK  Name = 75536703
REMARK  12 active torsions:
REMARK  status: ('A' for Active; 'I' for Inactive)
REMARK    1  A    between atoms: S_1  and  N_7
REMARK    2  A    between atoms: S_1  and  C_18
REMARK    3  A    between atoms: O_3  and  C_9
REMARK    4  A    between atoms: N_6  and  C_8
REMARK    5  A    between atoms: N_6  and  C_13
REMARK    6  A    between atoms: N_7  and  C_14
REMARK    7  A    between atoms: C_10  and  C_14
REMARK    8  A    between atoms: C_12  and  C_13
REMARK    9  A    between atoms: C_12  and  C_15
REMARK   10  A    between atoms: C_12  and  C_16
REMARK   11  A    between atoms: C_12  and  C_17
REMARK   12  A    between atoms: C_23  and  C_24
REMARK                            x       y       z     vdW  Elec       q    Type
REMARK                         _______ _______ _______ _____ _____    ______ ____
ROOT
ATOM      2  O   UNL     1      16.365   6.052  18.978  0.00  0.00    -0.371 OA
ATOM      8  C   UNL     1      17.244   6.340  21.165  0.00  0.00    +0.111 C 
ATOM      9  C   UNL     1      15.959   7.137  21.041  0.00  0.00    +0.164 C 
ATOM     10  C   UNL     1      15.297   6.442  19.859  0.00  0.00    +0.164 C 
ATOM     11  C   UNL     1      17.603   6.118  19.706  0.00  0.00    +0.181 C 
ENDROOT
BRANCH   9   3
ATOM      3  O   UNL     1      15.160   7.072  22.206  0.00  0.00    -0.388 OA
ATOM     26  H   UNL     1      14.486   6.383  22.076  0.00  0.00    +0.210 HD
ENDBRANCH   9   3
BRANCH   8   6
ATOM      6  N   UNL     1      18.289   7.029  21.907  0.00  0.00    -0.308 NA
ATOM     25  H   UNL     1      18.277   6.705  22.873  0.00  0.00    +0.122 HD
BRANCH   6  13
ATOM     13  C   UNL     1      19.601   6.772  21.327  0.00  0.00    +0.087 C 
BRANCH  13  12
ATOM     12  C   UNL     1      20.603   7.945  21.487  0.00  0.00    -0.025 C 
ATOM     15  C   UNL     1      21.189   7.888  22.911  0.00  0.00    +0.012 C 
ATOM     16  C   UNL     1      21.757   7.821  20.475  0.00  0.00    +0.012 C 
ATOM     17  C   UNL     1      19.906   9.304  21.299  0.00  0.00    +0.012 C 
ENDBRANCH  13  12
ENDBRANCH   6  13
ENDBRANCH   8   6
BRANCH  10  14
ATOM     14  C   UNL     1      14.316   7.329  19.113  0.00  0.00    +0.140 C 
BRANCH  14   7
ATOM      7  N   UNL     1      13.673   8.261  20.059  0.00  0.00    -0.187 NA
ATOM     27  H   UNL     1      14.312   8.803  20.655  0.00  0.00    +0.148 HD
BRANCH   7   1
ATOM      1  S   UNL     1      12.103   7.946  20.634  0.00  0.00    +0.058 S 
ATOM      4  O   UNL     1      12.159   6.889  21.627  0.00  0.00    -0.153 OA
ATOM      5  O   UNL     1      11.200   7.838  19.504  0.00  0.00    -0.153 OA
BRANCH   1  18
ATOM     18  C   UNL     1      11.712   9.455  21.465  0.00  0.00    +0.105 A 
ATOM     19  C   UNL     1      11.120   9.423  22.727  0.00  0.00    +0.029 A 
ATOM     20  C   UNL     1      11.994  10.679  20.857  0.00  0.00    +0.029 A 
ATOM     21  C   UNL     1      10.809  10.615  23.383  0.00  0.00    +0.005 A 
ATOM     22  C   UNL     1      11.683  11.871  21.513  0.00  0.00    +0.005 A 
ATOM     23  C   UNL     1      11.090  11.839  22.775  0.00  0.00    -0.050 A 
ATOM     24  C   UNL     1      10.757  13.113  23.475  0.00  0.00    +0.044 C 
ENDBRANCH   1  18
ENDBRANCH   7   1
ENDBRANCH  14   7
ENDBRANCH  10  14
TORSDOF 8
ENDMDL
MODEL 3
REMARK VINA RESULT:      -6.1     26.938     29.421
REMARK  Name = 75536703
REMARK  12 active torsions:
REMARK  status: ('A' for Active; 'I' for Inactive)
REMARK    1  A    between atoms: S_1  and  N_7
REMARK    2  A    between atoms: S_1  and  C_18
REMARK    3  A    between atoms: O_3  and  C_9
REMARK    4  A    between atoms: N_6  and  C_8
REMARK    5  A    between atoms: N_6  and  C_13
REMARK    6  A    between atoms: N_7  and  C_14
REMARK    7  A    between atoms: C_10  and  C_14
REMARK    8  A    between atoms: C_12  and  C_13
REMARK    9  A    between atoms: C_12  and  C_15
REMARK   10  A    between atoms: C_12  and  C_16
REMARK   11  A    between atoms: C_12  and  C_17
REMARK   12  A    between atoms: C_23  and  C_24
REMARK                            x       y       z     vdW  Elec       q    Type
REMARK                         _______ _______ _______ _____ _____    ______ ____
ROOT
ATOM      2  O   UNL     1      -6.377 -11.375  18.388  0.00  0.00    -0.371 OA
ATOM      8  C   UNL     1      -7.966  -9.926  17.382  0.00  0.00    +0.111 C 
ATOM      9  C   UNL     1      -6.593  -9.626  16.811  0.00  0.00    +0.164 C 
ATOM     10  C   UNL     1      -5.856 -10.920  17.129  0.00  0.00    +0.164 C 
ATOM     11  C   UNL     1      -7.607 -10.677  18.652  0.00  0.00    +0.181 C 
ENDROOT
BRANCH   9   3
ATOM      3  O   UNL     1      -6.624  -9.365  15.421  0.00  0.00    -0.388 OA
ATOM     26  H   UNL     1      -5.932  -8.713  15.218  0.00  0.00    +0.210 HD
ENDBRANCH   9   3
BRANCH   8   6
ATOM      6  N   UNL     1      -8.765  -8.737  17.635  0.00  0.00    -0.308 NA
ATOM     25  H   UNL     1      -8.567  -8.046  16.913  0.00  0.00    +0.122 HD
BRANCH   6  13
ATOM     13  C   UNL     1     -10.188  -9.049  17.629  0.00  0.00    +0.087 C 
BRANCH  13  12
ATOM     12  C   UNL     1     -10.992  -8.315  16.524  0.00  0.00    -0.025 C 
ATOM     15  C   UNL     1     -12.468  -8.742  16.636  0.00  0.00    +0.012 C 
ATOM     16  C   UNL     1     -10.906  -6.789  16.706  0.00  0.00    +0.012 C 
ATOM     17  C   UNL     1     -10.480  -8.688  15.121  0.00  0.00    +0.012 C 
ENDBRANCH  13  12
ENDBRANCH   6  13
ENDBRANCH   8   6
BRANCH  10  14
ATOM     14  C   UNL     1      -4.351 -10.744  17.231  0.00  0.00    +0.140 C 
BRANCH  14   7
ATOM      7  N   UNL     1      -3.815 -10.300  15.929  0.00  0.00    -0.187 NA
ATOM     27  H   UNL     1      -4.330  -9.538  15.472  0.00  0.00    +0.148 HD
BRANCH   7   1
ATOM      1  S   UNL     1      -2.936 -11.383  14.955  0.00  0.00    +0.058 S 
ATOM      4  O   UNL     1      -3.567 -12.689  14.999  0.00  0.00    -0.153 OA
ATOM      5  O   UNL     1      -1.523 -11.246  15.252  0.00  0.00    -0.153 OA
BRANCH   1  18
ATOM     18  C   UNL     1      -3.192 -10.708  13.342  0.00  0.00    +0.105 A 
ATOM     19  C   UNL     1      -4.483 -10.403  12.911  0.00  0.00    +0.029 A 
ATOM     20  C   UNL     1      -2.103 -10.481  12.500  0.00  0.00    +0.029 A 
ATOM     21  C   UNL     1      -4.686  -9.872  11.637  0.00  0.00    +0.005 A 
ATOM     22  C   UNL     1      -2.306  -9.950  11.226  0.00  0.00    +0.005 A 
ATOM     23  C   UNL     1      -3.597  -9.646  10.794  0.00  0.00    -0.050 A 
ATOM     24  C   UNL     1      -3.813  -9.078   9.432  0.00  0.00    +0.044 C 
ENDBRANCH   1  18
ENDBRANCH   7   1
ENDBRANCH  14   7
ENDBRANCH  10  14
TORSDOF 8
ENDMDL
MODEL 4
REMARK VINA RESULT:      -6.1     31.100     32.915
REMARK  Name = 75536703
REMARK  12 active torsions:
REMARK  status: ('A' for Active; 'I' for Inactive)
REMARK    1  A    between atoms: S_1  and  N_7
REMARK    2  A    between atoms: S_1  and  C_18
REMARK    3  A    between atoms: O_3  and  C_9
REMARK    4  A    between atoms: N_6  and  C_8
REMARK    5  A    between atoms: N_6  and  C_13
REMARK    6  A    between atoms: N_7  and  C_14
REMARK    7  A    between atoms: C_10  and  C_14
REMARK    8  A    between atoms: C_12  and  C_13
REMARK    9  A    between atoms: C_12  and  C_15
REMARK   10  A    between atoms: C_12  and  C_16
REMARK   11  A    between atoms: C_12  and  C_17
REMARK   12  A    between atoms: C_23  and  C_24
REMARK                            x       y       z     vdW  Elec       q    Type
REMARK                         _______ _______ _______ _____ _____    ______ ____
ROOT
ATOM      2  O   UNL     1     -14.785   0.288  32.383  0.00  0.00    -0.371 OA
ATOM      8  C   UNL     1     -14.546   0.241  30.021  0.00  0.00    +0.111 C 
ATOM      9  C   UNL     1     -14.170   1.620  30.529  0.00  0.00    +0.164 C 
ATOM     10  C   UNL     1     -13.867   1.321  31.990  0.00  0.00    +0.164 C 
ATOM     11  C   UNL     1     -15.339  -0.306  31.196  0.00  0.00    +0.181 C 
ENDROOT
BRANCH   9   3
ATOM      3  O   UNL     1     -13.049   2.163  29.858  0.00  0.00    -0.388 OA
ATOM     26  H   UNL     1     -12.297   2.168  30.474  0.00  0.00    +0.210 HD
ENDBRANCH   9   3
BRANCH   8   6
ATOM      6  N   UNL     1     -15.311   0.263  28.784  0.00  0.00    -0.308 NA
ATOM     25  H   UNL     1     -15.533  -0.694  28.515  0.00  0.00    +0.122 HD
BRANCH   6  13
ATOM     13  C   UNL     1     -16.547   1.019  28.943  0.00  0.00    +0.087 C 
BRANCH  13  12
ATOM     12  C   UNL     1     -16.925   1.880  27.711  0.00  0.00    -0.025 C 
ATOM     15  C   UNL     1     -18.387   2.339  27.873  0.00  0.00    +0.012 C 
ATOM     16  C   UNL     1     -16.026   3.127  27.617  0.00  0.00    +0.012 C 
ATOM     17  C   UNL     1     -16.808   1.070  26.407  0.00  0.00    +0.012 C 
ENDBRANCH  13  12
ENDBRANCH   6  13
ENDBRANCH   8   6
BRANCH  10  14
ATOM     14  C   UNL     1     -14.034   2.527  32.897  0.00  0.00    +0.140 C 
BRANCH  14   7
ATOM      7  N   UNL     1     -15.445   2.643  33.312  0.00  0.00    -0.187 NA
ATOM     27  H   UNL     1     -15.939   1.756  33.467  0.00  0.00    +0.148 HD
BRANCH   7   1
ATOM      1  S   UNL     1     -16.356   4.009  32.865  0.00  0.00    +0.058 S 
ATOM      4  O   UNL     1     -17.495   4.139  33.754  0.00  0.00    -0.153 OA
ATOM      5  O   UNL     1     -16.551   3.996  31.427  0.00  0.00    -0.153 OA
BRANCH   1  18
ATOM     18  C   UNL     1     -15.232   5.325  33.221  0.00  0.00    +0.105 A 
ATOM     19  C   UNL     1     -14.759   5.506  34.520  0.00  0.00    +0.029 A 
ATOM     20  C   UNL     1     -14.820   6.186  32.202  0.00  0.00    +0.029 A 
ATOM     21  C   UNL     1     -13.873   6.547  34.802  0.00  0.00    +0.005 A 
ATOM     22  C   UNL     1     -13.935   7.226  32.484  0.00  0.00    +0.005 A 
ATOM     23  C   UNL     1     -13.462   7.407  33.784  0.00  0.00    -0.050 A 
ATOM     24  C   UNL     1     -12.515   8.520  34.085  0.00  0.00    +0.044 C 
ENDBRANCH   1  18
ENDBRANCH   7   1
ENDBRANCH  14   7
ENDBRANCH  10  14
TORSDOF 8
ENDMDL
MODEL 5
REMARK VINA RESULT:      -6.1      2.695      3.742
REMARK  Name = 75536703
REMARK  12 active torsions:
REMARK  status: ('A' for Active; 'I' for Inactive)
REMARK    1  A    between atoms: S_1  and  N_7
REMARK    2  A    between atoms: S_1  and  C_18
REMARK    3  A    between atoms: O_3  and  C_9
REMARK    4  A    between atoms: N_6  and  C_8
REMARK    5  A    between atoms: N_6  and  C_13
REMARK    6  A    between atoms: N_7  and  C_14
REMARK    7  A    between atoms: C_10  and  C_14
REMARK    8  A    between atoms: C_12  and  C_13
REMARK    9  A    between atoms: C_12  and  C_15
REMARK   10  A    between atoms: C_12  and  C_16
REMARK   11  A    between atoms: C_12  and  C_17
REMARK   12  A    between atoms: C_23  and  C_24
REMARK                            x       y       z     vdW  Elec       q    Type
REMARK                         _______ _______ _______ _____ _____    ______ ____
ROOT
ATOM      2  O   UNL     1      17.182   5.941  19.169  0.00  0.00    -0.371 OA
ATOM      8  C   UNL     1      17.747   6.560  21.391  0.00  0.00    +0.111 C 
ATOM      9  C   UNL     1      16.370   7.104  21.062  0.00  0.00    +0.164 C 
ATOM     10  C   UNL     1      15.971   6.207  19.898  0.00  0.00    +0.164 C 
ATOM     11  C   UNL     1      18.301   6.285  20.004  0.00  0.00    +0.181 C 
ENDROOT
BRANCH   9   3
ATOM      3  O   UNL     1      15.466   6.996  22.144  0.00  0.00    -0.388 OA
ATOM     26  H   UNL     1      15.902   7.340  22.942  0.00  0.00    +0.210 HD
ENDBRANCH   9   3
BRANCH   8   6
ATOM      6  N   UNL     1      18.571   7.483  22.157  0.00  0.00    -0.308 NA
ATOM     25  H   UNL     1      18.214   7.531  23.110  0.00  0.00    +0.122 HD
BRANCH   6  13
ATOM     13  C   UNL     1      19.961   7.048  22.183  0.00  0.00    +0.087 C 
BRANCH  13  12
ATOM     12  C   UNL     1      20.969   8.123  21.699  0.00  0.00    -0.025 C 
ATOM     15  C   UNL     1      21.969   8.395  22.839  0.00  0.00    +0.012 C 
ATOM     16  C   UNL     1      21.750   7.626  20.468  0.00  0.00    +0.012 C 
ATOM     17  C   UNL     1      20.254   9.440  21.349  0.00  0.00    +0.012 C 
ENDBRANCH  13  12
ENDBRANCH   6  13
ENDBRANCH   8   6
BRANCH  10  14
ATOM     14  C   UNL     1      14.946   6.841  18.974  0.00  0.00    +0.140 C 
BRANCH  14   7
ATOM      7  N   UNL     1      13.606   6.752  19.586  0.00  0.00    -0.187 NA
ATOM     27  H   UNL     1      13.108   5.866  19.440  0.00  0.00    +0.148 HD
BRANCH   7   1
ATOM      1  S   UNL     1      12.691   8.164  19.842  0.00  0.00    +0.058 S 
ATOM      4  O   UNL     1      13.212   8.870  20.998  0.00  0.00    -0.153 OA
ATOM      5  O   UNL     1      11.281   7.832  19.764  0.00  0.00    -0.153 OA
BRANCH   1  18
ATOM     18  C   UNL     1      13.078   9.112  18.403  0.00  0.00    +0.105 A 
ATOM     19  C   UNL     1      13.957  10.192  18.494  0.00  0.00    +0.029 A 
ATOM     20  C   UNL     1      12.503   8.783  17.175  0.00  0.00    +0.029 A 
ATOM     21  C   UNL     1      14.260  10.943  17.358  0.00  0.00    +0.005 A 
ATOM     22  C   UNL     1      12.806   9.534  16.039  0.00  0.00    +0.005 A 
ATOM     23  C   UNL     1      13.685  10.614  16.131  0.00  0.00    -0.050 A 
ATOM     24  C   UNL     1      14.009  11.417  14.916  0.00  0.00    +0.044 C 
ENDBRANCH   1  18
ENDBRANCH   7   1
ENDBRANCH  14   7
ENDBRANCH  10  14
TORSDOF 8
ENDMDL
MODEL 6
REMARK VINA RESULT:      -6.0      1.888      2.673
REMARK  Name = 75536703
REMARK  12 active torsions:
REMARK  status: ('A' for Active; 'I' for Inactive)
REMARK    1  A    between atoms: S_1  and  N_7
REMARK    2  A    between atoms: S_1  and  C_18
REMARK    3  A    between atoms: O_3  and  C_9
REMARK    4  A    between atoms: N_6  and  C_8
REMARK    5  A    between atoms: N_6  and  C_13
REMARK    6  A    between atoms: N_7  and  C_14
REMARK    7  A    between atoms: C_10  and  C_14
REMARK    8  A    between atoms: C_12  and  C_13
REMARK    9  A    between atoms: C_12  and  C_15
REMARK   10  A    between atoms: C_12  and  C_16
REMARK   11  A    between atoms: C_12  and  C_17
REMARK   12  A    between atoms: C_23  and  C_24
REMARK                            x       y       z     vdW  Elec       q    Type
REMARK                         _______ _______ _______ _____ _____    ______ ____
ROOT
ATOM      2  O   UNL     1      16.353   9.995  20.977  0.00  0.00    -0.371 OA
ATOM      8  C   UNL     1      16.907   7.685  20.970  0.00  0.00    +0.111 C 
ATOM      9  C   UNL     1      15.603   7.879  21.721  0.00  0.00    +0.164 C 
ATOM     10  C   UNL     1      15.154   9.230  21.184  0.00  0.00    +0.164 C 
ATOM     11  C   UNL     1      17.475   9.094  20.985  0.00  0.00    +0.181 C 
ENDROOT
BRANCH   9   3
ATOM      3  O   UNL     1      14.659   6.862  21.448  0.00  0.00    -0.388 OA
ATOM     26  H   UNL     1      14.254   7.046  20.583  0.00  0.00    +0.210 HD
ENDBRANCH   9   3
BRANCH   8   6
ATOM      6  N   UNL     1      17.795   6.711  21.583  0.00  0.00    -0.308 NA
ATOM     25  H   UNL     1      17.239   5.934  21.939  0.00  0.00    +0.122 HD
BRANCH   6  13
ATOM     13  C   UNL     1      18.768   6.208  20.622  0.00  0.00    +0.087 C 
BRANCH  13  12
ATOM     12  C   UNL     1      20.226   6.184  21.150  0.00  0.00    -0.025 C 
ATOM     15  C   UNL     1      20.985   7.370  20.526  0.00  0.00    +0.012 C 
ATOM     16  C   UNL     1      20.255   6.333  22.682  0.00  0.00    +0.012 C 
ATOM     17  C   UNL     1      20.942   4.881  20.753  0.00  0.00    +0.012 C 
ENDBRANCH  13  12
ENDBRANCH   6  13
ENDBRANCH   8   6
BRANCH  10  14
ATOM     14  C   UNL     1      14.229   9.975  22.130  0.00  0.00    +0.140 C 
BRANCH  14   7
ATOM      7  N   UNL     1      13.126   9.087  22.547  0.00  0.00    -0.187 NA
ATOM     27  H   UNL     1      13.393   8.119  22.767  0.00  0.00    +0.148 HD
BRANCH   7   1
ATOM      1  S   UNL     1      11.540   9.388  22.012  0.00  0.00    +0.058 S 
ATOM      4  O   UNL     1      10.646   8.394  22.575  0.00  0.00    -0.153 OA
ATOM      5  O   UNL     1      11.561   9.622  20.580  0.00  0.00    -0.153 OA
BRANCH   1  18
ATOM     18  C   UNL     1      11.187  10.938  22.783  0.00  0.00    +0.105 A 
ATOM     19  C   UNL     1      11.003  11.005  24.164  0.00  0.00    +0.029 A 
ATOM     20  C   UNL     1      11.089  12.096  22.010  0.00  0.00    +0.029 A 
ATOM     21  C   UNL     1      10.722  12.228  24.773  0.00  0.00    +0.005 A 
ATOM     22  C   UNL     1      10.808  13.319  22.618  0.00  0.00    +0.005 A 
ATOM     23  C   UNL     1      10.624  13.386  23.999  0.00  0.00    -0.050 A 
ATOM     24  C   UNL     1      10.323  14.694  24.650  0.00  0.00    +0.044 C 
ENDBRANCH   1  18
ENDBRANCH   7   1
ENDBRANCH  14   7
ENDBRANCH  10  14
TORSDOF 8
ENDMDL
MODEL 7
REMARK VINA RESULT:      -6.0     31.871     33.450
REMARK  Name = 75536703
REMARK  12 active torsions:
REMARK  status: ('A' for Active; 'I' for Inactive)
REMARK    1  A    between atoms: S_1  and  N_7
REMARK    2  A    between atoms: S_1  and  C_18
REMARK    3  A    between atoms: O_3  and  C_9
REMARK    4  A    between atoms: N_6  and  C_8
REMARK    5  A    between atoms: N_6  and  C_13
REMARK    6  A    between atoms: N_7  and  C_14
REMARK    7  A    between atoms: C_10  and  C_14
REMARK    8  A    between atoms: C_12  and  C_13
REMARK    9  A    between atoms: C_12  and  C_15
REMARK   10  A    between atoms: C_12  and  C_16
REMARK   11  A    between atoms: C_12  and  C_17
REMARK   12  A    between atoms: C_23  and  C_24
REMARK                            x       y       z     vdW  Elec       q    Type
REMARK                         _______ _______ _______ _____ _____    ______ ____
ROOT
ATOM      2  O   UNL     1     -16.395   0.584  28.574  0.00  0.00    -0.371 OA
ATOM      8  C   UNL     1     -16.004   2.797  27.809  0.00  0.00    +0.111 C 
ATOM      9  C   UNL     1     -15.364   2.626  29.174  0.00  0.00    +0.164 C 
ATOM     10  C   UNL     1     -15.242   1.110  29.251  0.00  0.00    +0.164 C 
ATOM     11  C   UNL     1     -16.981   1.635  27.786  0.00  0.00    +0.181 C 
ENDROOT
BRANCH   9   3
ATOM      3  O   UNL     1     -14.104   3.262  29.271  0.00  0.00    -0.388 OA
ATOM     26  H   UNL     1     -14.236   4.141  29.665  0.00  0.00    +0.210 HD
ENDBRANCH   9   3
BRANCH   8   6
ATOM      6  N   UNL     1     -16.653   4.086  27.627  0.00  0.00    -0.308 NA
ATOM     25  H   UNL     1     -16.729   4.280  26.629  0.00  0.00    +0.122 HD
BRANCH   6  13
ATOM     13  C   UNL     1     -17.982   4.094  28.224  0.00  0.00    +0.087 C 
BRANCH  13  12
ATOM     12  C   UNL     1     -18.139   5.085  29.406  0.00  0.00    -0.025 C 
ATOM     15  C   UNL     1     -18.381   4.269  30.690  0.00  0.00    +0.012 C 
ATOM     16  C   UNL     1     -16.862   5.924  29.590  0.00  0.00    +0.012 C 
ATOM     17  C   UNL     1     -19.338   6.025  29.191  0.00  0.00    +0.012 C 
ENDBRANCH  13  12
ENDBRANCH   6  13
ENDBRANCH   8   6
BRANCH  10  14
ATOM     14  C   UNL     1     -15.198   0.583  30.674  0.00  0.00    +0.140 C 
BRANCH  14   7
ATOM      7  N   UNL     1     -15.547   1.665  31.615  0.00  0.00    -0.187 NA
ATOM     27  H   UNL     1     -16.309   2.286  31.317  0.00  0.00    +0.148 HD
BRANCH   7   1
ATOM      1  S   UNL     1     -14.373   2.278  32.682  0.00  0.00    +0.058 S 
ATOM      4  O   UNL     1     -13.080   2.280  32.024  0.00  0.00    -0.153 OA
ATOM      5  O   UNL     1     -14.532   1.641  33.976  0.00  0.00    -0.153 OA
BRANCH   1  18
ATOM     18  C   UNL     1     -14.893   3.957  32.866  0.00  0.00    +0.105 A 
ATOM     19  C   UNL     1     -16.092   4.248  33.516  0.00  0.00    +0.029 A 
ATOM     20  C   UNL     1     -14.105   4.991  32.360  0.00  0.00    +0.029 A 
ATOM     21  C   UNL     1     -16.505   5.573  33.659  0.00  0.00    +0.005 A 
ATOM     22  C   UNL     1     -14.518   6.316  32.503  0.00  0.00    +0.005 A 
ATOM     23  C   UNL     1     -15.717   6.607  33.153  0.00  0.00    -0.050 A 
ATOM     24  C   UNL     1     -16.158   8.024  33.305  0.00  0.00    +0.044 C 
ENDBRANCH   1  18
ENDBRANCH   7   1
ENDBRANCH  14   7
ENDBRANCH  10  14
TORSDOF 8
ENDMDL
MODEL 8
REMARK VINA RESULT:      -5.9      2.159      3.129
REMARK  Name = 75536703
REMARK  12 active torsions:
REMARK  status: ('A' for Active; 'I' for Inactive)
REMARK    1  A    between atoms: S_1  and  N_7
REMARK    2  A    between atoms: S_1  and  C_18
REMARK    3  A    between atoms: O_3  and  C_9
REMARK    4  A    between atoms: N_6  and  C_8
REMARK    5  A    between atoms: N_6  and  C_13
REMARK    6  A    between atoms: N_7  and  C_14
REMARK    7  A    between atoms: C_10  and  C_14
REMARK    8  A    between atoms: C_12  and  C_13
REMARK    9  A    between atoms: C_12  and  C_15
REMARK   10  A    between atoms: C_12  and  C_16
REMARK   11  A    between atoms: C_12  and  C_17
REMARK   12  A    between atoms: C_23  and  C_24
REMARK                            x       y       z     vdW  Elec       q    Type
REMARK                         _______ _______ _______ _____ _____    ______ ____
ROOT
ATOM      2  O   UNL     1      16.445   5.803  18.852  0.00  0.00    -0.371 OA
ATOM      8  C   UNL     1      17.999   6.370  20.556  0.00  0.00    +0.111 C 
ATOM      9  C   UNL     1      16.914   7.429  20.504  0.00  0.00    +0.164 C 
ATOM     10  C   UNL     1      15.799   6.671  19.797  0.00  0.00    +0.164 C 
ATOM     11  C   UNL     1      17.838   5.707  19.199  0.00  0.00    +0.181 C 
ENDROOT
BRANCH   9   3
ATOM      3  O   UNL     1      16.520   7.872  21.788  0.00  0.00    -0.388 OA
ATOM     26  H   UNL     1      17.321   8.079  22.299  0.00  0.00    +0.210 HD
ENDBRANCH   9   3
BRANCH   8   6
ATOM      6  N   UNL     1      19.333   6.911  20.767  0.00  0.00    -0.308 NA
ATOM     25  H   UNL     1      19.257   7.904  20.981  0.00  0.00    +0.122 HD
BRANCH   6  13
ATOM     13  C   UNL     1      20.009   6.229  21.863  0.00  0.00    +0.087 C 
BRANCH  13  12
ATOM     12  C   UNL     1      21.371   5.600  21.473  0.00  0.00    -0.025 C 
ATOM     15  C   UNL     1      21.099   4.244  20.794  0.00  0.00    +0.012 C 
ATOM     16  C   UNL     1      22.127   6.503  20.481  0.00  0.00    +0.012 C 
ATOM     17  C   UNL     1      22.250   5.359  22.713  0.00  0.00    +0.012 C 
ENDBRANCH  13  12
ENDBRANCH   6  13
ENDBRANCH   8   6
BRANCH  10  14
ATOM     14  C   UNL     1      14.820   7.579  19.073  0.00  0.00    +0.140 C 
BRANCH  14   7
ATOM      7  N   UNL     1      13.446   7.074  19.260  0.00  0.00    -0.187 NA
ATOM     27  H   UNL     1      13.356   6.058  19.382  0.00  0.00    +0.148 HD
BRANCH   7   1
ATOM      1  S   UNL     1      12.128   7.931  18.608  0.00  0.00    +0.058 S 
ATOM      4  O   UNL     1      11.104   8.084  19.625  0.00  0.00    -0.153 OA
ATOM      5  O   UNL     1      11.791   7.367  17.314  0.00  0.00    -0.153 OA
BRANCH   1  18
ATOM     18  C   UNL     1      12.841   9.519  18.309  0.00  0.00    +0.105 A 
ATOM     19  C   UNL     1      12.881  10.470  19.329  0.00  0.00    +0.029 A 
ATOM     20  C   UNL     1      13.362   9.824  17.051  0.00  0.00    +0.029 A 
ATOM     21  C   UNL     1      13.442  11.725  19.092  0.00  0.00    +0.005 A 
ATOM     22  C   UNL     1      13.923  11.079  16.814  0.00  0.00    +0.005 A 
ATOM     23  C   UNL     1      13.963  12.029  17.834  0.00  0.00    -0.050 A 
ATOM     24  C   UNL     1      14.563  13.371  17.580  0.00  0.00    +0.044 C 
ENDBRANCH   1  18
ENDBRANCH   7   1
ENDBRANCH  14   7
ENDBRANCH  10  14
TORSDOF 8
ENDMDL
MODEL 9
REMARK VINA RESULT:      -5.9     26.827     28.827
REMARK  Name = 75536703
REMARK  12 active torsions:
REMARK  status: ('A' for Active; 'I' for Inactive)
REMARK    1  A    between atoms: S_1  and  N_7
REMARK    2  A    between atoms: S_1  and  C_18
REMARK    3  A    between atoms: O_3  and  C_9
REMARK    4  A    between atoms: N_6  and  C_8
REMARK    5  A    between atoms: N_6  and  C_13
REMARK    6  A    between atoms: N_7  and  C_14
REMARK    7  A    between atoms: C_10  and  C_14
REMARK    8  A    between atoms: C_12  and  C_13
REMARK    9  A    between atoms: C_12  and  C_15
REMARK   10  A    between atoms: C_12  and  C_16
REMARK   11  A    between atoms: C_12  and  C_17
REMARK   12  A    between atoms: C_23  and  C_24
REMARK                            x       y       z     vdW  Elec       q    Type
REMARK                         _______ _______ _______ _____ _____    ______ ____
ROOT
ATOM      2  O   UNL     1      -5.214 -12.492  15.926  0.00  0.00    -0.371 OA
ATOM      8  C   UNL     1      -3.423 -11.417  14.798  0.00  0.00    +0.111 C 
ATOM      9  C   UNL     1      -3.320 -11.123  16.283  0.00  0.00    +0.164 C 
ATOM     10  C   UNL     1      -4.151 -12.258  16.864  0.00  0.00    +0.164 C 
ATOM     11  C   UNL     1      -4.870 -11.863  14.680  0.00  0.00    +0.181 C 
ENDROOT
BRANCH   9   3
ATOM      3  O   UNL     1      -1.986 -11.150  16.754  0.00  0.00    -0.388 OA
ATOM     26  H   UNL     1      -2.006 -11.221  17.723  0.00  0.00    +0.210 HD
ENDBRANCH   9   3
BRANCH   8   6
ATOM      6  N   UNL     1      -3.113 -10.274  13.953  0.00  0.00    -0.308 NA
ATOM     25  H   UNL     1      -2.127 -10.310  13.697  0.00  0.00    +0.122 HD
BRANCH   6  13
ATOM     13  C   UNL     1      -3.927 -10.276  12.745  0.00  0.00    +0.087 C 
BRANCH  13  12
ATOM     12  C   UNL     1      -3.113 -10.430  11.434  0.00  0.00    -0.025 C 
ATOM     15  C   UNL     1      -1.632 -10.148  11.750  0.00  0.00    +0.012 C 
ATOM     16  C   UNL     1      -3.234 -11.860  10.879  0.00  0.00    +0.012 C 
ATOM     17  C   UNL     1      -3.585  -9.428  10.364  0.00  0.00    +0.012 C 
ENDBRANCH  13  12
ENDBRANCH   6  13
ENDBRANCH   8   6
BRANCH  10  14
ATOM     14  C   UNL     1      -4.733 -11.937  18.230  0.00  0.00    +0.140 C 
BRANCH  14   7
ATOM      7  N   UNL     1      -6.162 -12.304  18.258  0.00  0.00    -0.187 NA
ATOM     27  H   UNL     1      -6.608 -12.429  17.341  0.00  0.00    +0.148 HD
BRANCH   7   1
ATOM      1  S   UNL     1      -7.135 -11.844  19.575  0.00  0.00    +0.058 S 
ATOM      4  O   UNL     1      -6.330 -11.110  20.533  0.00  0.00    -0.153 OA
ATOM      5  O   UNL     1      -7.919 -12.987  20.005  0.00  0.00    -0.153 OA
BRANCH   1  18
ATOM     18  C   UNL     1      -8.255 -10.706  18.818  0.00  0.00    +0.105 A 
ATOM     19  C   UNL     1      -7.798  -9.825  17.839  0.00  0.00    +0.029 A 
ATOM     20  C   UNL     1      -9.596 -10.688  19.202  0.00  0.00    +0.029 A 
ATOM     21  C   UNL     1      -8.681  -8.925  17.242  0.00  0.00    +0.005 A 
ATOM     22  C   UNL     1     -10.480  -9.787  18.606  0.00  0.00    +0.005 A 
ATOM     23  C   UNL     1     -10.022  -8.906  17.626  0.00  0.00    -0.050 A 
ATOM     24  C   UNL     1     -10.967  -7.944  16.989  0.00  0.00    +0.044 C 
ENDBRANCH   1  18
ENDBRANCH   7   1
ENDBRANCH  14   7
ENDBRANCH  10  14
TORSDOF 8
ENDMDL
MODEL 10
REMARK VINA RESULT:      -5.9     14.941     15.852
REMARK  Name = 75536703
REMARK  12 active torsions:
REMARK  status: ('A' for Active; 'I' for Inactive)
REMARK    1  A    between atoms: S_1  and  N_7
REMARK    2  A    between atoms: S_1  and  C_18
REMARK    3  A    between atoms: O_3  and  C_9
REMARK    4  A    between atoms: N_6  and  C_8
REMARK    5  A    between atoms: N_6  and  C_13
REMARK    6  A    between atoms: N_7  and  C_14
REMARK    7  A    between atoms: C_10  and  C_14
REMARK    8  A    between atoms: C_12  and  C_13
REMARK    9  A    between atoms: C_12  and  C_15
REMARK   10  A    between atoms: C_12  and  C_16
REMARK   11  A    between atoms: C_12  and  C_17
REMARK   12  A    between atoms: C_23  and  C_24
REMARK                            x       y       z     vdW  Elec       q    Type
REMARK                         _______ _______ _______ _____ _____    ______ ____
ROOT
ATOM      2  O   UNL     1      14.632   9.262   5.334  0.00  0.00    -0.371 OA
ATOM      8  C   UNL     1      16.404   8.240   4.128  0.00  0.00    +0.111 C 
ATOM      9  C   UNL     1      15.368   7.186   4.472  0.00  0.00    +0.164 C 
ATOM     10  C   UNL     1      14.143   8.054   4.729  0.00  0.00    +0.164 C 
ATOM     11  C   UNL     1      16.051   9.342   5.112  0.00  0.00    +0.181 C 
ENDROOT
BRANCH   9   3
ATOM      3  O   UNL     1      15.151   6.267   3.418  0.00  0.00    -0.388 OA
ATOM     26  H   UNL     1      15.404   5.381   3.729  0.00  0.00    +0.210 HD
ENDBRANCH   9   3
BRANCH   8   6
ATOM      6  N   UNL     1      17.775   7.776   4.265  0.00  0.00    -0.308 NA
ATOM     25  H   UNL     1      18.290   8.010   3.417  0.00  0.00    +0.122 HD
BRANCH   6  13
ATOM     13  C   UNL     1      18.427   8.395   5.412  0.00  0.00    +0.087 C 
BRANCH  13  12
ATOM     12  C   UNL     1      19.975   8.313   5.380  0.00  0.00    -0.025 C 
ATOM     15  C   UNL     1      20.514   9.607   4.740  0.00  0.00    +0.012 C 
ATOM     16  C   UNL     1      20.546   8.194   6.805  0.00  0.00    +0.012 C 
ATOM     17  C   UNL     1      20.454   7.116   4.540  0.00  0.00    +0.012 C 
ENDBRANCH  13  12
ENDBRANCH   6  13
ENDBRANCH   8   6
BRANCH  10  14
ATOM     14  C   UNL     1      13.125   7.398   5.645  0.00  0.00    +0.140 C 
BRANCH  14   7
ATOM      7  N   UNL     1      12.313   6.435   4.876  0.00  0.00    -0.187 NA
ATOM     27  H   UNL     1      12.793   5.973   4.093  0.00  0.00    +0.148 HD
BRANCH   7   1
ATOM      1  S   UNL     1      10.623   6.616   4.796  0.00  0.00    +0.058 S 
ATOM      4  O   UNL     1      10.089   5.703   3.804  0.00  0.00    -0.153 OA
ATOM      5  O   UNL     1      10.302   8.029   4.735  0.00  0.00    -0.153 OA
BRANCH   1  18
ATOM     18  C   UNL     1      10.123   6.043   6.391  0.00  0.00    +0.105 A 
ATOM     19  C   UNL     1      10.167   4.681   6.688  0.00  0.00    +0.029 A 
ATOM     20  C   UNL     1       9.682   6.952   7.353  0.00  0.00    +0.029 A 
ATOM     21  C   UNL     1       9.770   4.227   7.946  0.00  0.00    +0.005 A 
ATOM     22  C   UNL     1       9.285   6.499   8.611  0.00  0.00    +0.005 A 
ATOM     23  C   UNL     1       9.329   5.137   8.908  0.00  0.00    -0.050 A 
ATOM     24  C   UNL     1       8.904   4.653  10.253  0.00  0.00    +0.044 C 
ENDBRANCH   1  18
ENDBRANCH   7   1
ENDBRANCH  14   7
ENDBRANCH  10  14
TORSDOF 8
ENDMDL
