REMARK  Name = 45361205
REMARK  7 active torsions:
REMARK  status: ('A' for Active; 'I' for Inactive)
REMARK    1  A    between atoms: O_4  and  C_26
REMARK    2  A    between atoms: N_5  and  C_18
REMARK    3  A    between atoms: N_6  and  C_17
REMARK    4  A    between atoms: C_12  and  C_16
REMARK    5  A    between atoms: C_16  and  C_19
REMARK    6  A    between atoms: C_17  and  C_20
REMARK    7  A    between atoms: C_19  and  C_21
REMARK                            x       y       z     vdW  Elec       q    Type
REMARK                         _______ _______ _______ _____ _____    ______ ____
ROOT
ATOM      2  O   UNL     1       0.870  -0.712   0.958  0.00  0.00    -0.274 OA
ATOM      5  N   UNL     1      -0.455   2.590  -0.571  0.00  0.00    -0.296 NA
ATOM      6  N   UNL     1       2.768   0.953  -0.001  0.00  0.00    -0.286 NA
ATOM      7  N   UNL     1      -0.449   0.955   1.806  0.00  0.00    -0.312 N 
ATOM      9  C   UNL     1       1.011   2.587  -0.367  0.00  0.00    +0.084 C 
ATOM     10  C   UNL     1       1.614   1.587   0.663  0.00  0.00    +0.161 C 
ATOM     11  C   UNL     1       1.818   2.263  -1.638  0.00  0.00    +0.036 C 
ATOM     12  C   UNL     1      -1.243   2.985   0.630  0.00  0.00    +0.074 C 
ATOM     13  C   UNL     1       3.164   1.827  -1.099  0.00  0.00    +0.087 C 
ATOM     14  C   UNL     1      -0.763   2.362   1.955  0.00  0.00    +0.123 C 
ATOM     15  C   UNL     1       0.663   0.489   1.131  0.00  0.00    +0.232 C 
ATOM     18  C   UNL     1      -0.822   3.432  -1.722  0.00  0.00    +0.105 C 
ATOM     32  H   UNL     1      -1.081   0.271   2.212  0.00  0.00    +0.149 HD
ENDROOT
BRANCH  12  16
ATOM     16  C   UNL     1      -2.728   2.604   0.450  0.00  0.00    +0.029 C 
BRANCH  16  19
ATOM     19  C   UNL     1      -2.893   1.170  -0.015  0.00  0.00    +0.097 C 
BRANCH  19  21
ATOM      3  O   UNL     1      -5.210   1.655   0.098  0.00  0.00    -0.276 OA
ATOM      8  N   UNL     1      -4.632  -0.490  -0.583  0.00  0.00    -0.301 N 
ATOM     21  C   UNL     1      -4.350   0.809  -0.160  0.00  0.00    +0.216 C 
ATOM     22  C   UNL     1      -3.630  -1.517  -0.897  0.00  0.00    +0.110 C 
ATOM     23  C   UNL     1      -6.022  -0.902  -0.792  0.00  0.00    +0.110 C 
ATOM     24  C   UNL     1      -3.905  -2.797  -0.112  0.00  0.00    +0.050 C 
ATOM     25  C   UNL     1      -6.339  -2.169  -0.005  0.00  0.00    +0.050 C 
ATOM     26  C   UNL     1      -5.339  -3.282  -0.324  0.00  0.00    +0.118 C 
BRANCH  26   4
ATOM      4  O   UNL     1      -5.575  -4.399   0.524  0.00  0.00    -0.392 OA
ATOM     33  H   UNL     1      -6.492  -4.689   0.379  0.00  0.00    +0.210 HD
ENDBRANCH  26   4
ENDBRANCH  19  21
ENDBRANCH  16  19
ENDBRANCH  12  16
BRANCH   6  17
ATOM     17  C   UNL     1       3.875   0.675   0.905  0.00  0.00    +0.120 C 
BRANCH  17  20
ATOM      1 CL   UNL     1       4.771  -4.375  -0.017  0.00  0.00    -0.084 Cl
ATOM     20  C   UNL     1       4.788  -0.393   0.365  0.00  0.00    -0.032 A 
ATOM     27  C   UNL     1       4.402  -1.733   0.418  0.00  0.00    +0.025 A 
ATOM     28  C   UNL     1       6.019  -0.044  -0.189  0.00  0.00    +0.005 A 
ATOM     29  C   UNL     1       5.247  -2.723  -0.084  0.00  0.00    +0.041 A 
ATOM     30  C   UNL     1       6.865  -1.034  -0.690  0.00  0.00    +0.002 A 
ATOM     31  C   UNL     1       6.478  -2.373  -0.638  0.00  0.00    +0.020 A 
ENDBRANCH  17  20
ENDBRANCH   6  17
TORSDOF 6
