MODEL 1
REMARK VINA RESULT:      -7.4      0.000      0.000
REMARK  Name = 11941842
REMARK  5 active torsions:
REMARK  status: ('A' for Active; 'I' for Inactive)
REMARK    1  A    between atoms: N_5  and  C_12
REMARK    2  A    between atoms: N_6  and  C_13
REMARK    3  A    between atoms: N_7  and  C_18
REMARK    4  A    between atoms: C_18  and  C_22
REMARK    5  A    between atoms: C_19  and  C_23
REMARK                            x       y       z     vdW  Elec       q    Type
REMARK                         _______ _______ _______ _____ _____    ______ ____
ROOT
ATOM      2  O   UNL     1      -4.935 -11.621  19.706  0.00  0.00    -0.370 OA
ATOM      3  O   UNL     1      -6.437 -10.793  17.100  0.00  0.00    -0.370 OA
ATOM     10  C   UNL     1      -6.408 -12.001  17.877  0.00  0.00    +0.171 C 
ATOM     11  C   UNL     1      -4.989 -12.177  18.383  0.00  0.00    +0.171 C 
ATOM     12  C   UNL     1      -7.230 -11.836  19.133  0.00  0.00    +0.130 C 
ATOM     13  C   UNL     1      -4.155 -11.352  17.430  0.00  0.00    +0.131 C 
ATOM     14  C   UNL     1      -6.248 -11.188  20.091  0.00  0.00    +0.185 C 
ATOM     15  C   UNL     1      -5.113 -10.241  17.037  0.00  0.00    +0.185 C 
ENDROOT
BRANCH  12   5
ATOM      5  N   UNL     1      -7.635 -13.132  19.634  0.00  0.00    -0.306 N 
ATOM      8  N   UNL     1      -9.817 -12.398  20.088  0.00  0.00    -0.214 NA
ATOM      9  N   UNL     1      -9.156 -14.670  20.543  0.00  0.00    -0.223 NA
ATOM     16  C   UNL     1      -8.907 -13.408  20.102  0.00  0.00    +0.216 A 
ATOM     19  C   UNL     1     -11.047 -12.703  20.552  0.00  0.00    +0.083 A 
ATOM     20  C   UNL     1     -10.406 -14.905  20.994  0.00  0.00    +0.116 A 
ATOM     21  C   UNL     1     -11.402 -13.951  21.021  0.00  0.00    +0.049 A 
ATOM     32  H   UNL     1      -6.980 -13.906  19.600  0.00  0.00    +0.149 HD
BRANCH  19  23
ATOM      1  S   UNL     1     -13.548 -11.843  21.196  0.00  0.00    -0.095 S 
ATOM     23  C   UNL     1     -11.987 -11.614  20.525  0.00  0.00    +0.038 A 
ATOM     26  C   UNL     1     -11.831 -10.339  20.017  0.00  0.00    +0.017 A 
ATOM     29  C   UNL     1     -13.003  -9.547  20.183  0.00  0.00    +0.008 A 
ATOM     31  C   UNL     1     -14.014 -10.241  20.810  0.00  0.00    +0.046 A 
ENDBRANCH  19  23
ENDBRANCH  12   5
BRANCH  13   6
ATOM      4  O   UNL     1      -2.232 -10.600  15.414  0.00  0.00    -0.253 OA
ATOM      6  N   UNL     1      -3.752 -12.126  16.282  0.00  0.00    -0.292 N 
ATOM      7  N   UNL     1      -2.611 -12.627  14.348  0.00  0.00    -0.295 N 
ATOM     17  C   UNL     1      -2.812 -11.684  15.353  0.00  0.00    +0.300 C 
ATOM     33  H   UNL     1      -4.122 -13.066  16.178  0.00  0.00    +0.151 HD
ATOM     34  H   UNL     1      -3.118 -13.505  14.392  0.00  0.00    +0.151 HD
BRANCH   7  18
ATOM     18  C   UNL     1      -1.688 -12.422  13.256  0.00  0.00    +0.141 C 
BRANCH  18  22
ATOM     22  C   UNL     1      -2.292 -11.596  12.157  0.00  0.00    -0.030 A 
ATOM     24  C   UNL     1      -3.306 -12.132  11.372  0.00  0.00    +0.005 A 
ATOM     25  C   UNL     1      -1.832 -10.303  11.936  0.00  0.00    +0.005 A 
ATOM     27  C   UNL     1      -3.867 -11.365  10.351  0.00  0.00    +0.000 A 
ATOM     28  C   UNL     1      -2.394  -9.535  10.915  0.00  0.00    +0.000 A 
ATOM     30  C   UNL     1      -3.411 -10.068  10.122  0.00  0.00    +0.000 A 
ENDBRANCH  18  22
ENDBRANCH   7  18
ENDBRANCH  13   6
TORSDOF 5
ENDMDL
MODEL 2
REMARK VINA RESULT:      -7.3     29.437     32.323
REMARK  Name = 11941842
REMARK  5 active torsions:
REMARK  status: ('A' for Active; 'I' for Inactive)
REMARK    1  A    between atoms: N_5  and  C_12
REMARK    2  A    between atoms: N_6  and  C_13
REMARK    3  A    between atoms: N_7  and  C_18
REMARK    4  A    between atoms: C_18  and  C_22
REMARK    5  A    between atoms: C_19  and  C_23
REMARK                            x       y       z     vdW  Elec       q    Type
REMARK                         _______ _______ _______ _____ _____    ______ ____
ROOT
ATOM      2  O   UNL     1      10.864  13.160  23.922  0.00  0.00    -0.370 OA
ATOM      3  O   UNL     1      13.830  12.324  23.435  0.00  0.00    -0.370 OA
ATOM     10  C   UNL     1      12.631  11.581  23.708  0.00  0.00    +0.171 C 
ATOM     11  C   UNL     1      11.810  12.397  24.689  0.00  0.00    +0.171 C 
ATOM     12  C   UNL     1      11.766  11.509  22.472  0.00  0.00    +0.130 C 
ATOM     13  C   UNL     1      12.821  13.313  25.341  0.00  0.00    +0.131 C 
ATOM     14  C   UNL     1      10.985  12.808  22.536  0.00  0.00    +0.185 C 
ATOM     15  C   UNL     1      13.837  13.518  24.232  0.00  0.00    +0.185 C 
ENDROOT
BRANCH  12   5
ATOM      5  N   UNL     1      10.866  10.380  22.563  0.00  0.00    -0.306 N 
ATOM      8  N   UNL     1      12.453   8.901  21.666  0.00  0.00    -0.214 NA
ATOM      9  N   UNL     1      10.265   8.126  22.308  0.00  0.00    -0.223 NA
ATOM     16  C   UNL     1      11.205   9.097  22.168  0.00  0.00    +0.216 A 
ATOM     19  C   UNL     1      12.749   7.640  21.291  0.00  0.00    +0.083 A 
ATOM     20  C   UNL     1      10.627   6.888  21.913  0.00  0.00    +0.116 A 
ATOM     21  C   UNL     1      11.868   6.583  21.393  0.00  0.00    +0.049 A 
ATOM     32  H   UNL     1       9.952  10.503  22.984  0.00  0.00    +0.149 HD
BRANCH  19  23
ATOM      1  S   UNL     1      15.409   8.103  21.632  0.00  0.00    -0.095 S 
ATOM     23  C   UNL     1      14.076   7.464  20.764  0.00  0.00    +0.038 A 
ATOM     26  C   UNL     1      14.479   6.828  19.606  0.00  0.00    +0.017 A 
ATOM     29  C   UNL     1      15.893   6.868  19.434  0.00  0.00    +0.008 A 
ATOM     31  C   UNL     1      16.522   7.531  20.463  0.00  0.00    +0.046 A 
ENDBRANCH  19  23
ENDBRANCH  12   5
BRANCH  13   6
ATOM      4  O   UNL     1      13.586  14.596  27.809  0.00  0.00    -0.253 OA
ATOM      6  N   UNL     1      13.423  12.689  26.494  0.00  0.00    -0.292 N 
ATOM      7  N   UNL     1      14.326  12.545  28.605  0.00  0.00    -0.295 N 
ATOM     17  C   UNL     1      13.762  13.389  27.651  0.00  0.00    +0.300 C 
ATOM     33  H   UNL     1      13.548  11.682  26.490  0.00  0.00    +0.151 HD
ATOM     34  H   UNL     1      14.412  11.556  28.394  0.00  0.00    +0.151 HD
BRANCH   7  18
ATOM     18  C   UNL     1      14.769  13.013  29.898  0.00  0.00    +0.141 C 
BRANCH  18  22
ATOM     22  C   UNL     1      13.812  12.632  30.991  0.00  0.00    -0.030 A 
ATOM     24  C   UNL     1      13.841  11.344  31.513  0.00  0.00    +0.005 A 
ATOM     25  C   UNL     1      12.908  13.572  31.472  0.00  0.00    +0.005 A 
ATOM     27  C   UNL     1      12.953  10.990  32.529  0.00  0.00    +0.000 A 
ATOM     28  C   UNL     1      12.019  13.218  32.488  0.00  0.00    +0.000 A 
ATOM     30  C   UNL     1      12.042  11.927  33.015  0.00  0.00    +0.000 A 
ENDBRANCH  18  22
ENDBRANCH   7  18
ENDBRANCH  13   6
TORSDOF 5
ENDMDL
MODEL 3
REMARK VINA RESULT:      -7.1      5.958     11.369
REMARK  Name = 11941842
REMARK  5 active torsions:
REMARK  status: ('A' for Active; 'I' for Inactive)
REMARK    1  A    between atoms: N_5  and  C_12
REMARK    2  A    between atoms: N_6  and  C_13
REMARK    3  A    between atoms: N_7  and  C_18
REMARK    4  A    between atoms: C_18  and  C_22
REMARK    5  A    between atoms: C_19  and  C_23
REMARK                            x       y       z     vdW  Elec       q    Type
REMARK                         _______ _______ _______ _____ _____    ______ ____
ROOT
ATOM      2  O   UNL     1      -3.654  -8.814  10.168  0.00  0.00    -0.370 OA
ATOM      3  O   UNL     1      -4.990 -11.634  10.118  0.00  0.00    -0.370 OA
ATOM     10  C   UNL     1      -5.483 -10.316  10.410  0.00  0.00    +0.171 C 
ATOM     11  C   UNL     1      -4.382  -9.575  11.145  0.00  0.00    +0.171 C 
ATOM     12  C   UNL     1      -5.669  -9.531   9.133  0.00  0.00    +0.130 C 
ATOM     13  C   UNL     1      -3.513 -10.676  11.710  0.00  0.00    +0.131 C 
ATOM     14  C   UNL     1      -4.283  -8.966   8.886  0.00  0.00    +0.185 C 
ATOM     15  C   UNL     1      -3.677 -11.780  10.682  0.00  0.00    +0.185 C 
ENDROOT
BRANCH  12   5
ATOM      5  N   UNL     1      -6.616  -8.459   9.345  0.00  0.00    -0.306 N 
ATOM      8  N   UNL     1      -7.390  -8.558   7.131  0.00  0.00    -0.214 NA
ATOM      9  N   UNL     1      -8.307  -6.968   8.692  0.00  0.00    -0.223 NA
ATOM     16  C   UNL     1      -7.463  -7.981   8.360  0.00  0.00    +0.216 A 
ATOM     19  C   UNL     1      -8.230  -8.067   6.196  0.00  0.00    +0.083 A 
ATOM     20  C   UNL     1      -9.119  -6.526   7.710  0.00  0.00    +0.116 A 
ATOM     21  C   UNL     1      -9.125  -7.044   6.431  0.00  0.00    +0.049 A 
ATOM     32  H   UNL     1      -6.716  -8.057  10.270  0.00  0.00    +0.149 HD
BRANCH  19  23
ATOM      1  S   UNL     1      -7.681 -10.350   4.819  0.00  0.00    -0.095 S 
ATOM     23  C   UNL     1      -8.129  -8.698   4.907  0.00  0.00    +0.038 A 
ATOM     26  C   UNL     1      -8.346  -8.160   3.653  0.00  0.00    +0.017 A 
ATOM     29  C   UNL     1      -8.143  -9.115   2.616  0.00  0.00    +0.008 A 
ATOM     31  C   UNL     1      -7.777 -10.347   3.109  0.00  0.00    +0.046 A 
ENDBRANCH  19  23
ENDBRANCH  12   5
BRANCH  13   6
ATOM      4  O   UNL     1      -2.241 -10.196  14.255  0.00  0.00    -0.253 OA
ATOM      6  N   UNL     1      -3.981 -11.096  13.008  0.00  0.00    -0.292 N 
ATOM      7  N   UNL     1      -3.971 -11.340  15.296  0.00  0.00    -0.295 N 
ATOM     17  C   UNL     1      -3.299 -10.820  14.192  0.00  0.00    +0.300 C 
ATOM     33  H   UNL     1      -4.882 -11.560  13.072  0.00  0.00    +0.151 HD
ATOM     34  H   UNL     1      -4.852 -11.822  15.150  0.00  0.00    +0.151 HD
BRANCH   7  18
ATOM     18  C   UNL     1      -3.482 -11.197  16.648  0.00  0.00    +0.141 C 
BRANCH  18  22
ATOM     22  C   UNL     1      -4.601 -11.034  17.636  0.00  0.00    -0.030 A 
ATOM     24  C   UNL     1      -4.491 -11.600  18.900  0.00  0.00    +0.005 A 
ATOM     25  C   UNL     1      -5.736 -10.316  17.276  0.00  0.00    +0.005 A 
ATOM     27  C   UNL     1      -5.530 -11.448  19.818  0.00  0.00    +0.000 A 
ATOM     28  C   UNL     1      -6.776 -10.164  18.194  0.00  0.00    +0.000 A 
ATOM     30  C   UNL     1      -6.672 -10.730  19.465  0.00  0.00    +0.000 A 
ENDBRANCH  18  22
ENDBRANCH   7  18
ENDBRANCH  13   6
TORSDOF 5
ENDMDL
MODEL 4
REMARK VINA RESULT:      -7.0      2.451      3.051
REMARK  Name = 11941842
REMARK  5 active torsions:
REMARK  status: ('A' for Active; 'I' for Inactive)
REMARK    1  A    between atoms: N_5  and  C_12
REMARK    2  A    between atoms: N_6  and  C_13
REMARK    3  A    between atoms: N_7  and  C_18
REMARK    4  A    between atoms: C_18  and  C_22
REMARK    5  A    between atoms: C_19  and  C_23
REMARK                            x       y       z     vdW  Elec       q    Type
REMARK                         _______ _______ _______ _____ _____    ______ ____
ROOT
ATOM      2  O   UNL     1      -5.231 -11.868  18.942  0.00  0.00    -0.370 OA
ATOM      3  O   UNL     1      -5.866  -9.695  16.795  0.00  0.00    -0.370 OA
ATOM     10  C   UNL     1      -6.571 -10.859  17.255  0.00  0.00    +0.171 C 
ATOM     11  C   UNL     1      -5.535 -11.930  17.539  0.00  0.00    +0.171 C 
ATOM     12  C   UNL     1      -7.205 -10.591  18.599  0.00  0.00    +0.130 C 
ATOM     13  C   UNL     1      -4.336 -11.507  16.721  0.00  0.00    +0.131 C 
ATOM     14  C   UNL     1      -6.073 -10.886  19.565  0.00  0.00    +0.185 C 
ATOM     15  C   UNL     1      -4.464  -9.995  16.714  0.00  0.00    +0.185 C 
ENDROOT
BRANCH  12   5
ATOM      5  N   UNL     1      -8.302 -11.507  18.820  0.00  0.00    -0.306 N 
ATOM      8  N   UNL     1      -9.877 -10.008  17.937  0.00  0.00    -0.214 NA
ATOM      9  N   UNL     1     -10.552 -12.172  18.754  0.00  0.00    -0.223 NA
ATOM     16  C   UNL     1      -9.616 -11.221  18.494  0.00  0.00    +0.216 A 
ATOM     19  C   UNL     1     -11.168  -9.762  17.632  0.00  0.00    +0.083 A 
ATOM     20  C   UNL     1     -11.822 -11.860  18.424  0.00  0.00    +0.116 A 
ATOM     21  C   UNL     1     -12.193 -10.659  17.853  0.00  0.00    +0.049 A 
ATOM     32  H   UNL     1      -8.112 -12.434  19.186  0.00  0.00    +0.149 HD
BRANCH  19  23
ATOM      1  S   UNL     1     -12.929  -8.164  16.308  0.00  0.00    -0.095 S 
ATOM     23  C   UNL     1     -11.412  -8.472  17.045  0.00  0.00    +0.038 A 
ATOM     26  C   UNL     1     -10.577  -7.374  16.972  0.00  0.00    +0.017 A 
ATOM     29  C   UNL     1     -11.191  -6.274  16.307  0.00  0.00    +0.008 A 
ATOM     31  C   UNL     1     -12.472  -6.567  15.893  0.00  0.00    +0.046 A 
ENDBRANCH  19  23
ENDBRANCH  12   5
BRANCH  13   6
ATOM      4  O   UNL     1      -2.328 -11.286  14.661  0.00  0.00    -0.253 OA
ATOM      6  N   UNL     1      -4.400 -12.045  15.384  0.00  0.00    -0.292 N 
ATOM      7  N   UNL     1      -3.701 -12.506  13.241  0.00  0.00    -0.295 N 
ATOM     17  C   UNL     1      -3.379 -11.889  14.448  0.00  0.00    +0.300 C 
ATOM     33  H   UNL     1      -5.199 -12.618  15.130  0.00  0.00    +0.151 HD
ATOM     34  H   UNL     1      -4.584 -13.000  13.165  0.00  0.00    +0.151 HD
BRANCH   7  18
ATOM     18  C   UNL     1      -2.817 -12.496  12.098  0.00  0.00    +0.141 C 
BRANCH  18  22
ATOM     22  C   UNL     1      -3.209 -11.450  11.094  0.00  0.00    -0.030 A 
ATOM     24  C   UNL     1      -2.666 -10.174  11.183  0.00  0.00    +0.005 A 
ATOM     25  C   UNL     1      -4.109 -11.770  10.085  0.00  0.00    +0.005 A 
ATOM     27  C   UNL     1      -3.029  -9.203  10.250  0.00  0.00    +0.000 A 
ATOM     28  C   UNL     1      -4.473 -10.798   9.151  0.00  0.00    +0.000 A 
ATOM     30  C   UNL     1      -3.932  -9.515   9.235  0.00  0.00    +0.000 A 
ENDBRANCH  18  22
ENDBRANCH   7  18
ENDBRANCH  13   6
TORSDOF 5
ENDMDL
MODEL 5
REMARK VINA RESULT:      -7.0     29.760     33.300
REMARK  Name = 11941842
REMARK  5 active torsions:
REMARK  status: ('A' for Active; 'I' for Inactive)
REMARK    1  A    between atoms: N_5  and  C_12
REMARK    2  A    between atoms: N_6  and  C_13
REMARK    3  A    between atoms: N_7  and  C_18
REMARK    4  A    between atoms: C_18  and  C_22
REMARK    5  A    between atoms: C_19  and  C_23
REMARK                            x       y       z     vdW  Elec       q    Type
REMARK                         _______ _______ _______ _____ _____    ______ ____
ROOT
ATOM      2  O   UNL     1      15.762   6.374  20.689  0.00  0.00    -0.370 OA
ATOM      3  O   UNL     1      16.384   9.430  20.596  0.00  0.00    -0.370 OA
ATOM     10  C   UNL     1      16.705   8.389  21.533  0.00  0.00    +0.171 C 
ATOM     11  C   UNL     1      15.509   7.458  21.598  0.00  0.00    +0.171 C 
ATOM     12  C   UNL     1      17.819   7.523  20.993  0.00  0.00    +0.130 C 
ATOM     13  C   UNL     1      14.358   8.304  21.102  0.00  0.00    +0.131 C 
ATOM     14  C   UNL     1      17.074   6.525  20.127  0.00  0.00    +0.185 C 
ATOM     15  C   UNL     1      15.042   9.242  20.123  0.00  0.00    +0.185 C 
ENDROOT
BRANCH  12   5
ATOM      5  N   UNL     1      18.486   6.842  22.081  0.00  0.00    -0.306 N 
ATOM      8  N   UNL     1      20.611   7.510  21.342  0.00  0.00    -0.214 NA
ATOM      9  N   UNL     1      20.358   6.157  23.319  0.00  0.00    -0.223 NA
ATOM     16  C   UNL     1      19.860   6.836  22.252  0.00  0.00    +0.216 A 
ATOM     19  C   UNL     1      21.945   7.484  21.540  0.00  0.00    +0.083 A 
ATOM     20  C   UNL     1      21.700   6.171  23.456  0.00  0.00    +0.116 A 
ATOM     21  C   UNL     1      22.552   6.826  22.590  0.00  0.00    +0.049 A 
ATOM     32  H   UNL     1      17.933   6.380  22.794  0.00  0.00    +0.149 HD
BRANCH  19  23
ATOM      1  S   UNL     1      24.322   7.711  20.233  0.00  0.00    -0.095 S 
ATOM     23  C   UNL     1      22.713   8.205  20.561  0.00  0.00    +0.038 A 
ATOM     26  C   UNL     1      22.348   9.296  19.795  0.00  0.00    +0.017 A 
ATOM     29  C   UNL     1      23.398   9.725  18.934  0.00  0.00    +0.008 A 
ATOM     31  C   UNL     1      24.529   8.951  19.070  0.00  0.00    +0.046 A 
ENDBRANCH  19  23
ENDBRANCH  12   5
BRANCH  13   6
ATOM      4  O   UNL     1      11.615   9.183  21.265  0.00  0.00    -0.253 OA
ATOM      6  N   UNL     1      13.742   9.033  22.183  0.00  0.00    -0.292 N 
ATOM      7  N   UNL     1      12.072  10.110  23.343  0.00  0.00    -0.295 N 
ATOM     17  C   UNL     1      12.403   9.420  22.179  0.00  0.00    +0.300 C 
ATOM     33  H   UNL     1      14.291   9.220  23.016  0.00  0.00    +0.151 HD
ATOM     34  H   UNL     1      12.784  10.239  24.054  0.00  0.00    +0.151 HD
BRANCH   7  18
ATOM     18  C   UNL     1      10.746  10.624  23.596  0.00  0.00    +0.141 C 
BRANCH  18  22
ATOM     22  C   UNL     1      10.771  12.075  23.984  0.00  0.00    -0.030 A 
ATOM     24  C   UNL     1      10.816  12.428  25.327  0.00  0.00    +0.005 A 
ATOM     25  C   UNL     1      10.751  13.051  22.994  0.00  0.00    +0.005 A 
ATOM     27  C   UNL     1      10.840  13.775  25.688  0.00  0.00    +0.000 A 
ATOM     28  C   UNL     1      10.775  14.399  23.354  0.00  0.00    +0.000 A 
ATOM     30  C   UNL     1      10.819  14.760  24.701  0.00  0.00    +0.000 A 
ENDBRANCH  18  22
ENDBRANCH   7  18
ENDBRANCH  13   6
TORSDOF 5
ENDMDL
MODEL 6
REMARK VINA RESULT:      -6.9      5.016      8.549
REMARK  Name = 11941842
REMARK  5 active torsions:
REMARK  status: ('A' for Active; 'I' for Inactive)
REMARK    1  A    between atoms: N_5  and  C_12
REMARK    2  A    between atoms: N_6  and  C_13
REMARK    3  A    between atoms: N_7  and  C_18
REMARK    4  A    between atoms: C_18  and  C_22
REMARK    5  A    between atoms: C_19  and  C_23
REMARK                            x       y       z     vdW  Elec       q    Type
REMARK                         _______ _______ _______ _____ _____    ______ ____
ROOT
ATOM      2  O   UNL     1      -5.782  -8.944  10.743  0.00  0.00    -0.370 OA
ATOM      3  O   UNL     1      -6.741 -11.894  11.082  0.00  0.00    -0.370 OA
ATOM     10  C   UNL     1      -5.445 -11.273  11.095  0.00  0.00    +0.171 C 
ATOM     11  C   UNL     1      -5.466 -10.166  10.058  0.00  0.00    +0.171 C 
ATOM     12  C   UNL     1      -5.224 -10.550  12.403  0.00  0.00    +0.130 C 
ATOM     13  C   UNL     1      -6.592 -10.556   9.128  0.00  0.00    +0.131 C 
ATOM     14  C   UNL     1      -5.876  -9.203  12.152  0.00  0.00    +0.185 C 
ATOM     15  C   UNL     1      -7.544 -11.287  10.058  0.00  0.00    +0.185 C 
ENDROOT
BRANCH  12   5
ATOM      5  N   UNL     1      -3.808 -10.383  12.643  0.00  0.00    -0.306 N 
ATOM      8  N   UNL     1      -4.043 -10.746  14.949  0.00  0.00    -0.214 NA
ATOM      9  N   UNL     1      -1.882 -10.303  13.981  0.00  0.00    -0.223 NA
ATOM     16  C   UNL     1      -3.227 -10.481  13.895  0.00  0.00    +0.216 A 
ATOM     19  C   UNL     1      -3.443 -10.833  16.155  0.00  0.00    +0.083 A 
ATOM     20  C   UNL     1      -1.348 -10.404  15.216  0.00  0.00    +0.116 A 
ATOM     21  C   UNL     1      -2.087 -10.672  16.350  0.00  0.00    +0.049 A 
ATOM     32  H   UNL     1      -3.183 -10.238  11.857  0.00  0.00    +0.149 HD
BRANCH  19  23
ATOM      1  S   UNL     1      -6.007 -10.796  17.067  0.00  0.00    -0.095 S 
ATOM     23  C   UNL     1      -4.333 -11.114  17.250  0.00  0.00    +0.038 A 
ATOM     26  C   UNL     1      -4.044 -11.628  18.499  0.00  0.00    +0.017 A 
ATOM     29  C   UNL     1      -5.208 -11.761  19.309  0.00  0.00    +0.008 A 
ATOM     31  C   UNL     1      -6.346 -11.345  18.654  0.00  0.00    +0.046 A 
ENDBRANCH  19  23
ENDBRANCH  12   5
BRANCH  13   6
ATOM      4  O   UNL     1      -5.642  -9.761   6.522  0.00  0.00    -0.253 OA
ATOM      6  N   UNL     1      -6.124 -11.421   8.073  0.00  0.00    -0.292 N 
ATOM      7  N   UNL     1      -5.286 -11.997   6.009  0.00  0.00    -0.295 N 
ATOM     17  C   UNL     1      -5.680 -10.949   6.838  0.00  0.00    +0.300 C 
ATOM     33  H   UNL     1      -6.052 -12.416   8.259  0.00  0.00    +0.151 HD
ATOM     34  H   UNL     1      -5.332 -12.946   6.365  0.00  0.00    +0.151 HD
BRANCH   7  18
ATOM     18  C   UNL     1      -4.784 -11.788   4.671  0.00  0.00    +0.141 C 
BRANCH  18  22
ATOM     22  C   UNL     1      -3.536 -12.580   4.408  0.00  0.00    -0.030 A 
ATOM     24  C   UNL     1      -3.003 -12.620   3.125  0.00  0.00    +0.005 A 
ATOM     25  C   UNL     1      -2.924 -13.264   5.452  0.00  0.00    +0.005 A 
ATOM     27  C   UNL     1      -1.843 -13.356   2.882  0.00  0.00    +0.000 A 
ATOM     28  C   UNL     1      -1.763 -14.000   5.209  0.00  0.00    +0.000 A 
ATOM     30  C   UNL     1      -1.224 -14.046   3.924  0.00  0.00    +0.000 A 
ENDBRANCH  18  22
ENDBRANCH   7  18
ENDBRANCH  13   6
TORSDOF 5
ENDMDL
MODEL 7
REMARK VINA RESULT:      -6.9      2.493      3.602
REMARK  Name = 11941842
REMARK  5 active torsions:
REMARK  status: ('A' for Active; 'I' for Inactive)
REMARK    1  A    between atoms: N_5  and  C_12
REMARK    2  A    between atoms: N_6  and  C_13
REMARK    3  A    between atoms: N_7  and  C_18
REMARK    4  A    between atoms: C_18  and  C_22
REMARK    5  A    between atoms: C_19  and  C_23
REMARK                            x       y       z     vdW  Elec       q    Type
REMARK                         _______ _______ _______ _____ _____    ______ ____
ROOT
ATOM      2  O   UNL     1      -7.289 -12.108  17.020  0.00  0.00    -0.370 OA
ATOM      3  O   UNL     1      -5.118 -10.594  18.673  0.00  0.00    -0.370 OA
ATOM     10  C   UNL     1      -5.874 -10.256  17.498  0.00  0.00    +0.171 C 
ATOM     11  C   UNL     1      -6.022 -11.524  16.678  0.00  0.00    +0.171 C 
ATOM     12  C   UNL     1      -7.290  -9.891  17.873  0.00  0.00    +0.130 C 
ATOM     13  C   UNL     1      -4.890 -12.405  17.156  0.00  0.00    +0.131 C 
ATOM     14  C   UNL     1      -7.977 -11.243  17.936  0.00  0.00    +0.185 C 
ATOM     15  C   UNL     1      -4.732 -11.976  18.604  0.00  0.00    +0.185 C 
ENDROOT
BRANCH  12   5
ATOM      5  N   UNL     1      -7.883  -9.077  16.835  0.00  0.00    -0.306 N 
ATOM      8  N   UNL     1     -10.035  -9.283  17.748  0.00  0.00    -0.214 NA
ATOM      9  N   UNL     1      -9.659  -7.999  15.744  0.00  0.00    -0.223 NA
ATOM     16  C   UNL     1      -9.232  -8.777  16.774  0.00  0.00    +0.216 A 
ATOM     19  C   UNL     1     -11.344  -8.971  17.657  0.00  0.00    +0.083 A 
ATOM     20  C   UNL     1     -10.980  -7.726  15.714  0.00  0.00    +0.116 A 
ATOM     21  C   UNL     1     -11.878  -8.188  16.654  0.00  0.00    +0.049 A 
ATOM     32  H   UNL     1      -7.286  -8.651  16.134  0.00  0.00    +0.149 HD
BRANCH  19  23
ATOM      1  S   UNL     1     -11.417 -10.275  20.044  0.00  0.00    -0.095 S 
ATOM     23  C   UNL     1     -12.167  -9.520  18.701  0.00  0.00    +0.038 A 
ATOM     26  C   UNL     1     -13.545  -9.542  18.806  0.00  0.00    +0.017 A 
ATOM     29  C   UNL     1     -13.983 -10.184  20.001  0.00  0.00    +0.008 A 
ATOM     31  C   UNL     1     -12.929 -10.630  20.766  0.00  0.00    +0.046 A 
ENDBRANCH  19  23
ENDBRANCH  12   5
BRANCH  13   6
ATOM      4  O   UNL     1      -4.254 -13.393  14.521  0.00  0.00    -0.253 OA
ATOM      6  N   UNL     1      -3.684 -12.159  16.404  0.00  0.00    -0.292 N 
ATOM      7  N   UNL     1      -2.217 -12.287  14.636  0.00  0.00    -0.295 N 
ATOM     17  C   UNL     1      -3.458 -12.680  15.130  0.00  0.00    +0.300 C 
ATOM     33  H   UNL     1      -2.991 -11.526  16.791  0.00  0.00    +0.151 HD
ATOM     34  H   UNL     1      -1.635 -11.677  15.202  0.00  0.00    +0.151 HD
BRANCH   7  18
ATOM     18  C   UNL     1      -1.731 -12.687  13.335  0.00  0.00    +0.141 C 
BRANCH  18  22
ATOM     22  C   UNL     1      -2.301 -11.837  12.237  0.00  0.00    -0.030 A 
ATOM     24  C   UNL     1      -1.901 -10.511  12.115  0.00  0.00    +0.005 A 
ATOM     25  C   UNL     1      -3.222 -12.384  11.352  0.00  0.00    +0.005 A 
ATOM     27  C   UNL     1      -2.430  -9.721  11.094  0.00  0.00    +0.000 A 
ATOM     28  C   UNL     1      -3.752 -11.594  10.330  0.00  0.00    +0.000 A 
ATOM     30  C   UNL     1      -3.355 -10.263  10.202  0.00  0.00    +0.000 A 
ENDBRANCH  18  22
ENDBRANCH   7  18
ENDBRANCH  13   6
TORSDOF 5
ENDMDL
MODEL 8
REMARK VINA RESULT:      -6.8     29.166     32.295
REMARK  Name = 11941842
REMARK  5 active torsions:
REMARK  status: ('A' for Active; 'I' for Inactive)
REMARK    1  A    between atoms: N_5  and  C_12
REMARK    2  A    between atoms: N_6  and  C_13
REMARK    3  A    between atoms: N_7  and  C_18
REMARK    4  A    between atoms: C_18  and  C_22
REMARK    5  A    between atoms: C_19  and  C_23
REMARK                            x       y       z     vdW  Elec       q    Type
REMARK                         _______ _______ _______ _____ _____    ______ ____
ROOT
ATOM      2  O   UNL     1      19.408   8.606  22.360  0.00  0.00    -0.370 OA
ATOM      3  O   UNL     1      19.729   6.390  20.187  0.00  0.00    -0.370 OA
ATOM     10  C   UNL     1      18.796   6.585  21.263  0.00  0.00    +0.171 C 
ATOM     11  C   UNL     1      19.568   7.180  22.426  0.00  0.00    +0.171 C 
ATOM     12  C   UNL     1      17.794   7.655  20.899  0.00  0.00    +0.130 C 
ATOM     13  C   UNL     1      21.004   6.798  22.147  0.00  0.00    +0.131 C 
ATOM     14  C   UNL     1      18.517   8.933  21.284  0.00  0.00    +0.185 C 
ATOM     15  C   UNL     1      21.043   6.764  20.629  0.00  0.00    +0.185 C 
ENDROOT
BRANCH  12   5
ATOM      5  N   UNL     1      16.595   7.500  21.694  0.00  0.00    -0.306 N 
ATOM      8  N   UNL     1      15.206   8.187  19.932  0.00  0.00    -0.214 NA
ATOM      9  N   UNL     1      14.280   7.573  22.070  0.00  0.00    -0.223 NA
ATOM     16  C   UNL     1      15.322   7.761  21.218  0.00  0.00    +0.216 A 
ATOM     19  C   UNL     1      13.950   8.432  19.501  0.00  0.00    +0.083 A 
ATOM     20  C   UNL     1      13.054   7.837  21.574  0.00  0.00    +0.116 A 
ATOM     21  C   UNL     1      12.826   8.272  20.284  0.00  0.00    +0.049 A 
ATOM     32  H   UNL     1      16.666   7.134  22.637  0.00  0.00    +0.149 HD
BRANCH  19  23
ATOM      1  S   UNL     1      13.554  10.538  17.824  0.00  0.00    -0.095 S 
ATOM     23  C   UNL     1      13.859   8.880  18.138  0.00  0.00    +0.038 A 
ATOM     26  C   UNL     1      13.984   8.154  16.969  0.00  0.00    +0.017 A 
ATOM     29  C   UNL     1      13.828   8.967  15.810  0.00  0.00    +0.008 A 
ATOM     31  C   UNL     1      13.590  10.285  16.130  0.00  0.00    +0.046 A 
ENDBRANCH  19  23
ENDBRANCH  12   5
BRANCH  13   6
ATOM      4  O   UNL     1      23.490   5.995  23.373  0.00  0.00    -0.253 OA
ATOM      6  N   UNL     1      21.320   5.507  22.707  0.00  0.00    -0.292 N 
ATOM      7  N   UNL     1      22.587   3.889  23.743  0.00  0.00    -0.295 N 
ATOM     17  C   UNL     1      22.553   5.204  23.282  0.00  0.00    +0.300 C 
ATOM     33  H   UNL     1      20.589   4.802  22.743  0.00  0.00    +0.151 HD
ATOM     34  H   UNL     1      21.756   3.315  23.645  0.00  0.00    +0.151 HD
BRANCH   7  18
ATOM     18  C   UNL     1      23.748   3.315  24.382  0.00  0.00    +0.141 C 
BRANCH  18  22
ATOM     22  C   UNL     1      24.362   2.223  23.555  0.00  0.00    -0.030 A 
ATOM     24  C   UNL     1      25.407   1.469  24.077  0.00  0.00    +0.005 A 
ATOM     25  C   UNL     1      23.879   1.976  22.275  0.00  0.00    +0.005 A 
ATOM     27  C   UNL     1      25.977   0.454  23.308  0.00  0.00    +0.000 A 
ATOM     28  C   UNL     1      24.450   0.961  21.506  0.00  0.00    +0.000 A 
ATOM     30  C   UNL     1      25.499   0.201  22.023  0.00  0.00    +0.000 A 
ENDBRANCH  18  22
ENDBRANCH   7  18
ENDBRANCH  13   6
TORSDOF 5
ENDMDL
MODEL 9
REMARK VINA RESULT:      -6.8      4.690      9.208
REMARK  Name = 11941842
REMARK  5 active torsions:
REMARK  status: ('A' for Active; 'I' for Inactive)
REMARK    1  A    between atoms: N_5  and  C_12
REMARK    2  A    between atoms: N_6  and  C_13
REMARK    3  A    between atoms: N_7  and  C_18
REMARK    4  A    between atoms: C_18  and  C_22
REMARK    5  A    between atoms: C_19  and  C_23
REMARK                            x       y       z     vdW  Elec       q    Type
REMARK                         _______ _______ _______ _____ _____    ______ ____
ROOT
ATOM      2  O   UNL     1      -6.511 -10.944  19.038  0.00  0.00    -0.370 OA
ATOM      3  O   UNL     1      -7.477 -11.481  16.120  0.00  0.00    -0.370 OA
ATOM     10  C   UNL     1      -6.340 -10.795  16.670  0.00  0.00    +0.171 C 
ATOM     11  C   UNL     1      -6.807 -10.084  17.926  0.00  0.00    +0.171 C 
ATOM     12  C   UNL     1      -5.317 -11.790  17.166  0.00  0.00    +0.130 C 
ATOM     13  C   UNL     1      -8.302  -9.957  17.742  0.00  0.00    +0.131 C 
ATOM     14  C   UNL     1      -5.813 -12.106  18.566  0.00  0.00    +0.185 C 
ATOM     15  C   UNL     1      -8.634 -11.189  16.919  0.00  0.00    +0.185 C 
ENDROOT
BRANCH  12   5
ATOM      5  N   UNL     1      -4.012 -11.169  17.227  0.00  0.00    -0.306 N 
ATOM      8  N   UNL     1      -3.771 -11.193  14.892  0.00  0.00    -0.214 NA
ATOM      9  N   UNL     1      -2.041 -10.290  16.305  0.00  0.00    -0.223 NA
ATOM     16  C   UNL     1      -3.252 -10.875  16.108  0.00  0.00    +0.216 A 
ATOM     19  C   UNL     1      -3.004 -10.893  13.824  0.00  0.00    +0.083 A 
ATOM     20  C   UNL     1      -1.327 -10.017  15.194  0.00  0.00    +0.116 A 
ATOM     21  C   UNL     1      -1.762 -10.297  13.915  0.00  0.00    +0.049 A 
ATOM     32  H   UNL     1      -3.638 -10.880  18.124  0.00  0.00    +0.149 HD
BRANCH  19  23
ATOM      1  S   UNL     1      -5.271 -11.500  12.446  0.00  0.00    -0.095 S 
ATOM     23  C   UNL     1      -3.579 -11.241  12.552  0.00  0.00    +0.038 A 
ATOM     26  C   UNL     1      -2.958 -11.413  11.331  0.00  0.00    +0.017 A 
ATOM     29  C   UNL     1      -3.881 -11.758  10.301  0.00  0.00    +0.008 A 
ATOM     31  C   UNL     1      -5.174 -11.839  10.770  0.00  0.00    +0.046 A 
ENDBRANCH  19  23
ENDBRANCH  12   5
BRANCH  13   6
ATOM      4  O   UNL     1     -10.842  -8.589  17.752  0.00  0.00    -0.253 OA
ATOM      6  N   UNL     1      -8.640  -8.747  17.033  0.00  0.00    -0.292 N 
ATOM      7  N   UNL     1      -9.951  -6.997  16.316  0.00  0.00    -0.295 N 
ATOM     17  C   UNL     1      -9.898  -8.152  17.094  0.00  0.00    +0.300 C 
ATOM     33  H   UNL     1      -7.909  -8.269  16.514  0.00  0.00    +0.151 HD
ATOM     34  H   UNL     1      -9.114  -6.700  15.825  0.00  0.00    +0.151 HD
BRANCH   7  18
ATOM     18  C   UNL     1     -11.140  -6.185  16.201  0.00  0.00    +0.141 C 
BRANCH  18  22
ATOM     22  C   UNL     1     -11.738  -6.256  14.826  0.00  0.00    -0.030 A 
ATOM     24  C   UNL     1     -11.956  -5.086  14.109  0.00  0.00    +0.005 A 
ATOM     25  C   UNL     1     -12.066  -7.493  14.283  0.00  0.00    +0.005 A 
ATOM     27  C   UNL     1     -12.511  -5.152  12.831  0.00  0.00    +0.000 A 
ATOM     28  C   UNL     1     -12.622  -7.560  13.004  0.00  0.00    +0.000 A 
ATOM     30  C   UNL     1     -12.844  -6.389  12.279  0.00  0.00    +0.000 A 
ENDBRANCH  18  22
ENDBRANCH   7  18
ENDBRANCH  13   6
TORSDOF 5
ENDMDL
MODEL 10
REMARK VINA RESULT:      -6.6      5.634      8.968
REMARK  Name = 11941842
REMARK  5 active torsions:
REMARK  status: ('A' for Active; 'I' for Inactive)
REMARK    1  A    between atoms: N_5  and  C_12
REMARK    2  A    between atoms: N_6  and  C_13
REMARK    3  A    between atoms: N_7  and  C_18
REMARK    4  A    between atoms: C_18  and  C_22
REMARK    5  A    between atoms: C_19  and  C_23
REMARK                            x       y       z     vdW  Elec       q    Type
REMARK                         _______ _______ _______ _____ _____    ______ ____
ROOT
ATOM      2  O   UNL     1      -6.150  -8.614  12.078  0.00  0.00    -0.370 OA
ATOM      3  O   UNL     1      -6.747 -11.296  10.600  0.00  0.00    -0.370 OA
ATOM     10  C   UNL     1      -5.531 -10.608  10.936  0.00  0.00    +0.171 C 
ATOM     11  C   UNL     1      -5.798  -9.123  10.781  0.00  0.00    +0.171 C 
ATOM     12  C   UNL     1      -5.223 -10.777  12.405  0.00  0.00    +0.130 C 
ATOM     13  C   UNL     1      -6.986  -9.058   9.849  0.00  0.00    +0.131 C 
ATOM     14  C   UNL     1      -6.037  -9.669  13.046  0.00  0.00    +0.185 C 
ATOM     15  C   UNL     1      -7.732 -10.338  10.183  0.00  0.00    +0.185 C 
ENDROOT
BRANCH  12   5
ATOM      5  N   UNL     1      -3.812 -10.562  12.642  0.00  0.00    -0.306 N 
ATOM      8  N   UNL     1      -4.052 -10.812  14.963  0.00  0.00    -0.214 NA
ATOM      9  N   UNL     1      -1.897 -10.364  13.983  0.00  0.00    -0.223 NA
ATOM     16  C   UNL     1      -3.236 -10.580  13.901  0.00  0.00    +0.216 A 
ATOM     19  C   UNL     1      -3.457 -10.823  16.175  0.00  0.00    +0.083 A 
ATOM     20  C   UNL     1      -1.368 -10.389  15.224  0.00  0.00    +0.116 A 
ATOM     21  C   UNL     1      -2.107 -10.616  16.367  0.00  0.00    +0.049 A 
ATOM     32  H   UNL     1      -3.187 -10.441  11.853  0.00  0.00    +0.149 HD
BRANCH  19  23
ATOM      1  S   UNL     1      -5.970 -10.531  17.179  0.00  0.00    -0.095 S 
ATOM     23  C   UNL     1      -4.345 -11.070  17.279  0.00  0.00    +0.038 A 
ATOM     26  C   UNL     1      -4.091 -11.707  18.478  0.00  0.00    +0.017 A 
ATOM     29  C   UNL     1      -5.241 -11.752  19.318  0.00  0.00    +0.008 A 
ATOM     31  C   UNL     1      -6.333 -11.149  18.735  0.00  0.00    +0.046 A 
ENDBRANCH  19  23
ENDBRANCH  12   5
BRANCH  13   6
ATOM      4  O   UNL     1      -8.541  -8.209   7.572  0.00  0.00    -0.253 OA
ATOM      6  N   UNL     1      -6.568  -9.041   8.469  0.00  0.00    -0.292 N 
ATOM      7  N   UNL     1      -6.735  -8.700   6.200  0.00  0.00    -0.295 N 
ATOM     17  C   UNL     1      -7.388  -8.613   7.427  0.00  0.00    +0.300 C 
ATOM     33  H   UNL     1      -5.609  -9.292   8.251  0.00  0.00    +0.151 HD
ATOM     34  H   UNL     1      -5.773  -9.026   6.179  0.00  0.00    +0.151 HD
BRANCH   7  18
ATOM     18  C   UNL     1      -7.358  -8.320   4.953  0.00  0.00    +0.141 C 
BRANCH  18  22
ATOM     22  C   UNL     1      -7.511  -9.488   4.023  0.00  0.00    -0.030 A 
ATOM     24  C   UNL     1      -8.303  -9.364   2.887  0.00  0.00    +0.005 A 
ATOM     25  C   UNL     1      -6.859 -10.682   4.305  0.00  0.00    +0.005 A 
ATOM     27  C   UNL     1      -8.445 -10.449   2.022  0.00  0.00    +0.000 A 
ATOM     28  C   UNL     1      -7.001 -11.768   3.440  0.00  0.00    +0.000 A 
ATOM     30  C   UNL     1      -7.794 -11.651   2.299  0.00  0.00    +0.000 A 
ENDBRANCH  18  22
ENDBRANCH   7  18
ENDBRANCH  13   6
TORSDOF 5
ENDMDL
