MODEL 1
REMARK VINA RESULT:      -7.0      0.000      0.000
REMARK  Name = 45361535
REMARK  14 active torsions:
REMARK  status: ('A' for Active; 'I' for Inactive)
REMARK    1  A    between atoms: O_1  and  C_11
REMARK    2  A    between atoms: O_4  and  C_24
REMARK    3  A    between atoms: O_4  and  C_27
REMARK    4  A    between atoms: O_5  and  C_26
REMARK    5  A    between atoms: O_5  and  C_30
REMARK    6  A    between atoms: N_6  and  C_15
REMARK    7  A    between atoms: N_7  and  C_25
REMARK    8  A    between atoms: C_8  and  C_18
REMARK    9  A    between atoms: C_10  and  C_20
REMARK   10  A    between atoms: C_14  and  C_19
REMARK   11  A    between atoms: C_19  and  C_21
REMARK   12  A    between atoms: C_19  and  C_22
REMARK   13  A    between atoms: C_23  and  C_24
REMARK   14  A    between atoms: C_25  and  C_26
REMARK                            x       y       z     vdW  Elec       q    Type
REMARK                         _______ _______ _______ _____ _____    ______ ____
ROOT
ATOM      8  C   UNL     1      15.770  10.125  21.179  0.00  0.00    -0.027 C 
ATOM      9  C   UNL     1      15.447   8.656  21.611  0.00  0.00    +0.028 C 
ATOM     10  C   UNL     1      16.549   7.665  21.092  0.00  0.00    +0.012 C 
ATOM     11  C   UNL     1      13.982   8.273  21.253  0.00  0.00    +0.122 C 
ATOM     12  C   UNL     1      14.730  11.086  21.801  0.00  0.00    +0.007 C 
ATOM     13  C   UNL     1      17.161  10.517  21.731  0.00  0.00    +0.009 C 
ATOM     14  C   UNL     1      12.952   9.294  21.789  0.00  0.00    +0.029 C 
ATOM     15  C   UNL     1      17.952   8.112  21.589  0.00  0.00    +0.076 C 
ATOM     16  C   UNL     1      13.297  10.737  21.420  0.00  0.00    +0.007 C 
ATOM     17  C   UNL     1      18.269   9.575  21.281  0.00  0.00    +0.023 C 
ATOM     18  C   UNL     1      15.760  10.309  19.641  0.00  0.00    +0.011 C 
ATOM     20  C   UNL     1      16.308   6.203  21.505  0.00  0.00    +0.010 C 
ENDROOT
BRANCH  15   6
ATOM      3  O   UNL     1      19.788   6.410  23.040  0.00  0.00    -0.272 OA
ATOM      6  N   UNL     1      19.006   7.288  21.034  0.00  0.00    -0.309 N 
ATOM     23  C   UNL     1      19.837   6.505  21.817  0.00  0.00    +0.251 C 
ATOM     34  H   UNL     1      19.176   7.341  20.034  0.00  0.00    +0.149 HD
BRANCH  23  24
ATOM     24  C   UNL     1      20.844   5.750  20.978  0.00  0.00    +0.324 C 
BRANCH  24   4
ATOM      4  O   UNL     1      21.607   4.875  21.781  0.00  0.00    -0.483 OA
BRANCH   4  27
ATOM     27  C   UNL     1      22.650   4.215  21.175  0.00  0.00    +0.121 A 
ATOM     28  C   UNL     1      23.573   4.924  20.407  0.00  0.00    +0.045 A 
ATOM     29  C   UNL     1      22.786   2.835  21.330  0.00  0.00    +0.045 A 
ATOM     31  C   UNL     1      24.631   4.254  19.792  0.00  0.00    +0.004 A 
ATOM     32  C   UNL     1      23.843   2.165  20.716  0.00  0.00    +0.004 A 
ATOM     33  C   UNL     1      24.766   2.875  19.946  0.00  0.00    +0.000 A 
ENDBRANCH   4  27
ENDBRANCH  24   4
ENDBRANCH  23  24
ENDBRANCH  15   6
BRANCH  11   1
ATOM      1  O   UNL     1      13.658   7.015  21.849  0.00  0.00    -0.391 OA
ATOM     35  H   UNL     1      12.873   6.660  21.398  0.00  0.00    +0.210 HD
ENDBRANCH  11   1
BRANCH  14  19
ATOM     19  C   UNL     1      11.530   8.971  21.314  0.00  0.00    +0.077 C 
ATOM     21  C   UNL     1      10.785   8.183  22.384  0.00  0.00    +0.017 C 
BRANCH  19  22
ATOM      2  O   UNL     1      11.586   6.976  19.940  0.00  0.00    -0.276 OA
ATOM      7  N   UNL     1      11.632   9.046  18.893  0.00  0.00    -0.313 N 
ATOM     22  C   UNL     1      11.584   8.205  19.996  0.00  0.00    +0.216 C 
ATOM     36  H   UNL     1      11.569  10.051  19.020  0.00  0.00    +0.149 HD
BRANCH   7  25
ATOM     25  C   UNL     1      11.690   8.553  17.537  0.00  0.00    +0.132 C 
BRANCH  25  26
ATOM     26  C   UNL     1      13.039   8.832  16.900  0.00  0.00    +0.178 C 
BRANCH  26   5
ATOM      5  O   UNL     1      13.727   7.606  16.693  0.00  0.00    -0.381 OA
ATOM     30  C   UNL     1      14.554   7.278  17.801  0.00  0.00    +0.194 C 
ENDBRANCH  26   5
ENDBRANCH  25  26
ENDBRANCH   7  25
ENDBRANCH  19  22
ENDBRANCH  14  19
TORSDOF 10
ENDMDL
MODEL 2
REMARK VINA RESULT:      -6.9     27.855     31.303
REMARK  Name = 45361535
REMARK  14 active torsions:
REMARK  status: ('A' for Active; 'I' for Inactive)
REMARK    1  A    between atoms: O_1  and  C_11
REMARK    2  A    between atoms: O_4  and  C_24
REMARK    3  A    between atoms: O_4  and  C_27
REMARK    4  A    between atoms: O_5  and  C_26
REMARK    5  A    between atoms: O_5  and  C_30
REMARK    6  A    between atoms: N_6  and  C_15
REMARK    7  A    between atoms: N_7  and  C_25
REMARK    8  A    between atoms: C_8  and  C_18
REMARK    9  A    between atoms: C_10  and  C_20
REMARK   10  A    between atoms: C_14  and  C_19
REMARK   11  A    between atoms: C_19  and  C_21
REMARK   12  A    between atoms: C_19  and  C_22
REMARK   13  A    between atoms: C_23  and  C_24
REMARK   14  A    between atoms: C_25  and  C_26
REMARK                            x       y       z     vdW  Elec       q    Type
REMARK                         _______ _______ _______ _____ _____    ______ ____
ROOT
ATOM      8  C   UNL     1      -3.612 -10.564  10.592  0.00  0.00    -0.027 C 
ATOM      9  C   UNL     1      -4.936 -10.242  11.362  0.00  0.00    +0.028 C 
ATOM     10  C   UNL     1      -5.757  -9.126  10.621  0.00  0.00    +0.012 C 
ATOM     11  C   UNL     1      -4.661  -9.979  12.871  0.00  0.00    +0.122 C 
ATOM     12  C   UNL     1      -2.887 -11.743  11.284  0.00  0.00    +0.007 C 
ATOM     13  C   UNL     1      -3.962 -11.007   9.152  0.00  0.00    +0.009 C 
ATOM     14  C   UNL     1      -3.846 -11.114  13.533  0.00  0.00    +0.029 C 
ATOM     15  C   UNL     1      -6.036  -9.549   9.152  0.00  0.00    +0.076 C 
ATOM     16  C   UNL     1      -2.582 -11.473  12.752  0.00  0.00    +0.007 C 
ATOM     17  C   UNL     1      -4.780  -9.974   8.392  0.00  0.00    +0.023 C 
ATOM     18  C   UNL     1      -2.649  -9.352  10.534  0.00  0.00    +0.011 C 
ATOM     20  C   UNL     1      -7.087  -8.779  11.310  0.00  0.00    +0.010 C 
ENDROOT
BRANCH  15   6
ATOM      3  O   UNL     1      -8.306  -9.813   7.377  0.00  0.00    -0.272 OA
ATOM      6  N   UNL     1      -6.689  -8.495   8.405  0.00  0.00    -0.309 N 
ATOM     23  C   UNL     1      -7.775  -8.724   7.577  0.00  0.00    +0.251 C 
ATOM     34  H   UNL     1      -6.289  -7.562   8.448  0.00  0.00    +0.149 HD
BRANCH  23  24
ATOM     24  C   UNL     1      -8.257  -7.447   6.923  0.00  0.00    +0.324 C 
BRANCH  24   4
ATOM      4  O   UNL     1      -8.217  -6.372   7.838  0.00  0.00    -0.483 OA
BRANCH   4  27
ATOM     27  C   UNL     1      -9.418  -5.797   8.183  0.00  0.00    +0.121 A 
ATOM     28  C   UNL     1      -9.444  -4.524   8.752  0.00  0.00    +0.045 A 
ATOM     29  C   UNL     1     -10.610  -6.487   7.962  0.00  0.00    +0.045 A 
ATOM     31  C   UNL     1     -10.662  -3.941   9.102  0.00  0.00    +0.004 A 
ATOM     32  C   UNL     1     -11.828  -5.904   8.311  0.00  0.00    +0.004 A 
ATOM     33  C   UNL     1     -11.854  -4.631   8.881  0.00  0.00    +0.000 A 
ENDBRANCH   4  27
ENDBRANCH  24   4
ENDBRANCH  23  24
ENDBRANCH  15   6
BRANCH  11   1
ATOM      1  O   UNL     1      -5.902  -9.904  13.576  0.00  0.00    -0.391 OA
ATOM     35  H   UNL     1      -5.715  -9.979  14.526  0.00  0.00    +0.210 HD
ENDBRANCH  11   1
BRANCH  14  19
ATOM     19  C   UNL     1      -3.473 -10.775  14.982  0.00  0.00    +0.077 C 
ATOM     21  C   UNL     1      -2.005 -11.093  15.235  0.00  0.00    +0.017 C 
BRANCH  19  22
ATOM      2  O   UNL     1      -4.381 -12.762  16.028  0.00  0.00    -0.276 OA
ATOM      7  N   UNL     1      -5.190 -10.691  16.690  0.00  0.00    -0.313 N 
ATOM     22  C   UNL     1      -4.382 -11.535  15.943  0.00  0.00    +0.216 C 
ATOM     36  H   UNL     1      -5.090  -9.685  16.603  0.00  0.00    +0.149 HD
BRANCH   7  25
ATOM     25  C   UNL     1      -6.137 -11.179  17.667  0.00  0.00    +0.132 C 
BRANCH  25  26
ATOM     26  C   UNL     1      -5.820 -10.660  19.058  0.00  0.00    +0.178 C 
BRANCH  26   5
ATOM      5  O   UNL     1      -6.860 -11.035  19.951  0.00  0.00    -0.381 OA
ATOM     30  C   UNL     1      -7.405 -12.303  19.614  0.00  0.00    +0.194 C 
ENDBRANCH  26   5
ENDBRANCH  25  26
ENDBRANCH   7  25
ENDBRANCH  19  22
ENDBRANCH  14  19
TORSDOF 10
ENDMDL
MODEL 3
REMARK VINA RESULT:      -6.9     28.005     31.892
REMARK  Name = 45361535
REMARK  14 active torsions:
REMARK  status: ('A' for Active; 'I' for Inactive)
REMARK    1  A    between atoms: O_1  and  C_11
REMARK    2  A    between atoms: O_4  and  C_24
REMARK    3  A    between atoms: O_4  and  C_27
REMARK    4  A    between atoms: O_5  and  C_26
REMARK    5  A    between atoms: O_5  and  C_30
REMARK    6  A    between atoms: N_6  and  C_15
REMARK    7  A    between atoms: N_7  and  C_25
REMARK    8  A    between atoms: C_8  and  C_18
REMARK    9  A    between atoms: C_10  and  C_20
REMARK   10  A    between atoms: C_14  and  C_19
REMARK   11  A    between atoms: C_19  and  C_21
REMARK   12  A    between atoms: C_19  and  C_22
REMARK   13  A    between atoms: C_23  and  C_24
REMARK   14  A    between atoms: C_25  and  C_26
REMARK                            x       y       z     vdW  Elec       q    Type
REMARK                         _______ _______ _______ _____ _____    ______ ____
ROOT
ATOM      8  C   UNL     1     -15.180   7.422  20.073  0.00  0.00    -0.027 C 
ATOM      9  C   UNL     1     -14.061   6.541  20.721  0.00  0.00    +0.028 C 
ATOM     10  C   UNL     1     -14.528   5.978  22.111  0.00  0.00    +0.012 C 
ATOM     11  C   UNL     1     -12.693   7.281  20.725  0.00  0.00    +0.122 C 
ATOM     12  C   UNL     1     -14.734   7.865  18.659  0.00  0.00    +0.007 C 
ATOM     13  C   UNL     1     -16.463   6.572  19.916  0.00  0.00    +0.009 C 
ATOM     14  C   UNL     1     -12.300   7.812  19.327  0.00  0.00    +0.029 C 
ATOM     15  C   UNL     1     -15.858   5.190  21.954  0.00  0.00    +0.076 C 
ATOM     16  C   UNL     1     -13.414   8.624  18.664  0.00  0.00    +0.007 C 
ATOM     17  C   UNL     1     -16.950   5.978  21.230  0.00  0.00    +0.023 C 
ATOM     18  C   UNL     1     -15.503   8.684  20.911  0.00  0.00    +0.011 C 
ATOM     20  C   UNL     1     -13.484   5.078  22.794  0.00  0.00    +0.010 C 
ENDROOT
BRANCH  15   6
ATOM      3  O   UNL     1     -16.539   2.490  22.739  0.00  0.00    -0.272 OA
ATOM      6  N   UNL     1     -16.379   4.756  23.234  0.00  0.00    -0.309 N 
ATOM     23  C   UNL     1     -16.676   3.433  23.513  0.00  0.00    +0.251 C 
ATOM     34  H   UNL     1     -16.591   5.466  23.929  0.00  0.00    +0.149 HD
BRANCH  23  24
ATOM     24  C   UNL     1     -17.202   3.265  24.922  0.00  0.00    +0.324 C 
BRANCH  24   4
ATOM      4  O   UNL     1     -16.217   3.623  25.868  0.00  0.00    -0.483 OA
BRANCH   4  27
ATOM     27  C   UNL     1     -16.234   2.962  27.073  0.00  0.00    +0.121 A 
ATOM     28  C   UNL     1     -15.818   3.614  28.234  0.00  0.00    +0.045 A 
ATOM     29  C   UNL     1     -16.669   1.638  27.135  0.00  0.00    +0.045 A 
ATOM     31  C   UNL     1     -15.836   2.942  29.456  0.00  0.00    +0.004 A 
ATOM     32  C   UNL     1     -16.687   0.966  28.358  0.00  0.00    +0.004 A 
ATOM     33  C   UNL     1     -16.270   1.619  29.518  0.00  0.00    +0.000 A 
ENDBRANCH   4  27
ENDBRANCH  24   4
ENDBRANCH  23  24
ENDBRANCH  15   6
BRANCH  11   1
ATOM      1  O   UNL     1     -11.661   6.375  21.121  0.00  0.00    -0.391 OA
ATOM     35  H   UNL     1     -11.445   5.811  20.360  0.00  0.00    +0.210 HD
ENDBRANCH  11   1
BRANCH  14  19
ATOM     19  C   UNL     1     -11.017   8.651  19.377  0.00  0.00    +0.077 C 
ATOM     21  C   UNL     1     -11.239   9.903  20.216  0.00  0.00    +0.017 C 
BRANCH  19  22
ATOM      2  O   UNL     1     -10.065  10.085  17.673  0.00  0.00    -0.276 OA
ATOM      7  N   UNL     1     -10.799   7.971  17.060  0.00  0.00    -0.313 N 
ATOM     22  C   UNL     1     -10.569   9.001  17.961  0.00  0.00    +0.216 C 
ATOM     36  H   UNL     1     -11.167   7.084  17.389  0.00  0.00    +0.149 HD
BRANCH   7  25
ATOM     25  C   UNL     1     -10.461   8.068  15.659  0.00  0.00    +0.132 C 
BRANCH  25  26
ATOM     26  C   UNL     1     -11.663   8.463  14.822  0.00  0.00    +0.178 C 
BRANCH  26   5
ATOM      5  O   UNL     1     -11.500   7.969  13.499  0.00  0.00    -0.381 OA
ATOM     30  C   UNL     1     -10.230   7.359  13.322  0.00  0.00    +0.194 C 
ENDBRANCH  26   5
ENDBRANCH  25  26
ENDBRANCH   7  25
ENDBRANCH  19  22
ENDBRANCH  14  19
TORSDOF 10
ENDMDL
MODEL 4
REMARK VINA RESULT:      -6.8     27.694     31.901
REMARK  Name = 45361535
REMARK  14 active torsions:
REMARK  status: ('A' for Active; 'I' for Inactive)
REMARK    1  A    between atoms: O_1  and  C_11
REMARK    2  A    between atoms: O_4  and  C_24
REMARK    3  A    between atoms: O_4  and  C_27
REMARK    4  A    between atoms: O_5  and  C_26
REMARK    5  A    between atoms: O_5  and  C_30
REMARK    6  A    between atoms: N_6  and  C_15
REMARK    7  A    between atoms: N_7  and  C_25
REMARK    8  A    between atoms: C_8  and  C_18
REMARK    9  A    between atoms: C_10  and  C_20
REMARK   10  A    between atoms: C_14  and  C_19
REMARK   11  A    between atoms: C_19  and  C_21
REMARK   12  A    between atoms: C_19  and  C_22
REMARK   13  A    between atoms: C_23  and  C_24
REMARK   14  A    between atoms: C_25  and  C_26
REMARK                            x       y       z     vdW  Elec       q    Type
REMARK                         _______ _______ _______ _____ _____    ______ ____
ROOT
ATOM      8  C   UNL     1     -15.401   7.184  20.572  0.00  0.00    -0.027 C 
ATOM      9  C   UNL     1     -14.245   6.262  21.084  0.00  0.00    +0.028 C 
ATOM     10  C   UNL     1     -14.615   5.616  22.467  0.00  0.00    +0.012 C 
ATOM     11  C   UNL     1     -12.874   6.997  21.035  0.00  0.00    +0.122 C 
ATOM     12  C   UNL     1     -15.053   7.711  19.160  0.00  0.00    +0.007 C 
ATOM     13  C   UNL     1     -16.697   6.349  20.456  0.00  0.00    +0.009 C 
ATOM     14  C   UNL     1     -12.578   7.612  19.648  0.00  0.00    +0.029 C 
ATOM     15  C   UNL     1     -15.959   4.843  22.358  0.00  0.00    +0.076 C 
ATOM     16  C   UNL     1     -13.730   8.465  19.117  0.00  0.00    +0.007 C 
ATOM     17  C   UNL     1     -17.093   5.677  21.762  0.00  0.00    +0.023 C 
ATOM     18  C   UNL     1     -15.654   8.394  21.506  0.00  0.00    +0.011 C 
ATOM     20  C   UNL     1     -13.532   4.674  23.018  0.00  0.00    +0.010 C 
ENDROOT
BRANCH  15   6
ATOM      3  O   UNL     1     -16.698   2.120  22.998  0.00  0.00    -0.272 OA
ATOM      6  N   UNL     1     -16.390   4.333  23.642  0.00  0.00    -0.309 N 
ATOM     23  C   UNL     1     -16.725   3.005  23.848  0.00  0.00    +0.251 C 
ATOM     34  H   UNL     1     -16.509   4.995  24.403  0.00  0.00    +0.149 HD
BRANCH  23  24
ATOM     24  C   UNL     1     -17.138   2.750  25.282  0.00  0.00    +0.324 C 
BRANCH  24   4
ATOM      4  O   UNL     1     -16.217   3.334  26.178  0.00  0.00    -0.483 OA
BRANCH   4  27
ATOM     27  C   UNL     1     -16.166   2.817  27.451  0.00  0.00    +0.121 A 
ATOM     28  C   UNL     1     -15.752   3.619  28.514  0.00  0.00    +0.045 A 
ATOM     29  C   UNL     1     -16.529   1.490  27.679  0.00  0.00    +0.045 A 
ATOM     31  C   UNL     1     -15.700   3.094  29.806  0.00  0.00    +0.004 A 
ATOM     32  C   UNL     1     -16.477   0.964  28.970  0.00  0.00    +0.004 A 
ATOM     33  C   UNL     1     -16.062   1.767  30.033  0.00  0.00    +0.000 A 
ENDBRANCH   4  27
ENDBRANCH  24   4
ENDBRANCH  23  24
ENDBRANCH  15   6
BRANCH  11   1
ATOM      1  O   UNL     1     -11.823   6.066  21.301  0.00  0.00    -0.391 OA
ATOM     35  H   UNL     1     -12.226   5.237  21.611  0.00  0.00    +0.210 HD
ENDBRANCH  11   1
BRANCH  14  19
ATOM     19  C   UNL     1     -11.288   8.442  19.657  0.00  0.00    +0.077 C 
ATOM     21  C   UNL     1     -11.546   9.808  20.282  0.00  0.00    +0.017 C 
BRANCH  19  22
ATOM      2  O   UNL     1     -10.573   7.603  17.500  0.00  0.00    -0.276 OA
ATOM      7  N   UNL     1     -10.472   9.888  17.891  0.00  0.00    -0.313 N 
ATOM     22  C   UNL     1     -10.745   8.573  18.238  0.00  0.00    +0.216 C 
ATOM     36  H   UNL     1     -10.695  10.638  18.537  0.00  0.00    +0.149 HD
BRANCH   7  25
ATOM     25  C   UNL     1      -9.946  10.263  16.599  0.00  0.00    +0.132 C 
BRANCH  25  26
ATOM     26  C   UNL     1     -10.045  11.760  16.370  0.00  0.00    +0.178 C 
BRANCH  26   5
ATOM      5  O   UNL     1      -9.418  12.445  17.445  0.00  0.00    -0.381 OA
ATOM     30  C   UNL     1     -10.111  13.640  17.777  0.00  0.00    +0.194 C 
ENDBRANCH  26   5
ENDBRANCH  25  26
ENDBRANCH   7  25
ENDBRANCH  19  22
ENDBRANCH  14  19
TORSDOF 10
ENDMDL
MODEL 5
REMARK VINA RESULT:      -6.6     27.800     31.174
REMARK  Name = 45361535
REMARK  14 active torsions:
REMARK  status: ('A' for Active; 'I' for Inactive)
REMARK    1  A    between atoms: O_1  and  C_11
REMARK    2  A    between atoms: O_4  and  C_24
REMARK    3  A    between atoms: O_4  and  C_27
REMARK    4  A    between atoms: O_5  and  C_26
REMARK    5  A    between atoms: O_5  and  C_30
REMARK    6  A    between atoms: N_6  and  C_15
REMARK    7  A    between atoms: N_7  and  C_25
REMARK    8  A    between atoms: C_8  and  C_18
REMARK    9  A    between atoms: C_10  and  C_20
REMARK   10  A    between atoms: C_14  and  C_19
REMARK   11  A    between atoms: C_19  and  C_21
REMARK   12  A    between atoms: C_19  and  C_22
REMARK   13  A    between atoms: C_23  and  C_24
REMARK   14  A    between atoms: C_25  and  C_26
REMARK                            x       y       z     vdW  Elec       q    Type
REMARK                         _______ _______ _______ _____ _____    ______ ____
ROOT
ATOM      8  C   UNL     1      -4.771 -11.026  16.884  0.00  0.00    -0.027 C 
ATOM      9  C   UNL     1      -5.541 -10.415  15.667  0.00  0.00    +0.028 C 
ATOM     10  C   UNL     1      -7.093 -10.532  15.872  0.00  0.00    +0.012 C 
ATOM     11  C   UNL     1      -5.000 -10.975  14.320  0.00  0.00    +0.122 C 
ATOM     12  C   UNL     1      -3.251 -10.793  16.704  0.00  0.00    +0.007 C 
ATOM     13  C   UNL     1      -5.208 -10.296  18.176  0.00  0.00    +0.009 C 
ATOM     14  C   UNL     1      -3.466 -10.832  14.189  0.00  0.00    +0.029 C 
ATOM     15  C   UNL     1      -7.512  -9.861  17.210  0.00  0.00    +0.076 C 
ATOM     16  C   UNL     1      -2.712 -11.374  15.404  0.00  0.00    +0.007 C 
ATOM     17  C   UNL     1      -6.710 -10.354  18.414  0.00  0.00    +0.023 C 
ATOM     18  C   UNL     1      -5.024 -12.546  17.046  0.00  0.00    +0.011 C 
ATOM     20  C   UNL     1      -7.914  -9.924  14.722  0.00  0.00    +0.010 C 
ENDROOT
BRANCH  15   6
ATOM      3  O   UNL     1      -9.537  -7.810  17.457  0.00  0.00    -0.272 OA
ATOM      6  N   UNL     1      -8.920 -10.051  17.488  0.00  0.00    -0.309 N 
ATOM     23  C   UNL     1      -9.814  -8.999  17.588  0.00  0.00    +0.251 C 
ATOM     34  H   UNL     1      -9.246 -10.995  17.678  0.00  0.00    +0.149 HD
BRANCH  23  24
ATOM     24  C   UNL     1     -11.216  -9.485  17.883  0.00  0.00    +0.324 C 
BRANCH  24   4
ATOM      4  O   UNL     1     -11.897  -9.800  16.688  0.00  0.00    -0.483 OA
BRANCH   4  27
ATOM     27  C   UNL     1     -12.253  -8.752  15.872  0.00  0.00    +0.121 A 
ATOM     28  C   UNL     1     -13.141  -7.780  16.333  0.00  0.00    +0.045 A 
ATOM     29  C   UNL     1     -11.725  -8.659  14.585  0.00  0.00    +0.045 A 
ATOM     31  C   UNL     1     -13.503  -6.717  15.506  0.00  0.00    +0.004 A 
ATOM     32  C   UNL     1     -12.086  -7.596  13.757  0.00  0.00    +0.004 A 
ATOM     33  C   UNL     1     -12.975  -6.625  14.219  0.00  0.00    +0.000 A 
ENDBRANCH   4  27
ENDBRANCH  24   4
ENDBRANCH  23  24
ENDBRANCH  15   6
BRANCH  11   1
ATOM      1  O   UNL     1      -5.571 -10.241  13.235  0.00  0.00    -0.391 OA
ATOM     35  H   UNL     1      -5.325 -10.686  12.406  0.00  0.00    +0.210 HD
ENDBRANCH  11   1
BRANCH  14  19
ATOM     19  C   UNL     1      -2.938 -11.507  12.917  0.00  0.00    +0.077 C 
ATOM     21  C   UNL     1      -1.746 -12.396  13.248  0.00  0.00    +0.017 C 
BRANCH  19  22
ATOM      2  O   UNL     1      -1.456  -9.933  11.824  0.00  0.00    -0.276 OA
ATOM      7  N   UNL     1      -3.628 -10.144  11.034  0.00  0.00    -0.313 N 
ATOM     22  C   UNL     1      -2.572 -10.448  11.881  0.00  0.00    +0.216 C 
ATOM     36  H   UNL     1      -4.501 -10.656  11.110  0.00  0.00    +0.149 HD
BRANCH   7  25
ATOM     25  C   UNL     1      -3.523  -9.169   9.974  0.00  0.00    +0.132 C 
BRANCH  25  26
ATOM     26  C   UNL     1      -4.773  -8.314   9.877  0.00  0.00    +0.178 C 
BRANCH  26   5
ATOM      5  O   UNL     1      -5.771  -8.836  10.744  0.00  0.00    -0.381 OA
ATOM     30  C   UNL     1      -7.013  -8.997  10.073  0.00  0.00    +0.194 C 
ENDBRANCH  26   5
ENDBRANCH  25  26
ENDBRANCH   7  25
ENDBRANCH  19  22
ENDBRANCH  14  19
TORSDOF 10
ENDMDL
MODEL 6
REMARK VINA RESULT:      -6.6     16.536     21.163
REMARK  Name = 45361535
REMARK  14 active torsions:
REMARK  status: ('A' for Active; 'I' for Inactive)
REMARK    1  A    between atoms: O_1  and  C_11
REMARK    2  A    between atoms: O_4  and  C_24
REMARK    3  A    between atoms: O_4  and  C_27
REMARK    4  A    between atoms: O_5  and  C_26
REMARK    5  A    between atoms: O_5  and  C_30
REMARK    6  A    between atoms: N_6  and  C_15
REMARK    7  A    between atoms: N_7  and  C_25
REMARK    8  A    between atoms: C_8  and  C_18
REMARK    9  A    between atoms: C_10  and  C_20
REMARK   10  A    between atoms: C_14  and  C_19
REMARK   11  A    between atoms: C_19  and  C_21
REMARK   12  A    between atoms: C_19  and  C_22
REMARK   13  A    between atoms: C_23  and  C_24
REMARK   14  A    between atoms: C_25  and  C_26
REMARK                            x       y       z     vdW  Elec       q    Type
REMARK                         _______ _______ _______ _____ _____    ______ ____
ROOT
ATOM      8  C   UNL     1      14.035   4.931   0.651  0.00  0.00    -0.027 C 
ATOM      9  C   UNL     1      12.521   5.265   0.863  0.00  0.00    +0.028 C 
ATOM     10  C   UNL     1      12.206   5.491   2.385  0.00  0.00    +0.012 C 
ATOM     11  C   UNL     1      11.610   4.234   0.137  0.00  0.00    +0.122 C 
ATOM     12  C   UNL     1      14.333   4.828  -0.864  0.00  0.00    +0.007 C 
ATOM     13  C   UNL     1      14.891   6.086   1.221  0.00  0.00    +0.009 C 
ATOM     14  C   UNL     1      11.980   4.059  -1.354  0.00  0.00    +0.029 C 
ATOM     15  C   UNL     1      13.125   6.601   2.966  0.00  0.00    +0.076 C 
ATOM     16  C   UNL     1      13.469   3.792  -1.570  0.00  0.00    +0.007 C 
ATOM     17  C   UNL     1      14.610   6.368   2.690  0.00  0.00    +0.023 C 
ATOM     18  C   UNL     1      14.451   3.602   1.331  0.00  0.00    +0.011 C 
ATOM     20  C   UNL     1      10.737   5.851   2.664  0.00  0.00    +0.010 C 
ENDROOT
BRANCH  15   6
ATOM      3  O   UNL     1      13.044   9.076   4.462  0.00  0.00    -0.272 OA
ATOM      6  N   UNL     1      12.943   6.754   4.395  0.00  0.00    -0.309 N 
ATOM     23  C   UNL     1      12.919   7.990   5.020  0.00  0.00    +0.251 C 
ATOM     34  H   UNL     1      12.894   5.913   4.963  0.00  0.00    +0.149 HD
BRANCH  23  24
ATOM     24  C   UNL     1      12.714   7.855   6.513  0.00  0.00    +0.324 C 
BRANCH  24   4
ATOM      4  O   UNL     1      11.439   8.332   6.886  0.00  0.00    -0.483 OA
BRANCH   4  27
ATOM     27  C   UNL     1      10.348   7.642   6.412  0.00  0.00    +0.121 A 
ATOM     28  C   UNL     1       9.391   8.296   5.637  0.00  0.00    +0.045 A 
ATOM     29  C   UNL     1      10.199   6.287   6.706  0.00  0.00    +0.045 A 
ATOM     31  C   UNL     1       8.284   7.596   5.156  0.00  0.00    +0.004 A 
ATOM     32  C   UNL     1       9.092   5.586   6.226  0.00  0.00    +0.004 A 
ATOM     33  C   UNL     1       8.135   6.241   5.451  0.00  0.00    +0.000 A 
ENDBRANCH   4  27
ENDBRANCH  24   4
ENDBRANCH  23  24
ENDBRANCH  15   6
BRANCH  11   1
ATOM      1  O   UNL     1      10.255   4.689   0.170  0.00  0.00    -0.391 OA
ATOM     35  H   UNL     1      10.259   5.635   0.391  0.00  0.00    +0.210 HD
ENDBRANCH  11   1
BRANCH  14  19
ATOM     19  C   UNL     1      11.159   2.946  -2.017  0.00  0.00    +0.077 C 
ATOM     21  C   UNL     1      12.073   1.810  -2.459  0.00  0.00    +0.017 C 
BRANCH  19  22
ATOM      2  O   UNL     1      10.607   3.213  -4.361  0.00  0.00    -0.276 OA
ATOM      7  N   UNL     1       9.372   4.391  -2.788  0.00  0.00    -0.313 N 
ATOM     22  C   UNL     1      10.368   3.513  -3.192  0.00  0.00    +0.216 C 
ATOM     36  H   UNL     1       9.201   4.542  -1.800  0.00  0.00    +0.149 HD
BRANCH   7  25
ATOM     25  C   UNL     1       8.492   5.057  -3.721  0.00  0.00    +0.132 C 
BRANCH  25  26
ATOM     26  C   UNL     1       8.102   6.439  -3.231  0.00  0.00    +0.178 C 
BRANCH  26   5
ATOM      5  O   UNL     1       9.245   7.088  -2.690  0.00  0.00    -0.381 OA
ATOM     30  C   UNL     1       8.932   7.782  -1.490  0.00  0.00    +0.194 C 
ENDBRANCH  26   5
ENDBRANCH  25  26
ENDBRANCH   7  25
ENDBRANCH  19  22
ENDBRANCH  14  19
TORSDOF 10
ENDMDL
MODEL 7
REMARK VINA RESULT:      -6.5     27.778     31.389
REMARK  Name = 45361535
REMARK  14 active torsions:
REMARK  status: ('A' for Active; 'I' for Inactive)
REMARK    1  A    between atoms: O_1  and  C_11
REMARK    2  A    between atoms: O_4  and  C_24
REMARK    3  A    between atoms: O_4  and  C_27
REMARK    4  A    between atoms: O_5  and  C_26
REMARK    5  A    between atoms: O_5  and  C_30
REMARK    6  A    between atoms: N_6  and  C_15
REMARK    7  A    between atoms: N_7  and  C_25
REMARK    8  A    between atoms: C_8  and  C_18
REMARK    9  A    between atoms: C_10  and  C_20
REMARK   10  A    between atoms: C_14  and  C_19
REMARK   11  A    between atoms: C_19  and  C_21
REMARK   12  A    between atoms: C_19  and  C_22
REMARK   13  A    between atoms: C_23  and  C_24
REMARK   14  A    between atoms: C_25  and  C_26
REMARK                            x       y       z     vdW  Elec       q    Type
REMARK                         _______ _______ _______ _____ _____    ______ ____
ROOT
ATOM      8  C   UNL     1      -4.752 -11.062  16.804  0.00  0.00    -0.027 C 
ATOM      9  C   UNL     1      -5.539 -10.463  15.591  0.00  0.00    +0.028 C 
ATOM     10  C   UNL     1      -7.088 -10.615  15.801  0.00  0.00    +0.012 C 
ATOM     11  C   UNL     1      -4.991 -11.008  14.241  0.00  0.00    +0.122 C 
ATOM     12  C   UNL     1      -3.239 -10.795  16.619  0.00  0.00    +0.007 C 
ATOM     13  C   UNL     1      -5.200 -10.344  18.099  0.00  0.00    +0.009 C 
ATOM     14  C   UNL     1      -3.461 -10.832  14.105  0.00  0.00    +0.029 C 
ATOM     15  C   UNL     1      -7.517  -9.957  17.143  0.00  0.00    +0.076 C 
ATOM     16  C   UNL     1      -2.691 -11.360  15.315  0.00  0.00    +0.007 C 
ATOM     17  C   UNL     1      -6.700 -10.435  18.343  0.00  0.00    +0.023 C 
ATOM     18  C   UNL     1      -4.972 -12.587  16.963  0.00  0.00    +0.011 C 
ATOM     20  C   UNL     1      -7.926 -10.022  14.656  0.00  0.00    +0.010 C 
ENDROOT
BRANCH  15   6
ATOM      3  O   UNL     1      -9.564  -7.946  17.511  0.00  0.00    -0.272 OA
ATOM      6  N   UNL     1      -8.919 -10.179  17.425  0.00  0.00    -0.309 N 
ATOM     23  C   UNL     1      -9.825  -9.144  17.586  0.00  0.00    +0.251 C 
ATOM     34  H   UNL     1      -9.231 -11.134  17.572  0.00  0.00    +0.149 HD
BRANCH  23  24
ATOM     24  C   UNL     1     -11.218  -9.661  17.871  0.00  0.00    +0.324 C 
BRANCH  24   4
ATOM      4  O   UNL     1     -11.605  -9.352  19.193  0.00  0.00    -0.483 OA
BRANCH   4  27
ATOM     27  C   UNL     1     -12.079 -10.385  19.966  0.00  0.00    +0.121 A 
ATOM     28  C   UNL     1     -13.272 -10.237  20.673  0.00  0.00    +0.045 A 
ATOM     29  C   UNL     1     -11.367 -11.582  20.043  0.00  0.00    +0.045 A 
ATOM     31  C   UNL     1     -13.753 -11.285  21.458  0.00  0.00    +0.004 A 
ATOM     32  C   UNL     1     -11.847 -12.631  20.827  0.00  0.00    +0.004 A 
ATOM     33  C   UNL     1     -13.040 -12.481  21.535  0.00  0.00    +0.000 A 
ENDBRANCH   4  27
ENDBRANCH  24   4
ENDBRANCH  23  24
ENDBRANCH  15   6
BRANCH  11   1
ATOM      1  O   UNL     1      -5.583 -10.284  13.160  0.00  0.00    -0.391 OA
ATOM     35  H   UNL     1      -5.330 -10.721  12.329  0.00  0.00    +0.210 HD
ENDBRANCH  11   1
BRANCH  14  19
ATOM     19  C   UNL     1      -2.924 -11.491  12.829  0.00  0.00    +0.077 C 
ATOM     21  C   UNL     1      -1.782 -12.441  13.168  0.00  0.00    +0.017 C 
BRANCH  19  22
ATOM      2  O   UNL     1      -1.357  -9.917  11.860  0.00  0.00    -0.276 OA
ATOM      7  N   UNL     1      -3.477 -10.087  10.932  0.00  0.00    -0.313 N 
ATOM     22  C   UNL     1      -2.480 -10.420  11.838  0.00  0.00    +0.216 C 
ATOM     36  H   UNL     1      -4.359 -10.589  10.944  0.00  0.00    +0.149 HD
BRANCH   7  25
ATOM     25  C   UNL     1      -3.294  -9.095   9.898  0.00  0.00    +0.132 C 
BRANCH  25  26
ATOM     26  C   UNL     1      -4.603  -8.765   9.205  0.00  0.00    +0.178 C 
BRANCH  26   5
ATOM      5  O   UNL     1      -4.810  -9.669   8.128  0.00  0.00    -0.381 OA
ATOM     30  C   UNL     1      -6.181 -10.014   7.992  0.00  0.00    +0.194 C 
ENDBRANCH  26   5
ENDBRANCH  25  26
ENDBRANCH   7  25
ENDBRANCH  19  22
ENDBRANCH  14  19
TORSDOF 10
ENDMDL
MODEL 8
REMARK VINA RESULT:      -6.5     15.114     18.423
REMARK  Name = 45361535
REMARK  14 active torsions:
REMARK  status: ('A' for Active; 'I' for Inactive)
REMARK    1  A    between atoms: O_1  and  C_11
REMARK    2  A    between atoms: O_4  and  C_24
REMARK    3  A    between atoms: O_4  and  C_27
REMARK    4  A    between atoms: O_5  and  C_26
REMARK    5  A    between atoms: O_5  and  C_30
REMARK    6  A    between atoms: N_6  and  C_15
REMARK    7  A    between atoms: N_7  and  C_25
REMARK    8  A    between atoms: C_8  and  C_18
REMARK    9  A    between atoms: C_10  and  C_20
REMARK   10  A    between atoms: C_14  and  C_19
REMARK   11  A    between atoms: C_19  and  C_21
REMARK   12  A    between atoms: C_19  and  C_22
REMARK   13  A    between atoms: C_23  and  C_24
REMARK   14  A    between atoms: C_25  and  C_26
REMARK                            x       y       z     vdW  Elec       q    Type
REMARK                         _______ _______ _______ _____ _____    ______ ____
ROOT
ATOM      8  C   UNL     1       9.743   6.586   6.583  0.00  0.00    -0.027 C 
ATOM      9  C   UNL     1      10.260   7.514   5.434  0.00  0.00    +0.028 C 
ATOM     10  C   UNL     1      11.331   6.773   4.556  0.00  0.00    +0.012 C 
ATOM     11  C   UNL     1      10.693   8.904   5.985  0.00  0.00    +0.122 C 
ATOM     12  C   UNL     1       8.611   7.304   7.356  0.00  0.00    +0.007 C 
ATOM     13  C   UNL     1       9.146   5.301   5.963  0.00  0.00    +0.009 C 
ATOM     14  C   UNL     1       9.595   9.572   6.844  0.00  0.00    +0.029 C 
ATOM     15  C   UNL     1      10.745   5.446   4.000  0.00  0.00    +0.076 C 
ATOM     16  C   UNL     1       9.043   8.648   7.930  0.00  0.00    +0.007 C 
ATOM     17  C   UNL     1      10.132   4.552   5.078  0.00  0.00    +0.023 C 
ATOM     18  C   UNL     1      10.860   6.199   7.584  0.00  0.00    +0.011 C 
ATOM     20  C   UNL     1      11.864   7.620   3.388  0.00  0.00    +0.010 C 
ENDROOT
BRANCH  15   6
ATOM      3  O   UNL     1      10.393   4.026   1.503  0.00  0.00    -0.272 OA
ATOM      6  N   UNL     1      11.741   4.679   3.282  0.00  0.00    -0.309 N 
ATOM     23  C   UNL     1      11.473   4.032   2.087  0.00  0.00    +0.251 C 
ATOM     34  H   UNL     1      12.656   4.564   3.710  0.00  0.00    +0.149 HD
BRANCH  23  24
ATOM     24  C   UNL     1      12.693   3.310   1.558  0.00  0.00    +0.324 C 
BRANCH  24   4
ATOM      4  O   UNL     1      12.711   3.329   0.146  0.00  0.00    -0.483 OA
BRANCH   4  27
ATOM     27  C   UNL     1      13.861   3.776  -0.461  0.00  0.00    +0.121 A 
ATOM     28  C   UNL     1      13.855   4.092  -1.819  0.00  0.00    +0.045 A 
ATOM     29  C   UNL     1      15.033   3.914   0.282  0.00  0.00    +0.045 A 
ATOM     31  C   UNL     1      15.022   4.545  -2.435  0.00  0.00    +0.004 A 
ATOM     32  C   UNL     1      16.200   4.367  -0.333  0.00  0.00    +0.004 A 
ATOM     33  C   UNL     1      16.194   4.682  -1.692  0.00  0.00    +0.000 A 
ENDBRANCH   4  27
ENDBRANCH  24   4
ENDBRANCH  23  24
ENDBRANCH  15   6
BRANCH  11   1
ATOM      1  O   UNL     1      10.952   9.789   4.893  0.00  0.00    -0.391 OA
ATOM     35  H   UNL     1      10.886   9.280   4.069  0.00  0.00    +0.210 HD
ENDBRANCH  11   1
BRANCH  14  19
ATOM     19  C   UNL     1      10.087  10.876   7.483  0.00  0.00    +0.077 C 
ATOM     21  C   UNL     1      10.216  10.706   8.992  0.00  0.00    +0.017 C 
BRANCH  19  22
ATOM      2  O   UNL     1       8.905  12.949   7.901  0.00  0.00    -0.276 OA
ATOM      7  N   UNL     1       8.586  11.879   5.867  0.00  0.00    -0.313 N 
ATOM     22  C   UNL     1       9.139  12.018   7.131  0.00  0.00    +0.216 C 
ATOM     36  H   UNL     1       8.874  11.111   5.269  0.00  0.00    +0.149 HD
BRANCH   7  25
ATOM     25  C   UNL     1       7.656  12.835   5.312  0.00  0.00    +0.132 C 
BRANCH  25  26
ATOM     26  C   UNL     1       6.453  12.148   4.691  0.00  0.00    +0.178 C 
BRANCH  26   5
ATOM      5  O   UNL     1       6.783  10.799   4.390  0.00  0.00    -0.381 OA
ATOM     30  C   UNL     1       5.787  10.186   3.583  0.00  0.00    +0.194 C 
ENDBRANCH  26   5
ENDBRANCH  25  26
ENDBRANCH   7  25
ENDBRANCH  19  22
ENDBRANCH  14  19
TORSDOF 10
ENDMDL
MODEL 9
REMARK VINA RESULT:      -6.5      2.519     10.016
REMARK  Name = 45361535
REMARK  14 active torsions:
REMARK  status: ('A' for Active; 'I' for Inactive)
REMARK    1  A    between atoms: O_1  and  C_11
REMARK    2  A    between atoms: O_4  and  C_24
REMARK    3  A    between atoms: O_4  and  C_27
REMARK    4  A    between atoms: O_5  and  C_26
REMARK    5  A    between atoms: O_5  and  C_30
REMARK    6  A    between atoms: N_6  and  C_15
REMARK    7  A    between atoms: N_7  and  C_25
REMARK    8  A    between atoms: C_8  and  C_18
REMARK    9  A    between atoms: C_10  and  C_20
REMARK   10  A    between atoms: C_14  and  C_19
REMARK   11  A    between atoms: C_19  and  C_21
REMARK   12  A    between atoms: C_19  and  C_22
REMARK   13  A    between atoms: C_23  and  C_24
REMARK   14  A    between atoms: C_25  and  C_26
REMARK                            x       y       z     vdW  Elec       q    Type
REMARK                         _______ _______ _______ _____ _____    ______ ____
ROOT
ATOM      8  C   UNL     1      20.736   7.764  22.055  0.00  0.00    -0.027 C 
ATOM      9  C   UNL     1      19.936   6.952  20.983  0.00  0.00    +0.028 C 
ATOM     10  C   UNL     1      18.391   7.185  21.143  0.00  0.00    +0.012 C 
ATOM     11  C   UNL     1      20.388   5.463  20.952  0.00  0.00    +0.122 C 
ATOM     12  C   UNL     1      22.254   7.602  21.798  0.00  0.00    +0.007 C 
ATOM     13  C   UNL     1      20.392   9.265  21.910  0.00  0.00    +0.009 C 
ATOM     14  C   UNL     1      21.918   5.309  20.798  0.00  0.00    +0.029 C 
ATOM     15  C   UNL     1      18.066   8.703  21.071  0.00  0.00    +0.076 C 
ATOM     16  C   UNL     1      22.705   6.147  21.806  0.00  0.00    +0.007 C 
ATOM     17  C   UNL     1      18.903   9.550  22.031  0.00  0.00    +0.023 C 
ATOM     18  C   UNL     1      20.425   7.306  23.502  0.00  0.00    +0.011 C 
ATOM     20  C   UNL     1      17.544   6.437  20.101  0.00  0.00    +0.010 C 
ENDROOT
BRANCH  15   6
ATOM      3  O   UNL     1      16.382  10.660  19.765  0.00  0.00    -0.272 OA
ATOM      6  N   UNL     1      16.666   8.965  21.331  0.00  0.00    -0.309 N 
ATOM     23  C   UNL     1      15.943   9.929  20.649  0.00  0.00    +0.251 C 
ATOM     34  H   UNL     1      16.219   8.459  22.090  0.00  0.00    +0.149 HD
BRANCH  23  24
ATOM     24  C   UNL     1      14.507   9.987  21.121  0.00  0.00    +0.324 C 
BRANCH  24   4
ATOM      4  O   UNL     1      14.237   8.941  22.029  0.00  0.00    -0.483 OA
BRANCH   4  27
ATOM     27  C   UNL     1      13.007   8.333  21.938  0.00  0.00    +0.121 A 
ATOM     28  C   UNL     1      11.865   8.999  22.383  0.00  0.00    +0.045 A 
ATOM     29  C   UNL     1      12.901   7.051  21.400  0.00  0.00    +0.045 A 
ATOM     31  C   UNL     1      10.617   8.382  22.291  0.00  0.00    +0.004 A 
ATOM     32  C   UNL     1      11.654   6.433  21.308  0.00  0.00    +0.004 A 
ATOM     33  C   UNL     1      10.512   7.099  21.754  0.00  0.00    +0.000 A 
ENDBRANCH   4  27
ENDBRANCH  24   4
ENDBRANCH  23  24
ENDBRANCH  15   6
BRANCH  11   1
ATOM      1  O   UNL     1      19.797   4.809  19.826  0.00  0.00    -0.391 OA
ATOM     35  H   UNL     1      19.021   4.314  20.138  0.00  0.00    +0.210 HD
ENDBRANCH  11   1
BRANCH  14  19
ATOM     19  C   UNL     1      22.355   3.842  20.902  0.00  0.00    +0.077 C 
ATOM     21  C   UNL     1      21.837   3.229  22.197  0.00  0.00    +0.017 C 
BRANCH  19  22
ATOM      2  O   UNL     1      24.562   3.221  21.686  0.00  0.00    -0.276 OA
ATOM      7  N   UNL     1      24.374   4.309  19.645  0.00  0.00    -0.313 N 
ATOM     22  C   UNL     1      23.875   3.745  20.810  0.00  0.00    +0.216 C 
ATOM     36  H   UNL     1      23.736   4.671  18.944  0.00  0.00    +0.149 HD
BRANCH   7  25
ATOM     25  C   UNL     1      25.785   4.339  19.334  0.00  0.00    +0.132 C 
BRANCH  25  26
ATOM     26  C   UNL     1      26.388   5.703  19.616  0.00  0.00    +0.178 C 
BRANCH  26   5
ATOM      5  O   UNL     1      27.583   5.857  18.861  0.00  0.00    -0.381 OA
ATOM     30  C   UNL     1      27.436   5.349  17.542  0.00  0.00    +0.194 C 
ENDBRANCH  26   5
ENDBRANCH  25  26
ENDBRANCH   7  25
ENDBRANCH  19  22
ENDBRANCH  14  19
TORSDOF 10
ENDMDL
MODEL 10
REMARK VINA RESULT:      -6.5     27.717     30.504
REMARK  Name = 45361535
REMARK  14 active torsions:
REMARK  status: ('A' for Active; 'I' for Inactive)
REMARK    1  A    between atoms: O_1  and  C_11
REMARK    2  A    between atoms: O_4  and  C_24
REMARK    3  A    between atoms: O_4  and  C_27
REMARK    4  A    between atoms: O_5  and  C_26
REMARK    5  A    between atoms: O_5  and  C_30
REMARK    6  A    between atoms: N_6  and  C_15
REMARK    7  A    between atoms: N_7  and  C_25
REMARK    8  A    between atoms: C_8  and  C_18
REMARK    9  A    between atoms: C_10  and  C_20
REMARK   10  A    between atoms: C_14  and  C_19
REMARK   11  A    between atoms: C_19  and  C_21
REMARK   12  A    between atoms: C_19  and  C_22
REMARK   13  A    between atoms: C_23  and  C_24
REMARK   14  A    between atoms: C_25  and  C_26
REMARK                            x       y       z     vdW  Elec       q    Type
REMARK                         _______ _______ _______ _____ _____    ______ ____
ROOT
ATOM      8  C   UNL     1      -6.758 -11.677  18.625  0.00  0.00    -0.027 C 
ATOM      9  C   UNL     1      -7.278 -11.073  17.278  0.00  0.00    +0.028 C 
ATOM     10  C   UNL     1      -6.085 -10.534  16.411  0.00  0.00    +0.012 C 
ATOM     11  C   UNL     1      -8.436 -10.063  17.523  0.00  0.00    +0.122 C 
ATOM     12  C   UNL     1      -7.943 -12.300  19.402  0.00  0.00    +0.007 C 
ATOM     13  C   UNL     1      -5.753 -12.810  18.314  0.00  0.00    +0.009 C 
ATOM     14  C   UNL     1      -9.571 -10.659  18.388  0.00  0.00    +0.029 C 
ATOM     15  C   UNL     1      -5.043 -11.660  16.168  0.00  0.00    +0.076 C 
ATOM     16  C   UNL     1      -9.062 -11.304  19.677  0.00  0.00    +0.007 C 
ATOM     17  C   UNL     1      -4.585 -12.352  17.453  0.00  0.00    +0.023 C 
ATOM     18  C   UNL     1      -6.074 -10.619  19.527  0.00  0.00    +0.011 C 
ATOM     20  C   UNL     1      -6.522  -9.949  15.057  0.00  0.00    +0.010 C 
ENDROOT
BRANCH  15   6
ATOM      3  O   UNL     1      -3.220 -13.188  14.520  0.00  0.00    -0.272 OA
ATOM      6  N   UNL     1      -3.873 -11.169  15.471  0.00  0.00    -0.309 N 
ATOM     23  C   UNL     1      -3.059 -11.985  14.703  0.00  0.00    +0.251 C 
ATOM     34  H   UNL     1      -3.610 -10.197  15.606  0.00  0.00    +0.149 HD
BRANCH  23  24
ATOM     24  C   UNL     1      -1.913 -11.210  14.089  0.00  0.00    +0.324 C 
BRANCH  24   4
ATOM      4  O   UNL     1      -1.643 -11.670  12.783  0.00  0.00    -0.483 OA
BRANCH   4  27
ATOM     27  C   UNL     1      -2.341 -11.083  11.753  0.00  0.00    +0.121 A 
ATOM     28  C   UNL     1      -3.331 -11.800  11.083  0.00  0.00    +0.045 A 
ATOM     29  C   UNL     1      -2.058  -9.769  11.381  0.00  0.00    +0.045 A 
ATOM     31  C   UNL     1      -4.039 -11.204  10.039  0.00  0.00    +0.004 A 
ATOM     32  C   UNL     1      -2.766  -9.172  10.338  0.00  0.00    +0.004 A 
ATOM     33  C   UNL     1      -3.756  -9.890   9.667  0.00  0.00    +0.000 A 
ENDBRANCH   4  27
ENDBRANCH  24   4
ENDBRANCH  23  24
ENDBRANCH  15   6
BRANCH  11   1
ATOM      1  O   UNL     1      -9.024  -9.699  16.273  0.00  0.00    -0.391 OA
ATOM     35  H   UNL     1      -8.585  -8.892  15.956  0.00  0.00    +0.210 HD
ENDBRANCH  11   1
BRANCH  14  19
ATOM     19  C   UNL     1     -10.638  -9.610  18.728  0.00  0.00    +0.077 C 
ATOM     21  C   UNL     1     -11.260  -9.913  20.085  0.00  0.00    +0.017 C 
BRANCH  19  22
ATOM      2  O   UNL     1     -12.551 -10.440  17.495  0.00  0.00    -0.276 OA
ATOM      7  N   UNL     1     -11.569  -8.451  16.813  0.00  0.00    -0.313 N 
ATOM     22  C   UNL     1     -11.693  -9.567  17.627  0.00  0.00    +0.216 C 
ATOM     36  H   UNL     1     -10.869  -7.747  17.023  0.00  0.00    +0.149 HD
BRANCH   7  25
ATOM     25  C   UNL     1     -12.453  -8.194  15.700  0.00  0.00    +0.132 C 
BRANCH  25  26
ATOM     26  C   UNL     1     -13.285  -6.945  15.927  0.00  0.00    +0.178 C 
BRANCH  26   5
ATOM      5  O   UNL     1     -12.517  -5.797  15.591  0.00  0.00    -0.381 OA
ATOM     30  C   UNL     1     -12.325  -5.690  14.188  0.00  0.00    +0.194 C 
ENDBRANCH  26   5
ENDBRANCH  25  26
ENDBRANCH   7  25
ENDBRANCH  19  22
ENDBRANCH  14  19
TORSDOF 10
ENDMDL
