MODEL 1
REMARK VINA RESULT:      -5.9      0.000      0.000
REMARK  Name = 7685286
REMARK  1 active torsions:
REMARK  status: ('A' for Active; 'I' for Inactive)
REMARK    1  A    between atoms: C_12  and  C_16
REMARK                            x       y       z     vdW  Elec       q    Type
REMARK                         _______ _______ _______ _____ _____    ______ ____
ROOT
ATOM      2  O   UNL     1     -15.162  -0.999  30.164  0.00  0.00    -0.268 OA
ATOM      3  N   UNL     1     -15.976   1.198  30.133  0.00  0.00    -0.311 N 
ATOM      4  N   UNL     1     -15.282   3.531  28.071  0.00  0.00    -0.315 NA
ATOM      5  C   UNL     1     -17.332   2.100  28.150  0.00  0.00    +0.023 C 
ATOM      6  C   UNL     1     -16.822   3.562  30.045  0.00  0.00    +0.051 C 
ATOM      7  C   UNL     1     -17.961   3.009  29.191  0.00  0.00    +0.017 C 
ATOM      8  C   UNL     1     -16.674   0.920  28.871  0.00  0.00    +0.130 C 
ATOM      9  C   UNL     1     -16.091   2.439  30.792  0.00  0.00    +0.034 A 
ATOM     10  C   UNL     1     -16.334   2.889  27.284  0.00  0.00    +0.086 C 
ATOM     11  C   UNL     1     -15.844   4.351  29.145  0.00  0.00    +0.090 C 
ATOM     12  C   UNL     1     -15.549   2.601  32.029  0.00  0.00    +0.009 A 
ATOM     13  C   UNL     1     -15.283   0.108  30.690  0.00  0.00    +0.252 A 
ATOM     14  C   UNL     1     -14.822   1.497  32.631  0.00  0.00    +0.016 A 
ATOM     15  C   UNL     1     -14.671   0.324  32.020  0.00  0.00    +0.071 A 
ATOM     20  H   UNL     1     -14.704   4.110  27.464  0.00  0.00    +0.122 HD
ENDROOT
BRANCH  12  16
ATOM      1  S   UNL     1     -14.376   4.967  32.599  0.00  0.00    -0.097 S 
ATOM     16  C   UNL     1     -15.666   3.845  32.687  0.00  0.00    +0.021 A 
ATOM     17  C   UNL     1     -16.719   4.325  33.434  0.00  0.00    +0.016 A 
ATOM     18  C   UNL     1     -16.463   5.631  33.941  0.00  0.00    +0.008 A 
ATOM     19  C   UNL     1     -15.225   6.101  33.562  0.00  0.00    +0.046 A 
ENDBRANCH  12  16
TORSDOF 1
ENDMDL
MODEL 2
REMARK VINA RESULT:      -5.7     35.543     37.624
REMARK  Name = 7685286
REMARK  1 active torsions:
REMARK  status: ('A' for Active; 'I' for Inactive)
REMARK    1  A    between atoms: C_12  and  C_16
REMARK                            x       y       z     vdW  Elec       q    Type
REMARK                         _______ _______ _______ _____ _____    ______ ____
ROOT
ATOM      2  O   UNL     1      13.113   8.548   7.339  0.00  0.00    -0.268 OA
ATOM      3  N   UNL     1      11.402   7.238   6.420  0.00  0.00    -0.311 N 
ATOM      4  N   UNL     1      10.283   4.438   7.460  0.00  0.00    -0.315 NA
ATOM      5  C   UNL     1       9.264   6.705   7.735  0.00  0.00    +0.023 C 
ATOM      6  C   UNL     1       9.569   5.797   5.484  0.00  0.00    +0.051 C 
ATOM      7  C   UNL     1       8.624   6.615   6.361  0.00  0.00    +0.017 C 
ATOM      8  C   UNL     1      10.575   7.485   7.609  0.00  0.00    +0.130 C 
ATOM      9  C   UNL     1      10.922   6.500   5.318  0.00  0.00    +0.034 A 
ATOM     10  C   UNL     1       9.472   5.297   8.322  0.00  0.00    +0.086 C 
ATOM     11  C   UNL     1       9.751   4.391   6.098  0.00  0.00    +0.090 C 
ATOM     12  C   UNL     1      11.665   6.422   4.181  0.00  0.00    +0.009 A 
ATOM     13  C   UNL     1      12.652   7.882   6.411  0.00  0.00    +0.252 A 
ATOM     14  C   UNL     1      12.963   7.072   4.140  0.00  0.00    +0.016 A 
ATOM     15  C   UNL     1      13.455   7.750   5.176  0.00  0.00    +0.071 A 
ATOM     20  H   UNL     1      10.316   3.496   7.849  0.00  0.00    +0.122 HD
ENDROOT
BRANCH  12  16
ATOM      1  S   UNL     1      10.336   6.491   1.830  0.00  0.00    -0.097 S 
ATOM     16  C   UNL     1      11.183   5.682   3.079  0.00  0.00    +0.021 A 
ATOM     17  C   UNL     1      11.293   4.330   2.839  0.00  0.00    +0.016 A 
ATOM     18  C   UNL     1      10.675   3.953   1.613  0.00  0.00    +0.008 A 
ATOM     19  C   UNL     1      10.115   5.031   0.962  0.00  0.00    +0.046 A 
ENDBRANCH  12  16
TORSDOF 1
ENDMDL
MODEL 3
REMARK VINA RESULT:      -5.7     35.526     37.695
REMARK  Name = 7685286
REMARK  1 active torsions:
REMARK  status: ('A' for Active; 'I' for Inactive)
REMARK    1  A    between atoms: C_12  and  C_16
REMARK                            x       y       z     vdW  Elec       q    Type
REMARK                         _______ _______ _______ _____ _____    ______ ____
ROOT
ATOM      2  O   UNL     1       7.206   9.181   4.234  0.00  0.00    -0.268 OA
ATOM      3  N   UNL     1       8.747   7.510   4.800  0.00  0.00    -0.311 N 
ATOM      4  N   UNL     1      11.295   7.736   6.706  0.00  0.00    -0.315 NA
ATOM      5  C   UNL     1       9.061   6.738   7.227  0.00  0.00    +0.023 C 
ATOM      6  C   UNL     1      10.424   5.755   5.448  0.00  0.00    +0.051 C 
ATOM      7  C   UNL     1       9.471   5.420   6.594  0.00  0.00    +0.017 C 
ATOM      8  C   UNL     1       8.279   7.550   6.192  0.00  0.00    +0.130 C 
ATOM      9  C   UNL     1       9.723   6.589   4.368  0.00  0.00    +0.034 A 
ATOM     10  C   UNL     1      10.300   7.489   7.749  0.00  0.00    +0.086 C 
ATOM     11  C   UNL     1      11.656   6.501   6.008  0.00  0.00    +0.090 C 
ATOM     12  C   UNL     1      10.018   6.487   3.044  0.00  0.00    +0.009 A 
ATOM     13  C   UNL     1       8.074   8.369   3.913  0.00  0.00    +0.252 A 
ATOM     14  C   UNL     1       9.345   7.362   2.101  0.00  0.00    +0.016 A 
ATOM     15  C   UNL     1       8.441   8.263   2.483  0.00  0.00    +0.071 A 
ATOM     20  H   UNL     1      12.128   8.153   7.119  0.00  0.00    +0.122 HD
ENDROOT
BRANCH  12  16
ATOM      1  S   UNL     1      12.585   6.114   2.287  0.00  0.00    -0.097 S 
ATOM     16  C   UNL     1      10.997   5.564   2.614  0.00  0.00    +0.021 A 
ATOM     17  C   UNL     1      10.864   4.209   2.403  0.00  0.00    +0.016 A 
ATOM     18  C   UNL     1      12.083   3.615   1.968  0.00  0.00    +0.008 A 
ATOM     19  C   UNL     1      13.101   4.537   1.862  0.00  0.00    +0.046 A 
ENDBRANCH  12  16
TORSDOF 1
ENDMDL
MODEL 4
REMARK VINA RESULT:      -5.5     22.233     24.013
REMARK  Name = 7685286
REMARK  1 active torsions:
REMARK  status: ('A' for Active; 'I' for Inactive)
REMARK    1  A    between atoms: C_12  and  C_16
REMARK                            x       y       z     vdW  Elec       q    Type
REMARK                         _______ _______ _______ _____ _____    ______ ____
ROOT
ATOM      2  O   UNL     1      -1.499 -10.236  12.591  0.00  0.00    -0.268 OA
ATOM      3  N   UNL     1      -3.591 -10.784  13.492  0.00  0.00    -0.311 N 
ATOM      4  N   UNL     1      -6.333  -9.175  13.236  0.00  0.00    -0.315 NA
ATOM      5  C   UNL     1      -5.625 -11.226  11.992  0.00  0.00    +0.023 C 
ATOM      6  C   UNL     1      -5.859 -11.326  14.426  0.00  0.00    +0.051 C 
ATOM      7  C   UNL     1      -6.084 -12.113  13.137  0.00  0.00    +0.017 C 
ATOM      8  C   UNL     1      -4.120 -10.988  12.137  0.00  0.00    +0.130 C 
ATOM      9  C   UNL     1      -4.370 -11.025  14.641  0.00  0.00    +0.034 A 
ATOM     10  C   UNL     1      -6.429  -9.914  11.977  0.00  0.00    +0.086 C 
ATOM     11  C   UNL     1      -6.683 -10.019  14.379  0.00  0.00    +0.090 C 
ATOM     12  C   UNL     1      -3.796 -10.966  15.873  0.00  0.00    +0.009 A 
ATOM     13  C   UNL     1      -2.227 -10.445  13.561  0.00  0.00    +0.252 A 
ATOM     14  C   UNL     1      -2.391 -10.614  15.981  0.00  0.00    +0.016 A 
ATOM     15  C   UNL     1      -1.637 -10.351  14.914  0.00  0.00    +0.071 A 
ATOM     20  H   UNL     1      -6.950  -8.365  13.206  0.00  0.00    +0.122 HD
ENDROOT
BRANCH  12  16
ATOM      1  S   UNL     1      -4.834 -12.819  17.544  0.00  0.00    -0.097 S 
ATOM     16  C   UNL     1      -4.579 -11.208  17.023  0.00  0.00    +0.021 A 
ATOM     17  C   UNL     1      -5.209 -10.295  17.840  0.00  0.00    +0.016 A 
ATOM     18  C   UNL     1      -5.909 -10.926  18.907  0.00  0.00    +0.008 A 
ATOM     19  C   UNL     1      -5.789 -12.298  18.866  0.00  0.00    +0.046 A 
ENDBRANCH  12  16
TORSDOF 1
ENDMDL
MODEL 5
REMARK VINA RESULT:      -5.4     34.720     35.896
REMARK  Name = 7685286
REMARK  1 active torsions:
REMARK  status: ('A' for Active; 'I' for Inactive)
REMARK    1  A    between atoms: C_12  and  C_16
REMARK                            x       y       z     vdW  Elec       q    Type
REMARK                         _______ _______ _______ _____ _____    ______ ____
ROOT
ATOM      2  O   UNL     1      18.601  -6.118  22.381  0.00  0.00    -0.268 OA
ATOM      3  N   UNL     1      18.242  -4.147  23.596  0.00  0.00    -0.311 N 
ATOM      4  N   UNL     1      17.535  -1.243  22.483  0.00  0.00    -0.315 NA
ATOM      5  C   UNL     1      15.992  -2.915  23.522  0.00  0.00    +0.023 C 
ATOM      6  C   UNL     1      17.838  -2.007  24.847  0.00  0.00    +0.051 C 
ATOM      7  C   UNL     1      16.378  -2.446  24.915  0.00  0.00    +0.017 C 
ATOM      8  C   UNL     1      16.834  -4.145  23.175  0.00  0.00    +0.130 C 
ATOM      9  C   UNL     1      18.756  -3.181  24.484  0.00  0.00    +0.034 A 
ATOM     10  C   UNL     1      16.173  -1.773  22.505  0.00  0.00    +0.086 C 
ATOM     11  C   UNL     1      17.981  -0.859  23.823  0.00  0.00    +0.090 C 
ATOM     12  C   UNL     1      20.024  -3.308  24.962  0.00  0.00    +0.009 A 
ATOM     13  C   UNL     1      19.003  -5.241  23.144  0.00  0.00    +0.252 A 
ATOM     14  C   UNL     1      20.839  -4.422  24.513  0.00  0.00    +0.016 A 
ATOM     15  C   UNL     1      20.390  -5.334  23.651  0.00  0.00    +0.071 A 
ATOM     20  H   UNL     1      17.579  -0.436  21.862  0.00  0.00    +0.122 HD
ENDROOT
BRANCH  12  16
ATOM      1  S   UNL     1      20.215  -2.480  27.527  0.00  0.00    -0.097 S 
ATOM     16  C   UNL     1      20.537  -2.338  25.851  0.00  0.00    +0.021 A 
ATOM     17  C   UNL     1      21.301  -1.229  25.563  0.00  0.00    +0.016 A 
ATOM     18  C   UNL     1      21.627  -0.486  26.733  0.00  0.00    +0.008 A 
ATOM     19  C   UNL     1      21.100  -1.054  27.872  0.00  0.00    +0.046 A 
ENDBRANCH  12  16
TORSDOF 1
ENDMDL
MODEL 6
REMARK VINA RESULT:      -5.4     21.575     23.455
REMARK  Name = 7685286
REMARK  1 active torsions:
REMARK  status: ('A' for Active; 'I' for Inactive)
REMARK    1  A    between atoms: C_12  and  C_16
REMARK                            x       y       z     vdW  Elec       q    Type
REMARK                         _______ _______ _______ _____ _____    ______ ____
ROOT
ATOM      2  O   UNL     1      -7.041 -14.899  16.722  0.00  0.00    -0.268 OA
ATOM      3  N   UNL     1      -6.022 -12.813  17.039  0.00  0.00    -0.311 N 
ATOM      4  N   UNL     1      -7.238  -9.917  16.485  0.00  0.00    -0.315 NA
ATOM      5  C   UNL     1      -6.976 -11.088  18.680  0.00  0.00    +0.023 C 
ATOM      6  C   UNL     1      -4.983 -10.550  17.368  0.00  0.00    +0.051 C 
ATOM      7  C   UNL     1      -5.535 -10.621  18.789  0.00  0.00    +0.017 C 
ATOM      8  C   UNL     1      -6.984 -12.506  18.106  0.00  0.00    +0.130 C 
ATOM      9  C   UNL     1      -4.972 -11.934  16.706  0.00  0.00    +0.034 A 
ATOM     10  C   UNL     1      -7.794 -10.103  17.825  0.00  0.00    +0.086 C 
ATOM     11  C   UNL     1      -5.822  -9.550  16.540  0.00  0.00    +0.090 C 
ATOM     12  C   UNL     1      -4.019 -12.324  15.816  0.00  0.00    +0.009 A 
ATOM     13  C   UNL     1      -6.153 -14.088  16.459  0.00  0.00    +0.252 A 
ATOM     14  C   UNL     1      -4.126 -13.631  15.195  0.00  0.00    +0.016 A 
ATOM     15  C   UNL     1      -5.123 -14.472  15.467  0.00  0.00    +0.071 A 
ATOM     20  H   UNL     1      -7.761  -9.194  15.994  0.00  0.00    +0.122 HD
ENDROOT
BRANCH  12  16
ATOM      1  S   UNL     1      -2.866 -10.816  13.893  0.00  0.00    -0.097 S 
ATOM     16  C   UNL     1      -2.968 -11.440  15.484  0.00  0.00    +0.021 A 
ATOM     17  C   UNL     1      -1.951 -10.975  16.288  0.00  0.00    +0.016 A 
ATOM     18  C   UNL     1      -1.077 -10.095  15.589  0.00  0.00    +0.008 A 
ATOM     19  C   UNL     1      -1.458  -9.920  14.277  0.00  0.00    +0.046 A 
ENDBRANCH  12  16
TORSDOF 1
ENDMDL
MODEL 7
REMARK VINA RESULT:      -5.3     20.701     22.622
REMARK  Name = 7685286
REMARK  1 active torsions:
REMARK  status: ('A' for Active; 'I' for Inactive)
REMARK    1  A    between atoms: C_12  and  C_16
REMARK                            x       y       z     vdW  Elec       q    Type
REMARK                         _______ _______ _______ _____ _____    ______ ____
ROOT
ATOM      2  O   UNL     1      -6.009 -11.422  20.810  0.00  0.00    -0.268 OA
ATOM      3  N   UNL     1      -6.016 -10.865  18.535  0.00  0.00    -0.311 N 
ATOM      4  N   UNL     1      -7.933 -11.969  16.237  0.00  0.00    -0.315 NA
ATOM      5  C   UNL     1      -8.056  -9.771  17.426  0.00  0.00    +0.023 C 
ATOM      6  C   UNL     1      -6.076 -10.298  16.088  0.00  0.00    +0.051 C 
ATOM      7  C   UNL     1      -7.029  -9.172  16.481  0.00  0.00    +0.017 C 
ATOM      8  C   UNL     1      -7.335 -10.236  18.693  0.00  0.00    +0.130 C 
ATOM      9  C   UNL     1      -5.321 -10.839  17.309  0.00  0.00    +0.034 A 
ATOM     10  C   UNL     1      -8.818 -10.914  16.731  0.00  0.00    +0.086 C 
ATOM     11  C   UNL     1      -6.872 -11.423  15.390  0.00  0.00    +0.090 C 
ATOM     12  C   UNL     1      -4.043 -11.302  17.247  0.00  0.00    +0.009 A 
ATOM     13  C   UNL     1      -5.452 -11.386  19.713  0.00  0.00    +0.252 A 
ATOM     14  C   UNL     1      -3.432 -11.852  18.443  0.00  0.00    +0.016 A 
ATOM     15  C   UNL     1      -4.075 -11.916  19.608  0.00  0.00    +0.071 A 
ATOM     20  H   UNL     1      -8.475 -12.653  15.711  0.00  0.00    +0.122 HD
ENDROOT
BRANCH  12  16
ATOM      1  S   UNL     1      -3.504 -12.594  14.936  0.00  0.00    -0.097 S 
ATOM     16  C   UNL     1      -3.348 -11.276  16.017  0.00  0.00    +0.021 A 
ATOM     17  C   UNL     1      -2.515 -10.297  15.523  0.00  0.00    +0.016 A 
ATOM     18  C   UNL     1      -1.997 -10.633  14.239  0.00  0.00    +0.008 A 
ATOM     19  C   UNL     1      -2.454 -11.857  13.801  0.00  0.00    +0.046 A 
ENDBRANCH  12  16
TORSDOF 1
ENDMDL
MODEL 8
REMARK VINA RESULT:      -5.3     22.511     24.603
REMARK  Name = 7685286
REMARK  1 active torsions:
REMARK  status: ('A' for Active; 'I' for Inactive)
REMARK    1  A    between atoms: C_12  and  C_16
REMARK                            x       y       z     vdW  Elec       q    Type
REMARK                         _______ _______ _______ _____ _____    ______ ____
ROOT
ATOM      2  O   UNL     1      -1.181 -11.161  15.295  0.00  0.00    -0.268 OA
ATOM      3  N   UNL     1      -3.475 -10.721  15.103  0.00  0.00    -0.311 N 
ATOM      4  N   UNL     1      -5.920 -12.550  16.022  0.00  0.00    -0.315 NA
ATOM      5  C   UNL     1      -4.984 -10.535  17.170  0.00  0.00    +0.023 C 
ATOM      6  C   UNL     1      -5.945 -10.298  14.932  0.00  0.00    +0.051 C 
ATOM      7  C   UNL     1      -5.814  -9.615  16.291  0.00  0.00    +0.017 C 
ATOM      8  C   UNL     1      -3.581 -10.646  16.567  0.00  0.00    +0.130 C 
ATOM      9  C   UNL     1      -4.576 -10.467  14.260  0.00  0.00    +0.034 A 
ATOM     10  C   UNL     1      -5.672 -11.904  17.311  0.00  0.00    +0.086 C 
ATOM     11  C   UNL     1      -6.644 -11.664  15.110  0.00  0.00    +0.090 C 
ATOM     12  C   UNL     1      -4.396 -10.402  12.914  0.00  0.00    +0.009 A 
ATOM     13  C   UNL     1      -2.178 -10.948  14.605  0.00  0.00    +0.252 A 
ATOM     14  C   UNL     1      -3.072 -10.636  12.366  0.00  0.00    +0.016 A 
ATOM     15  C   UNL     1      -2.019 -10.908  13.135  0.00  0.00    +0.071 A 
ATOM     20  H   UNL     1      -6.454 -13.407  16.165  0.00  0.00    +0.122 HD
ENDROOT
BRANCH  12  16
ATOM      1  S   UNL     1      -6.291 -11.458  11.302  0.00  0.00    -0.097 S 
ATOM     16  C   UNL     1      -5.501 -10.148  12.072  0.00  0.00    +0.021 A 
ATOM     17  C   UNL     1      -6.078  -8.938  11.753  0.00  0.00    +0.016 A 
ATOM     18  C   UNL     1      -7.182  -9.089  10.867  0.00  0.00    +0.008 A 
ATOM     19  C   UNL     1      -7.408 -10.408  10.540  0.00  0.00    +0.046 A 
ENDBRANCH  12  16
TORSDOF 1
ENDMDL
MODEL 9
REMARK VINA RESULT:      -5.2      8.300     11.129
REMARK  Name = 7685286
REMARK  1 active torsions:
REMARK  status: ('A' for Active; 'I' for Inactive)
REMARK    1  A    between atoms: C_12  and  C_16
REMARK                            x       y       z     vdW  Elec       q    Type
REMARK                         _______ _______ _______ _____ _____    ______ ____
ROOT
ATOM      2  O   UNL     1     -16.074   9.452  24.777  0.00  0.00    -0.268 OA
ATOM      3  N   UNL     1     -15.427   7.808  23.238  0.00  0.00    -0.311 N 
ATOM      4  N   UNL     1     -14.096   4.970  23.824  0.00  0.00    -0.315 NA
ATOM      5  C   UNL     1     -16.479   5.468  23.252  0.00  0.00    +0.023 C 
ATOM      6  C   UNL     1     -14.724   6.007  21.634  0.00  0.00    +0.051 C 
ATOM      7  C   UNL     1     -16.150   5.478  21.769  0.00  0.00    +0.017 C 
ATOM      8  C   UNL     1     -16.466   6.911  23.761  0.00  0.00    +0.130 C 
ATOM      9  C   UNL     1     -14.615   7.451  22.142  0.00  0.00    +0.034 A 
ATOM     10  C   UNL     1     -15.489   4.568  24.012  0.00  0.00    +0.086 C 
ATOM     11  C   UNL     1     -13.758   5.078  22.404  0.00  0.00    +0.090 C 
ATOM     12  C   UNL     1     -13.770   8.367  21.599  0.00  0.00    +0.009 A 
ATOM     13  C   UNL     1     -15.380   9.084  23.829  0.00  0.00    +0.252 A 
ATOM     14  C   UNL     1     -13.692   9.692  22.187  0.00  0.00    +0.016 A 
ATOM     15  C   UNL     1     -14.425  10.049  23.241  0.00  0.00    +0.071 A 
ATOM     20  H   UNL     1     -13.480   4.293  24.273  0.00  0.00    +0.122 HD
ENDROOT
BRANCH  12  16
ATOM      1  S   UNL     1     -13.495   8.339  18.911  0.00  0.00    -0.097 S 
ATOM     16  C   UNL     1     -12.957   8.006  20.502  0.00  0.00    +0.021 A 
ATOM     17  C   UNL     1     -11.725   7.389  20.513  0.00  0.00    +0.016 A 
ATOM     18  C   UNL     1     -11.217   7.188  19.198  0.00  0.00    +0.008 A 
ATOM     19  C   UNL     1     -12.078   7.658  18.231  0.00  0.00    +0.046 A 
ENDBRANCH  12  16
TORSDOF 1
ENDMDL
MODEL 10
REMARK VINA RESULT:      -5.2     22.466     24.195
REMARK  Name = 7685286
REMARK  1 active torsions:
REMARK  status: ('A' for Active; 'I' for Inactive)
REMARK    1  A    between atoms: C_12  and  C_16
REMARK                            x       y       z     vdW  Elec       q    Type
REMARK                         _______ _______ _______ _____ _____    ______ ____
ROOT
ATOM      2  O   UNL     1      -3.416 -15.629  14.215  0.00  0.00    -0.268 OA
ATOM      3  N   UNL     1      -3.735 -13.430  14.957  0.00  0.00    -0.311 N 
ATOM      4  N   UNL     1      -1.530 -11.311  15.863  0.00  0.00    -0.315 NA
ATOM      5  C   UNL     1      -2.756 -11.428  13.685  0.00  0.00    +0.023 C 
ATOM      6  C   UNL     1      -4.018 -11.063  15.750  0.00  0.00    +0.051 C 
ATOM      7  C   UNL     1      -3.933 -10.672  14.276  0.00  0.00    +0.017 C 
ATOM      8  C   UNL     1      -3.058 -12.926  13.754  0.00  0.00    +0.130 C 
ATOM      9  C   UNL     1      -4.302 -12.562  15.912  0.00  0.00    +0.034 A 
ATOM     10  C   UNL     1      -1.457 -11.057  14.424  0.00  0.00    +0.086 C 
ATOM     11  C   UNL     1      -2.703 -10.672  16.460  0.00  0.00    +0.090 C 
ATOM     12  C   UNL     1      -5.046 -13.070  16.931  0.00  0.00    +0.009 A 
ATOM     13  C   UNL     1      -3.878 -14.828  15.027  0.00  0.00    +0.252 A 
ATOM     14  C   UNL     1      -5.210 -14.509  17.036  0.00  0.00    +0.016 A 
ATOM     15  C   UNL     1      -4.661 -15.355  16.166  0.00  0.00    +0.071 A 
ATOM     20  H   UNL     1      -0.684 -10.968  16.315  0.00  0.00    +0.122 HD
ENDROOT
BRANCH  12  16
ATOM      1  S   UNL     1      -7.159 -11.522  17.597  0.00  0.00    -0.097 S 
ATOM     16  C   UNL     1      -5.612 -12.198  17.887  0.00  0.00    +0.021 A 
ATOM     17  C   UNL     1      -5.082 -11.781  19.088  0.00  0.00    +0.016 A 
ATOM     18  C   UNL     1      -5.957 -10.895  19.780  0.00  0.00    +0.008 A 
ATOM     19  C   UNL     1      -7.123 -10.668  19.082  0.00  0.00    +0.046 A 
ENDBRANCH  12  16
TORSDOF 1
ENDMDL
