MODEL 1
REMARK VINA RESULT:      -6.1      0.000      0.000
REMARK  Name = 26742270
REMARK  7 active torsions:
REMARK  status: ('A' for Active; 'I' for Inactive)
REMARK    1  A    between atoms: O_1  and  C_10
REMARK    2  A    between atoms: O_4  and  C_25
REMARK    3  A    between atoms: O_4  and  C_30
REMARK    4  A    between atoms: N_6  and  C_9
REMARK    5  A    between atoms: N_7  and  C_18
REMARK    6  A    between atoms: C_16  and  C_17
REMARK    7  A    between atoms: C_26  and  C_29
REMARK                            x       y       z     vdW  Elec       q    Type
REMARK                         _______ _______ _______ _____ _____    ______ ____
ROOT
ATOM      2  O   UNL     1      15.806   6.588   1.031  0.00  0.00    -0.252 OA
ATOM      5  N   UNL     1      14.810   4.505   0.913  0.00  0.00    -0.284 N 
ATOM      7  N   UNL     1      14.380   5.935   2.745  0.00  0.00    -0.269 N 
ATOM      9  C   UNL     1      12.432   3.678   0.902  0.00  0.00    +0.119 C 
ATOM     10  C   UNL     1      12.251   4.221  -0.528  0.00  0.00    +0.136 C 
ATOM     11  C   UNL     1      13.256   3.712  -1.565  0.00  0.00    +0.035 C 
ATOM     12  C   UNL     1      13.875   3.471   1.377  0.00  0.00    +0.134 C 
ATOM     13  C   UNL     1      14.574   4.489  -1.563  0.00  0.00    +0.022 C 
ATOM     14  C   UNL     1      15.469   4.212  -0.361  0.00  0.00    +0.109 C 
ATOM     15  C   UNL     1      15.055   5.751   1.538  0.00  0.00    +0.307 C 
ATOM     33  H   UNL     1      13.764   5.199   3.069  0.00  0.00    +0.156 HD
ENDROOT
BRANCH   7  18
ATOM     18  C   UNL     1      14.417   7.065   3.600  0.00  0.00    +0.036 A 
ATOM     21  C   UNL     1      15.615   7.442   4.206  0.00  0.00    +0.042 A 
ATOM     22  C   UNL     1      13.255   7.801   3.835  0.00  0.00    +0.023 A 
ATOM     26  C   UNL     1      15.653   8.554   5.047  0.00  0.00    +0.054 A 
ATOM     27  C   UNL     1      13.292   8.913   4.676  0.00  0.00    +0.003 A 
ATOM     28  C   UNL     1      14.491   9.289   5.283  0.00  0.00    +0.019 A 
BRANCH  26  29
ATOM      8  N   UNL     1      17.877   9.254   6.173  0.00  0.00    -0.191 NA
ATOM     29  C   UNL     1      16.881   8.941   5.668  0.00  0.00    +0.099 C 
ENDBRANCH  26  29
ENDBRANCH   7  18
BRANCH   9   6
ATOM      3  O   UNL     1      10.997   2.839   3.241  0.00  0.00    -0.270 OA
ATOM      6  N   UNL     1      11.707   4.530   1.824  0.00  0.00    -0.305 N 
ATOM     16  C   UNL     1      11.045   4.025   2.928  0.00  0.00    +0.244 C 
ATOM     31  H   UNL     1      11.796   5.533   1.696  0.00  0.00    +0.149 HD
BRANCH  16  17
ATOM     17  C   UNL     1      10.328   5.026   3.760  0.00  0.00    +0.037 A 
ATOM     19  C   UNL     1      10.040   4.746   5.095  0.00  0.00    +0.016 A 
ATOM     20  C   UNL     1       9.942   6.246   3.204  0.00  0.00    +0.016 A 
ATOM     23  C   UNL     1       9.367   5.685   5.876  0.00  0.00    +0.046 A 
ATOM     24  C   UNL     1       9.268   7.186   3.985  0.00  0.00    +0.046 A 
ATOM     25  C   UNL     1       8.981   6.905   5.321  0.00  0.00    +0.120 A 
BRANCH  25   4
ATOM      4  O   UNL     1       8.323   7.822   6.083  0.00  0.00    -0.495 OA
ATOM     30  C   UNL     1       8.744   7.962   7.438  0.00  0.00    +0.277 C 
ENDBRANCH  25   4
ENDBRANCH  16  17
ENDBRANCH   9   6
BRANCH  10   1
ATOM      1  O   UNL     1      10.947   3.832  -0.981  0.00  0.00    -0.390 OA
ATOM     32  H   UNL     1      10.404   4.635  -1.041  0.00  0.00    +0.210 HD
ENDBRANCH  10   1
TORSDOF 6
ENDMDL
MODEL 2
REMARK VINA RESULT:      -6.1      1.181      1.843
REMARK  Name = 26742270
REMARK  7 active torsions:
REMARK  status: ('A' for Active; 'I' for Inactive)
REMARK    1  A    between atoms: O_1  and  C_10
REMARK    2  A    between atoms: O_4  and  C_25
REMARK    3  A    between atoms: O_4  and  C_30
REMARK    4  A    between atoms: N_6  and  C_9
REMARK    5  A    between atoms: N_7  and  C_18
REMARK    6  A    between atoms: C_16  and  C_17
REMARK    7  A    between atoms: C_26  and  C_29
REMARK                            x       y       z     vdW  Elec       q    Type
REMARK                         _______ _______ _______ _____ _____    ______ ____
ROOT
ATOM      2  O   UNL     1      16.061   6.659   1.057  0.00  0.00    -0.252 OA
ATOM      5  N   UNL     1      15.079   4.583   0.786  0.00  0.00    -0.284 N 
ATOM      7  N   UNL     1      14.497   5.952   2.623  0.00  0.00    -0.269 N 
ATOM      9  C   UNL     1      12.710   3.763   0.550  0.00  0.00    +0.119 C 
ATOM     10  C   UNL     1      12.648   4.354  -0.870  0.00  0.00    +0.136 C 
ATOM     11  C   UNL     1      13.736   3.878  -1.838  0.00  0.00    +0.035 C 
ATOM     12  C   UNL     1      14.109   3.537   1.136  0.00  0.00    +0.134 C 
ATOM     13  C   UNL     1      15.049   4.651  -1.700  0.00  0.00    +0.022 C 
ATOM     14  C   UNL     1      15.841   4.332  -0.438  0.00  0.00    +0.109 C 
ATOM     15  C   UNL     1      15.271   5.807   1.471  0.00  0.00    +0.307 C 
ATOM     33  H   UNL     1      13.857   5.207   2.870  0.00  0.00    +0.156 HD
ENDROOT
BRANCH   7  18
ATOM     18  C   UNL     1      14.464   7.053   3.516  0.00  0.00    +0.036 A 
ATOM     21  C   UNL     1      13.261   7.715   3.763  0.00  0.00    +0.042 A 
ATOM     22  C   UNL     1      15.634   7.474   4.148  0.00  0.00    +0.023 A 
ATOM     26  C   UNL     1      13.227   8.798   4.641  0.00  0.00    +0.054 A 
ATOM     27  C   UNL     1      15.600   8.557   5.028  0.00  0.00    +0.003 A 
ATOM     28  C   UNL     1      14.397   9.219   5.273  0.00  0.00    +0.019 A 
BRANCH  26  29
ATOM      8  N   UNL     1      10.995  10.027   5.100  0.00  0.00    -0.191 NA
ATOM     29  C   UNL     1      11.995   9.476   4.894  0.00  0.00    +0.099 C 
ENDBRANCH  26  29
ENDBRANCH   7  18
BRANCH   9   6
ATOM      3  O   UNL     1      11.268   2.879   2.868  0.00  0.00    -0.270 OA
ATOM      6  N   UNL     1      11.911   4.585   1.437  0.00  0.00    -0.305 N 
ATOM     16  C   UNL     1      11.252   4.060   2.533  0.00  0.00    +0.244 C 
ATOM     31  H   UNL     1      11.942   5.590   1.292  0.00  0.00    +0.149 HD
BRANCH  16  17
ATOM     17  C   UNL     1      10.454   5.030   3.328  0.00  0.00    +0.037 A 
ATOM     19  C   UNL     1      10.106   4.734   4.645  0.00  0.00    +0.016 A 
ATOM     20  C   UNL     1      10.052   6.238   2.755  0.00  0.00    +0.016 A 
ATOM     23  C   UNL     1       9.356   5.644   5.391  0.00  0.00    +0.046 A 
ATOM     24  C   UNL     1       9.302   7.148   3.500  0.00  0.00    +0.046 A 
ATOM     25  C   UNL     1       8.955   6.850   4.818  0.00  0.00    +0.120 A 
BRANCH  25   4
ATOM      4  O   UNL     1       8.223   7.739   5.546  0.00  0.00    -0.495 OA
ATOM     30  C   UNL     1       8.555   7.877   6.926  0.00  0.00    +0.277 C 
ENDBRANCH  25   4
ENDBRANCH  16  17
ENDBRANCH   9   6
BRANCH  10   1
ATOM      1  O   UNL     1      11.387   3.984  -1.444  0.00  0.00    -0.390 OA
ATOM     32  H   UNL     1      11.110   3.148  -1.034  0.00  0.00    +0.210 HD
ENDBRANCH  10   1
TORSDOF 6
ENDMDL
MODEL 3
REMARK VINA RESULT:      -6.1     25.177     28.886
REMARK  Name = 26742270
REMARK  7 active torsions:
REMARK  status: ('A' for Active; 'I' for Inactive)
REMARK    1  A    between atoms: O_1  and  C_10
REMARK    2  A    between atoms: O_4  and  C_25
REMARK    3  A    between atoms: O_4  and  C_30
REMARK    4  A    between atoms: N_6  and  C_9
REMARK    5  A    between atoms: N_7  and  C_18
REMARK    6  A    between atoms: C_16  and  C_17
REMARK    7  A    between atoms: C_26  and  C_29
REMARK                            x       y       z     vdW  Elec       q    Type
REMARK                         _______ _______ _______ _____ _____    ______ ____
ROOT
ATOM      2  O   UNL     1      -8.507 -10.421  18.244  0.00  0.00    -0.252 OA
ATOM      5  N   UNL     1      -6.946 -12.069  17.804  0.00  0.00    -0.284 N 
ATOM      7  N   UNL     1      -8.134 -11.042  16.037  0.00  0.00    -0.269 N 
ATOM      9  C   UNL     1      -4.845 -12.194  16.421  0.00  0.00    +0.119 C 
ATOM     10  C   UNL     1      -4.119 -11.305  17.447  0.00  0.00    +0.136 C 
ATOM     11  C   UNL     1      -4.130 -11.812  18.893  0.00  0.00    +0.035 C 
ATOM     12  C   UNL     1      -6.125 -12.888  16.903  0.00  0.00    +0.134 C 
ATOM     13  C   UNL     1      -5.405 -11.444  19.654  0.00  0.00    +0.022 C 
ATOM     14  C   UNL     1      -6.642 -12.224  19.227  0.00  0.00    +0.109 C 
ATOM     15  C   UNL     1      -7.918 -11.117  17.413  0.00  0.00    +0.307 C 
ATOM     33  H   UNL     1      -7.583 -11.638  15.430  0.00  0.00    +0.156 HD
ENDROOT
BRANCH   7  18
ATOM     18  C   UNL     1      -9.033 -10.195  15.341  0.00  0.00    +0.036 A 
ATOM     21  C   UNL     1      -9.469  -9.008  15.928  0.00  0.00    +0.042 A 
ATOM     22  C   UNL     1      -9.483 -10.551  14.069  0.00  0.00    +0.023 A 
ATOM     26  C   UNL     1     -10.354  -8.175  15.244  0.00  0.00    +0.054 A 
ATOM     27  C   UNL     1     -10.368  -9.717  13.384  0.00  0.00    +0.003 A 
ATOM     28  C   UNL     1     -10.804  -8.530  13.972  0.00  0.00    +0.019 A 
BRANCH  26  29
ATOM      8  N   UNL     1     -11.164  -5.969  16.332  0.00  0.00    -0.191 NA
ATOM     29  C   UNL     1     -10.801  -6.957  15.845  0.00  0.00    +0.099 C 
ENDBRANCH  26  29
ENDBRANCH   7  18
BRANCH   9   6
ATOM      3  O   UNL     1      -3.167 -12.005  14.101  0.00  0.00    -0.270 OA
ATOM      6  N   UNL     1      -5.106 -11.416  15.226  0.00  0.00    -0.305 N 
ATOM     16  C   UNL     1      -4.229 -11.391  14.157  0.00  0.00    +0.244 C 
ATOM     31  H   UNL     1      -6.016 -10.973  15.150  0.00  0.00    +0.149 HD
BRANCH  16  17
ATOM     17  C   UNL     1      -4.628 -10.524  13.018  0.00  0.00    +0.037 A 
ATOM     19  C   UNL     1      -5.868  -9.887  13.028  0.00  0.00    +0.016 A 
ATOM     20  C   UNL     1      -3.762 -10.349  11.938  0.00  0.00    +0.016 A 
ATOM     23  C   UNL     1      -6.243  -9.073  11.959  0.00  0.00    +0.046 A 
ATOM     24  C   UNL     1      -4.137  -9.535  10.869  0.00  0.00    +0.046 A 
ATOM     25  C   UNL     1      -5.378  -8.898  10.880  0.00  0.00    +0.120 A 
BRANCH  25   4
ATOM      4  O   UNL     1      -5.744  -8.104   9.836  0.00  0.00    -0.495 OA
ATOM     30  C   UNL     1      -7.007  -8.370   9.229  0.00  0.00    +0.277 C 
ENDBRANCH  25   4
ENDBRANCH  16  17
ENDBRANCH   9   6
BRANCH  10   1
ATOM      1  O   UNL     1      -2.745 -11.209  17.047  0.00  0.00    -0.390 OA
ATOM     32  H   UNL     1      -2.342 -12.086  17.161  0.00  0.00    +0.210 HD
ENDBRANCH  10   1
TORSDOF 6
ENDMDL
MODEL 4
REMARK VINA RESULT:      -5.8     28.353     31.736
REMARK  Name = 26742270
REMARK  7 active torsions:
REMARK  status: ('A' for Active; 'I' for Inactive)
REMARK    1  A    between atoms: O_1  and  C_10
REMARK    2  A    between atoms: O_4  and  C_25
REMARK    3  A    between atoms: O_4  and  C_30
REMARK    4  A    between atoms: N_6  and  C_9
REMARK    5  A    between atoms: N_7  and  C_18
REMARK    6  A    between atoms: C_16  and  C_17
REMARK    7  A    between atoms: C_26  and  C_29
REMARK                            x       y       z     vdW  Elec       q    Type
REMARK                         _______ _______ _______ _____ _____    ______ ____
ROOT
ATOM      2  O   UNL     1      -7.642 -12.227  20.284  0.00  0.00    -0.252 OA
ATOM      5  N   UNL     1      -6.933 -12.422  18.092  0.00  0.00    -0.284 N 
ATOM      7  N   UNL     1      -9.161 -11.802  18.577  0.00  0.00    -0.269 N 
ATOM      9  C   UNL     1      -6.851 -10.868  16.112  0.00  0.00    +0.119 C 
ATOM     10  C   UNL     1      -5.699 -10.088  16.773  0.00  0.00    +0.136 C 
ATOM     11  C   UNL     1      -4.471 -10.918  17.162  0.00  0.00    +0.035 C 
ATOM     12  C   UNL     1      -7.109 -12.284  16.640  0.00  0.00    +0.134 C 
ATOM     13  C   UNL     1      -4.617 -11.617  18.515  0.00  0.00    +0.022 C 
ATOM     14  C   UNL     1      -5.582 -12.796  18.515  0.00  0.00    +0.109 C 
ATOM     15  C   UNL     1      -7.908 -12.153  19.081  0.00  0.00    +0.307 C 
ATOM     33  H   UNL     1      -9.277 -11.745  17.572  0.00  0.00    +0.156 HD
ENDROOT
BRANCH   7  18
ATOM     18  C   UNL     1     -10.333 -11.478  19.306  0.00  0.00    +0.036 A 
ATOM     21  C   UNL     1     -11.017 -12.471  20.007  0.00  0.00    +0.042 A 
ATOM     22  C   UNL     1     -10.803 -10.164  19.322  0.00  0.00    +0.023 A 
ATOM     26  C   UNL     1     -12.170 -12.152  20.724  0.00  0.00    +0.054 A 
ATOM     27  C   UNL     1     -11.956  -9.845  20.040  0.00  0.00    +0.003 A 
ATOM     28  C   UNL     1     -12.639 -10.839  20.740  0.00  0.00    +0.019 A 
BRANCH  26  29
ATOM      8  N   UNL     1     -13.438 -13.996  22.026  0.00  0.00    -0.191 NA
ATOM     29  C   UNL     1     -12.870 -13.170  21.442  0.00  0.00    +0.099 C 
ENDBRANCH  26  29
ENDBRANCH   7  18
BRANCH   9   6
ATOM      3  O   UNL     1      -8.233  -9.662  13.905  0.00  0.00    -0.270 OA
ATOM      6  N   UNL     1      -8.059 -10.069  16.180  0.00  0.00    -0.305 N 
ATOM     16  C   UNL     1      -8.650  -9.530  15.052  0.00  0.00    +0.244 C 
ATOM     31  H   UNL     1      -8.527 -10.011  17.080  0.00  0.00    +0.149 HD
BRANCH  16  17
ATOM     17  C   UNL     1      -9.869  -8.714  15.293  0.00  0.00    +0.037 A 
ATOM     19  C   UNL     1      -9.943  -7.885  16.412  0.00  0.00    +0.016 A 
ATOM     20  C   UNL     1     -10.939  -8.779  14.400  0.00  0.00    +0.016 A 
ATOM     23  C   UNL     1     -11.087  -7.120  16.638  0.00  0.00    +0.046 A 
ATOM     24  C   UNL     1     -12.083  -8.013  14.626  0.00  0.00    +0.046 A 
ATOM     25  C   UNL     1     -12.156  -7.184  15.746  0.00  0.00    +0.120 A 
BRANCH  25   4
ATOM      4  O   UNL     1     -13.273  -6.437  15.967  0.00  0.00    -0.495 OA
ATOM     30  C   UNL     1     -14.297  -6.490  14.975  0.00  0.00    +0.277 C 
ENDBRANCH  25   4
ENDBRANCH  16  17
ENDBRANCH   9   6
BRANCH  10   1
ATOM      1  O   UNL     1      -5.254  -9.092  15.842  0.00  0.00    -0.390 OA
ATOM     32  H   UNL     1      -5.775  -8.287  16.000  0.00  0.00    +0.210 HD
ENDBRANCH  10   1
TORSDOF 6
ENDMDL
MODEL 5
REMARK VINA RESULT:      -5.8     36.911     40.126
REMARK  Name = 26742270
REMARK  7 active torsions:
REMARK  status: ('A' for Active; 'I' for Inactive)
REMARK    1  A    between atoms: O_1  and  C_10
REMARK    2  A    between atoms: O_4  and  C_25
REMARK    3  A    between atoms: O_4  and  C_30
REMARK    4  A    between atoms: N_6  and  C_9
REMARK    5  A    between atoms: N_7  and  C_18
REMARK    6  A    between atoms: C_16  and  C_17
REMARK    7  A    between atoms: C_26  and  C_29
REMARK                            x       y       z     vdW  Elec       q    Type
REMARK                         _______ _______ _______ _____ _____    ______ ____
ROOT
ATOM      2  O   UNL     1     -17.431   7.685  28.729  0.00  0.00    -0.252 OA
ATOM      5  N   UNL     1     -17.151   7.467  31.014  0.00  0.00    -0.284 N 
ATOM      7  N   UNL     1     -17.543   5.563  29.670  0.00  0.00    -0.269 N 
ATOM      9  C   UNL     1     -15.557   6.192  32.488  0.00  0.00    +0.119 C 
ATOM     10  C   UNL     1     -14.424   7.160  32.099  0.00  0.00    +0.136 C 
ATOM     11  C   UNL     1     -14.700   8.645  32.353  0.00  0.00    +0.035 C 
ATOM     12  C   UNL     1     -16.989   6.683  32.245  0.00  0.00    +0.134 C 
ATOM     13  C   UNL     1     -15.498   9.314  31.231  0.00  0.00    +0.022 C 
ATOM     14  C   UNL     1     -16.966   8.911  31.173  0.00  0.00    +0.109 C 
ATOM     15  C   UNL     1     -17.383   6.948  29.718  0.00  0.00    +0.307 C 
ATOM     33  H   UNL     1     -17.463   5.039  30.533  0.00  0.00    +0.156 HD
ENDROOT
BRANCH   7  18
ATOM     18  C   UNL     1     -17.786   4.754  28.531  0.00  0.00    +0.036 A 
ATOM     21  C   UNL     1     -16.816   4.639  27.536  0.00  0.00    +0.042 A 
ATOM     22  C   UNL     1     -18.997   4.071  28.407  0.00  0.00    +0.023 A 
ATOM     26  C   UNL     1     -17.055   3.843  26.416  0.00  0.00    +0.054 A 
ATOM     27  C   UNL     1     -19.236   3.274  27.287  0.00  0.00    +0.003 A 
ATOM     28  C   UNL     1     -18.266   3.161  26.292  0.00  0.00    +0.019 A 
BRANCH  26  29
ATOM      8  N   UNL     1     -15.253   3.630  24.569  0.00  0.00    -0.191 NA
ATOM     29  C   UNL     1     -16.061   3.725  25.396  0.00  0.00    +0.099 C 
ENDBRANCH  26  29
ENDBRANCH   7  18
BRANCH   9   6
ATOM      3  O   UNL     1     -16.126   3.591  33.558  0.00  0.00    -0.270 OA
ATOM      6  N   UNL     1     -15.335   4.919  31.831  0.00  0.00    -0.305 N 
ATOM     16  C   UNL     1     -15.644   3.715  32.435  0.00  0.00    +0.244 C 
ATOM     31  H   UNL     1     -15.046   4.943  30.858  0.00  0.00    +0.149 HD
BRANCH  16  17
ATOM     17  C   UNL     1     -15.332   2.498  31.640  0.00  0.00    +0.037 A 
ATOM     19  C   UNL     1     -15.449   2.524  30.251  0.00  0.00    +0.016 A 
ATOM     20  C   UNL     1     -14.923   1.331  32.284  0.00  0.00    +0.016 A 
ATOM     23  C   UNL     1     -15.157   1.382  29.505  0.00  0.00    +0.046 A 
ATOM     24  C   UNL     1     -14.630   0.189  31.538  0.00  0.00    +0.046 A 
ATOM     25  C   UNL     1     -14.747   0.215  30.148  0.00  0.00    +0.120 A 
BRANCH  25   4
ATOM      4  O   UNL     1     -14.462  -0.899  29.420  0.00  0.00    -0.495 OA
ATOM     30  C   UNL     1     -13.086  -1.243  29.270  0.00  0.00    +0.277 C 
ENDBRANCH  25   4
ENDBRANCH  16  17
ENDBRANCH   9   6
BRANCH  10   1
ATOM      1  O   UNL     1     -13.266   6.811  32.869  0.00  0.00    -0.390 OA
ATOM     32  H   UNL     1     -13.036   7.577  33.420  0.00  0.00    +0.210 HD
ENDBRANCH  10   1
TORSDOF 6
ENDMDL
MODEL 6
REMARK VINA RESULT:      -5.8     31.105     33.442
REMARK  Name = 26742270
REMARK  7 active torsions:
REMARK  status: ('A' for Active; 'I' for Inactive)
REMARK    1  A    between atoms: O_1  and  C_10
REMARK    2  A    between atoms: O_4  and  C_25
REMARK    3  A    between atoms: O_4  and  C_30
REMARK    4  A    between atoms: N_6  and  C_9
REMARK    5  A    between atoms: N_7  and  C_18
REMARK    6  A    between atoms: C_16  and  C_17
REMARK    7  A    between atoms: C_26  and  C_29
REMARK                            x       y       z     vdW  Elec       q    Type
REMARK                         _______ _______ _______ _____ _____    ______ ____
ROOT
ATOM      2  O   UNL     1      11.954  -5.548  34.530  0.00  0.00    -0.252 OA
ATOM      5  N   UNL     1       9.731  -4.930  34.392  0.00  0.00    -0.284 N 
ATOM      7  N   UNL     1      10.723  -6.217  32.677  0.00  0.00    -0.269 N 
ATOM      9  C   UNL     1       7.555  -6.180  34.176  0.00  0.00    +0.119 C 
ATOM     10  C   UNL     1       7.685  -6.655  35.636  0.00  0.00    +0.136 C 
ATOM     11  C   UNL     1       7.846  -5.549  36.684  0.00  0.00    +0.035 C 
ATOM     12  C   UNL     1       8.397  -4.962  33.777  0.00  0.00    +0.134 C 
ATOM     13  C   UNL     1       9.290  -5.066  36.837  0.00  0.00    +0.022 C 
ATOM     14  C   UNL     1       9.801  -4.225  35.674  0.00  0.00    +0.109 C 
ATOM     15  C   UNL     1      10.893  -5.571  33.902  0.00  0.00    +0.307 C 
ATOM     33  H   UNL     1       9.805  -6.202  32.247  0.00  0.00    +0.156 HD
ENDROOT
BRANCH   7  18
ATOM     18  C   UNL     1      11.689  -6.942  31.933  0.00  0.00    +0.036 A 
ATOM     21  C   UNL     1      11.719  -8.334  32.000  0.00  0.00    +0.042 A 
ATOM     22  C   UNL     1      12.608  -6.261  31.135  0.00  0.00    +0.023 A 
ATOM     26  C   UNL     1      12.669  -9.048  31.268  0.00  0.00    +0.054 A 
ATOM     27  C   UNL     1      13.558  -6.975  30.403  0.00  0.00    +0.003 A 
ATOM     28  C   UNL     1      13.588  -8.367  30.470  0.00  0.00    +0.019 A 
BRANCH  26  29
ATOM      8  N   UNL     1      12.726 -11.634  31.392  0.00  0.00    -0.191 NA
ATOM     29  C   UNL     1      12.700 -10.475  31.336  0.00  0.00    +0.099 C 
ENDBRANCH  26  29
ENDBRANCH   7  18
BRANCH   9   6
ATOM      3  O   UNL     1       5.609  -7.900  32.956  0.00  0.00    -0.270 OA
ATOM      6  N   UNL     1       7.822  -7.297  33.292  0.00  0.00    -0.305 N 
ATOM     16  C   UNL     1       6.808  -8.068  32.754  0.00  0.00    +0.244 C 
ATOM     31  H   UNL     1       8.781  -7.429  32.987  0.00  0.00    +0.149 HD
BRANCH  16  17
ATOM     17  C   UNL     1       7.248  -9.193  31.888  0.00  0.00    +0.037 A 
ATOM     19  C   UNL     1       8.321  -9.994  32.277  0.00  0.00    +0.016 A 
ATOM     20  C   UNL     1       6.587  -9.447  30.686  0.00  0.00    +0.016 A 
ATOM     23  C   UNL     1       8.734 -11.050  31.463  0.00  0.00    +0.046 A 
ATOM     24  C   UNL     1       7.000 -10.503  29.873  0.00  0.00    +0.046 A 
ATOM     25  C   UNL     1       8.073 -11.304  30.262  0.00  0.00    +0.120 A 
BRANCH  25   4
ATOM      4  O   UNL     1       8.477 -12.334  29.468  0.00  0.00    -0.495 OA
ATOM     30  C   UNL     1       8.269 -12.192  28.064  0.00  0.00    +0.277 C 
ENDBRANCH  25   4
ENDBRANCH  16  17
ENDBRANCH   9   6
BRANCH  10   1
ATOM      1  O   UNL     1       6.491  -7.377  35.968  0.00  0.00    -0.390 OA
ATOM     32  H   UNL     1       5.732  -6.813  35.743  0.00  0.00    +0.210 HD
ENDBRANCH  10   1
TORSDOF 6
ENDMDL
MODEL 7
REMARK VINA RESULT:      -5.7     27.325     30.422
REMARK  Name = 26742270
REMARK  7 active torsions:
REMARK  status: ('A' for Active; 'I' for Inactive)
REMARK    1  A    between atoms: O_1  and  C_10
REMARK    2  A    between atoms: O_4  and  C_25
REMARK    3  A    between atoms: O_4  and  C_30
REMARK    4  A    between atoms: N_6  and  C_9
REMARK    5  A    between atoms: N_7  and  C_18
REMARK    6  A    between atoms: C_16  and  C_17
REMARK    7  A    between atoms: C_26  and  C_29
REMARK                            x       y       z     vdW  Elec       q    Type
REMARK                         _______ _______ _______ _____ _____    ______ ____
ROOT
ATOM      2  O   UNL     1     -10.762  10.227  19.175  0.00  0.00    -0.252 OA
ATOM      5  N   UNL     1     -10.430   9.929  16.906  0.00  0.00    -0.284 N 
ATOM      7  N   UNL     1     -11.676   8.353  18.151  0.00  0.00    -0.269 N 
ATOM      9  C   UNL     1     -11.950   9.670  14.914  0.00  0.00    +0.119 C 
ATOM     10  C   UNL     1     -12.325  11.161  15.009  0.00  0.00    +0.136 C 
ATOM     11  C   UNL     1     -11.154  12.147  14.971  0.00  0.00    +0.035 C 
ATOM     12  C   UNL     1     -10.660   9.244  15.628  0.00  0.00    +0.134 C 
ATOM     13  C   UNL     1     -10.489  12.350  16.334  0.00  0.00    +0.022 C 
ATOM     14  C   UNL     1      -9.655  11.167  16.812  0.00  0.00    +0.109 C 
ATOM     15  C   UNL     1     -10.949   9.543  18.165  0.00  0.00    +0.307 C 
ATOM     33  H   UNL     1     -11.797   7.873  17.266  0.00  0.00    +0.156 HD
ENDROOT
BRANCH   7  18
ATOM     18  C   UNL     1     -12.315   7.709  19.241  0.00  0.00    +0.036 A 
ATOM     21  C   UNL     1     -13.696   7.817  19.403  0.00  0.00    +0.042 A 
ATOM     22  C   UNL     1     -11.562   6.968  20.152  0.00  0.00    +0.023 A 
ATOM     26  C   UNL     1     -14.325   7.183  20.475  0.00  0.00    +0.054 A 
ATOM     27  C   UNL     1     -12.190   6.334  21.224  0.00  0.00    +0.003 A 
ATOM     28  C   UNL     1     -13.571   6.442  21.385  0.00  0.00    +0.019 A 
BRANCH  26  29
ATOM      8  N   UNL     1     -16.889   7.383  20.774  0.00  0.00    -0.191 NA
ATOM     29  C   UNL     1     -15.740   7.293  20.641  0.00  0.00    +0.099 C 
ENDBRANCH  26  29
ENDBRANCH   7  18
BRANCH   9   6
ATOM      3  O   UNL     1     -14.013   8.532  13.277  0.00  0.00    -0.270 OA
ATOM      6  N   UNL     1     -13.071   8.872  15.368  0.00  0.00    -0.305 N 
ATOM     16  C   UNL     1     -14.016   8.368  14.494  0.00  0.00    +0.244 C 
ATOM     31  H   UNL     1     -13.081   8.597  16.345  0.00  0.00    +0.149 HD
BRANCH  16  17
ATOM     17  C   UNL     1     -15.119   7.591  15.119  0.00  0.00    +0.037 A 
ATOM     19  C   UNL     1     -15.548   7.903  16.409  0.00  0.00    +0.016 A 
ATOM     20  C   UNL     1     -15.725   6.550  14.415  0.00  0.00    +0.016 A 
ATOM     23  C   UNL     1     -16.582   7.174  16.996  0.00  0.00    +0.046 A 
ATOM     24  C   UNL     1     -16.760   5.821  15.001  0.00  0.00    +0.046 A 
ATOM     25  C   UNL     1     -17.188   6.134  16.292  0.00  0.00    +0.120 A 
BRANCH  25   4
ATOM      4  O   UNL     1     -18.198   5.422  16.865  0.00  0.00    -0.495 OA
ATOM     30  C   UNL     1     -18.008   4.995  18.212  0.00  0.00    +0.277 C 
ENDBRANCH  25   4
ENDBRANCH  16  17
ENDBRANCH   9   6
BRANCH  10   1
ATOM      1  O   UNL     1     -13.171  11.470  13.892  0.00  0.00    -0.390 OA
ATOM     32  H   UNL     1     -13.462  12.392  13.989  0.00  0.00    +0.210 HD
ENDBRANCH  10   1
TORSDOF 6
ENDMDL
MODEL 8
REMARK VINA RESULT:      -5.7     25.951     28.929
REMARK  Name = 26742270
REMARK  7 active torsions:
REMARK  status: ('A' for Active; 'I' for Inactive)
REMARK    1  A    between atoms: O_1  and  C_10
REMARK    2  A    between atoms: O_4  and  C_25
REMARK    3  A    between atoms: O_4  and  C_30
REMARK    4  A    between atoms: N_6  and  C_9
REMARK    5  A    between atoms: N_7  and  C_18
REMARK    6  A    between atoms: C_16  and  C_17
REMARK    7  A    between atoms: C_26  and  C_29
REMARK                            x       y       z     vdW  Elec       q    Type
REMARK                         _______ _______ _______ _____ _____    ______ ____
ROOT
ATOM      2  O   UNL     1      -5.318 -11.518  13.405  0.00  0.00    -0.252 OA
ATOM      5  N   UNL     1      -5.355 -10.445  15.453  0.00  0.00    -0.284 N 
ATOM      7  N   UNL     1      -6.384  -9.459  13.567  0.00  0.00    -0.269 N 
ATOM      9  C   UNL     1      -7.174  -9.604  16.979  0.00  0.00    +0.119 C 
ATOM     10  C   UNL     1      -7.531 -11.055  17.351  0.00  0.00    +0.136 C 
ATOM     11  C   UNL     1      -6.381 -11.903  17.904  0.00  0.00    +0.035 C 
ATOM     12  C   UNL     1      -5.786  -9.378  16.365  0.00  0.00    +0.134 C 
ATOM     13  C   UNL     1      -5.506 -12.523  16.813  0.00  0.00    +0.022 C 
ATOM     14  C   UNL     1      -4.605 -11.531  16.086  0.00  0.00    +0.109 C 
ATOM     15  C   UNL     1      -5.665 -10.542  14.076  0.00  0.00    +0.307 C 
ATOM     33  H   UNL     1      -6.645  -8.714  14.202  0.00  0.00    +0.156 HD
ENDROOT
BRANCH   7  18
ATOM     18  C   UNL     1      -6.839  -9.263  12.239  0.00  0.00    +0.036 A 
ATOM     21  C   UNL     1      -8.165  -9.542  11.907  0.00  0.00    +0.042 A 
ATOM     22  C   UNL     1      -5.961  -8.791  11.263  0.00  0.00    +0.023 A 
ATOM     26  C   UNL     1      -8.613  -9.349  10.601  0.00  0.00    +0.054 A 
ATOM     27  C   UNL     1      -6.409  -8.598   9.956  0.00  0.00    +0.003 A 
ATOM     28  C   UNL     1      -7.735  -8.877   9.625  0.00  0.00    +0.019 A 
BRANCH  26  29
ATOM      8  N   UNL     1     -11.075  -9.865   9.984  0.00  0.00    -0.191 NA
ATOM     29  C   UNL     1      -9.972  -9.634  10.261  0.00  0.00    +0.099 C 
ENDBRANCH  26  29
ENDBRANCH   7  18
BRANCH   9   6
ATOM      3  O   UNL     1      -9.463  -8.076  17.788  0.00  0.00    -0.270 OA
ATOM      6  N   UNL     1      -8.208  -9.072  16.114  0.00  0.00    -0.305 N 
ATOM     16  C   UNL     1      -9.276  -8.344  16.605  0.00  0.00    +0.244 C 
ATOM     31  H   UNL     1      -8.063  -9.155  15.113  0.00  0.00    +0.149 HD
BRANCH  16  17
ATOM     17  C   UNL     1     -10.264  -7.891  15.592  0.00  0.00    +0.037 A 
ATOM     19  C   UNL     1     -10.657  -8.752  14.567  0.00  0.00    +0.016 A 
ATOM     20  C   UNL     1     -10.799  -6.605  15.666  0.00  0.00    +0.016 A 
ATOM     23  C   UNL     1     -11.584  -8.326  13.616  0.00  0.00    +0.046 A 
ATOM     24  C   UNL     1     -11.726  -6.179  14.715  0.00  0.00    +0.046 A 
ATOM     25  C   UNL     1     -12.119  -7.040  13.690  0.00  0.00    +0.120 A 
BRANCH  25   4
ATOM      4  O   UNL     1     -13.024  -6.625  12.761  0.00  0.00    -0.495 OA
ATOM     30  C   UNL     1     -12.653  -6.752  11.390  0.00  0.00    +0.277 C 
ENDBRANCH  25   4
ENDBRANCH  16  17
ENDBRANCH   9   6
BRANCH  10   1
ATOM      1  O   UNL     1      -8.544 -11.010  18.365  0.00  0.00    -0.390 OA
ATOM     32  H   UNL     1      -8.319 -11.675  19.037  0.00  0.00    +0.210 HD
ENDBRANCH  10   1
TORSDOF 6
ENDMDL
MODEL 9
REMARK VINA RESULT:      -5.7     28.123     31.280
REMARK  Name = 26742270
REMARK  7 active torsions:
REMARK  status: ('A' for Active; 'I' for Inactive)
REMARK    1  A    between atoms: O_1  and  C_10
REMARK    2  A    between atoms: O_4  and  C_25
REMARK    3  A    between atoms: O_4  and  C_30
REMARK    4  A    between atoms: N_6  and  C_9
REMARK    5  A    between atoms: N_7  and  C_18
REMARK    6  A    between atoms: C_16  and  C_17
REMARK    7  A    between atoms: C_26  and  C_29
REMARK                            x       y       z     vdW  Elec       q    Type
REMARK                         _______ _______ _______ _____ _____    ______ ____
ROOT
ATOM      2  O   UNL     1     -12.723  12.507  19.712  0.00  0.00    -0.252 OA
ATOM      5  N   UNL     1     -11.021  11.375  18.631  0.00  0.00    -0.284 N 
ATOM      7  N   UNL     1     -11.806  10.632  20.733  0.00  0.00    -0.269 N 
ATOM      9  C   UNL     1     -10.698   9.009  17.831  0.00  0.00    +0.119 C 
ATOM     10  C   UNL     1     -11.713   9.254  16.699  0.00  0.00    +0.136 C 
ATOM     11  C   UNL     1     -11.407  10.437  15.775  0.00  0.00    +0.035 C 
ATOM     12  C   UNL     1     -10.082  10.255  18.479  0.00  0.00    +0.134 C 
ATOM     13  C   UNL     1     -11.882  11.780  16.332  0.00  0.00    +0.022 C 
ATOM     14  C   UNL     1     -11.058  12.306  17.502  0.00  0.00    +0.109 C 
ATOM     15  C   UNL     1     -11.917  11.572  19.708  0.00  0.00    +0.307 C 
ATOM     33  H   UNL     1     -11.130   9.885  20.629  0.00  0.00    +0.156 HD
ENDROOT
BRANCH   7  18
ATOM     18  C   UNL     1     -12.556  10.560  21.934  0.00  0.00    +0.036 A 
ATOM     21  C   UNL     1     -11.957  10.885  23.151  0.00  0.00    +0.042 A 
ATOM     22  C   UNL     1     -13.893  10.164  21.899  0.00  0.00    +0.023 A 
ATOM     26  C   UNL     1     -12.695  10.815  24.333  0.00  0.00    +0.054 A 
ATOM     27  C   UNL     1     -14.631  10.094  23.081  0.00  0.00    +0.003 A 
ATOM     28  C   UNL     1     -14.032  10.419  24.297  0.00  0.00    +0.019 A 
BRANCH  26  29
ATOM      8  N   UNL     1     -11.583  11.419  26.592  0.00  0.00    -0.191 NA
ATOM     29  C   UNL     1     -12.081  11.149  25.580  0.00  0.00    +0.099 C 
ENDBRANCH  26  29
ENDBRANCH   7  18
BRANCH   9   6
ATOM      3  O   UNL     1     -13.498   8.796  18.420  0.00  0.00    -0.270 OA
ATOM      6  N   UNL     1     -11.308   8.160  18.835  0.00  0.00    -0.305 N 
ATOM     16  C   UNL     1     -12.674   8.130  19.042  0.00  0.00    +0.244 C 
ATOM     31  H   UNL     1     -10.704   7.496  19.311  0.00  0.00    +0.149 HD
BRANCH  16  17
ATOM     17  C   UNL     1     -13.140   7.227  20.126  0.00  0.00    +0.037 A 
ATOM     19  C   UNL     1     -12.212   6.585  20.946  0.00  0.00    +0.016 A 
ATOM     20  C   UNL     1     -14.506   7.020  20.323  0.00  0.00    +0.016 A 
ATOM     23  C   UNL     1     -12.650   5.737  21.964  0.00  0.00    +0.046 A 
ATOM     24  C   UNL     1     -14.943   6.172  21.341  0.00  0.00    +0.046 A 
ATOM     25  C   UNL     1     -14.014   5.531  22.161  0.00  0.00    +0.120 A 
BRANCH  25   4
ATOM      4  O   UNL     1     -14.441   4.702  23.154  0.00  0.00    -0.495 OA
ATOM     30  C   UNL     1     -15.818   4.331  23.143  0.00  0.00    +0.277 C 
ENDBRANCH  25   4
ENDBRANCH  16  17
ENDBRANCH   9   6
BRANCH  10   1
ATOM      1  O   UNL     1     -11.746   8.078  15.879  0.00  0.00    -0.390 OA
ATOM     32  H   UNL     1     -12.088   8.337  15.007  0.00  0.00    +0.210 HD
ENDBRANCH  10   1
TORSDOF 6
ENDMDL
MODEL 10
REMARK VINA RESULT:      -5.7     38.448     40.510
REMARK  Name = 26742270
REMARK  7 active torsions:
REMARK  status: ('A' for Active; 'I' for Inactive)
REMARK    1  A    between atoms: O_1  and  C_10
REMARK    2  A    between atoms: O_4  and  C_25
REMARK    3  A    between atoms: O_4  and  C_30
REMARK    4  A    between atoms: N_6  and  C_9
REMARK    5  A    between atoms: N_7  and  C_18
REMARK    6  A    between atoms: C_16  and  C_17
REMARK    7  A    between atoms: C_26  and  C_29
REMARK                            x       y       z     vdW  Elec       q    Type
REMARK                         _______ _______ _______ _____ _____    ______ ____
ROOT
ATOM      2  O   UNL     1     -17.017   8.350  30.046  0.00  0.00    -0.252 OA
ATOM      5  N   UNL     1     -15.840   8.458  32.033  0.00  0.00    -0.284 N 
ATOM      7  N   UNL     1     -16.776   6.413  31.307  0.00  0.00    -0.269 N 
ATOM      9  C   UNL     1     -13.808   7.289  32.952  0.00  0.00    +0.119 C 
ATOM     10  C   UNL     1     -12.913   8.086  31.984  0.00  0.00    +0.136 C 
ATOM     11  C   UNL     1     -13.037   9.610  32.065  0.00  0.00    +0.035 C 
ATOM     12  C   UNL     1     -15.207   7.859  33.215  0.00  0.00    +0.134 C 
ATOM     13  C   UNL     1     -14.208  10.167  31.253  0.00  0.00    +0.022 C 
ATOM     14  C   UNL     1     -15.581   9.888  31.853  0.00  0.00    +0.109 C 
ATOM     15  C   UNL     1     -16.586   7.771  31.046  0.00  0.00    +0.307 C 
ATOM     33  H   UNL     1     -16.362   6.021  32.144  0.00  0.00    +0.156 HD
ENDROOT
BRANCH   7  18
ATOM     18  C   UNL     1     -17.473   5.464  30.517  0.00  0.00    +0.036 A 
ATOM     21  C   UNL     1     -16.863   4.258  30.175  0.00  0.00    +0.042 A 
ATOM     22  C   UNL     1     -18.771   5.737  30.083  0.00  0.00    +0.023 A 
ATOM     26  C   UNL     1     -17.549   3.324  29.398  0.00  0.00    +0.054 A 
ATOM     27  C   UNL     1     -19.457   4.803  29.307  0.00  0.00    +0.003 A 
ATOM     28  C   UNL     1     -18.846   3.597  28.964  0.00  0.00    +0.019 A 
BRANCH  26  29
ATOM      8  N   UNL     1     -16.415   1.085  28.762  0.00  0.00    -0.191 NA
ATOM     29  C   UNL     1     -16.923   2.088  29.047  0.00  0.00    +0.099 C 
ENDBRANCH  26  29
ENDBRANCH   7  18
BRANCH   9   6
ATOM      3  O   UNL     1     -14.202   4.960  34.581  0.00  0.00    -0.270 OA
ATOM      6  N   UNL     1     -13.893   5.917  32.493  0.00  0.00    -0.305 N 
ATOM     16  C   UNL     1     -14.085   4.860  33.363  0.00  0.00    +0.244 C 
ATOM     31  H   UNL     1     -13.920   5.764  31.489  0.00  0.00    +0.149 HD
BRANCH  16  17
ATOM     17  C   UNL     1     -14.124   3.512  32.737  0.00  0.00    +0.037 A 
ATOM     19  C   UNL     1     -13.576   3.315  31.471  0.00  0.00    +0.016 A 
ATOM     20  C   UNL     1     -14.710   2.444  33.418  0.00  0.00    +0.016 A 
ATOM     23  C   UNL     1     -13.613   2.050  30.883  0.00  0.00    +0.046 A 
ATOM     24  C   UNL     1     -14.747   1.179  32.831  0.00  0.00    +0.046 A 
ATOM     25  C   UNL     1     -14.198   0.983  31.564  0.00  0.00    +0.120 A 
BRANCH  25   4
ATOM      4  O   UNL     1     -14.234  -0.252  30.990  0.00  0.00    -0.495 OA
ATOM     30  C   UNL     1     -13.419  -0.457  29.839  0.00  0.00    +0.277 C 
ENDBRANCH  25   4
ENDBRANCH  16  17
ENDBRANCH   9   6
BRANCH  10   1
ATOM      1  O   UNL     1     -11.548   7.759  32.281  0.00  0.00    -0.390 OA
ATOM     32  H   UNL     1     -11.018   8.564  32.155  0.00  0.00    +0.210 HD
ENDBRANCH  10   1
TORSDOF 6
ENDMDL
