REMARK  Name = 7165018
REMARK  7 active torsions:
REMARK  status: ('A' for Active; 'I' for Inactive)
REMARK    1  A    between atoms: N_9  and  C_17
REMARK    2  A    between atoms: C_12  and  C_16
REMARK    3  A    between atoms: C_17  and  C_20
REMARK    4  A    between atoms: C_17  and  C_25
REMARK    5  A    between atoms: C_18  and  C_22
REMARK    6  A    between atoms: C_19  and  C_23
REMARK    7  A    between atoms: C_20  and  C_21
REMARK                            x       y       z     vdW  Elec       q    Type
REMARK                         _______ _______ _______ _____ _____    ______ ____
ROOT
ATOM      4  O   UNL     1      -2.961  -1.004  -0.636  0.00  0.00    -0.269 OA
ATOM      5  O   UNL     1       3.827  -2.635   1.558  0.00  0.00    -0.270 OA
ATOM      7  N   UNL     1      -0.970  -2.035  -0.048  0.00  0.00    -0.283 N 
ATOM      8  N   UNL     1       1.919  -1.970   0.386  0.00  0.00    -0.294 N 
ATOM     12  C   UNL     1      -0.195  -0.820  -0.313  0.00  0.00    +0.179 C 
ATOM     13  C   UNL     1       1.277  -1.099  -0.611  0.00  0.00    +0.140 C 
ATOM     14  C   UNL     1      -0.218  -3.227   0.374  0.00  0.00    +0.128 C 
ATOM     15  C   UNL     1       1.051  -2.875   1.136  0.00  0.00    +0.127 C 
ATOM     18  C   UNL     1      -2.363  -2.022  -0.283  0.00  0.00    +0.254 C 
ATOM     19  C   UNL     1       3.284  -1.947   0.694  0.00  0.00    +0.247 C 
ENDROOT
BRANCH  19  23
ATOM      2  F   UNL     1       5.193  -0.441  -3.504  0.00  0.00    -0.205 F 
ATOM     23  C   UNL     1       4.155  -1.038  -0.068  0.00  0.00    +0.040 A 
ATOM     29  C   UNL     1       4.264  -1.173  -1.452  0.00  0.00    +0.051 A 
ATOM     30  C   UNL     1       4.873  -0.041   0.594  0.00  0.00    +0.013 A 
ATOM     37  C   UNL     1       5.089  -0.311  -2.175  0.00  0.00    +0.124 A 
ATOM     38  C   UNL     1       5.698   0.820  -0.129  0.00  0.00    +0.004 A 
ATOM     39  C   UNL     1       5.806   0.685  -1.513  0.00  0.00    +0.038 A 
ENDBRANCH  19  23
BRANCH  18  22
ATOM      1  S   UNL     1      -4.350  -3.323   1.078  0.00  0.00    -0.092 S 
ATOM     22  C   UNL     1      -3.091  -3.271  -0.081  0.00  0.00    +0.074 A 
ATOM     28  C   UNL     1      -2.917  -4.485  -0.710  0.00  0.00    +0.021 A 
ATOM     33  C   UNL     1      -3.829  -5.470  -0.234  0.00  0.00    +0.008 A 
ATOM     36  C   UNL     1      -4.666  -4.972   0.741  0.00  0.00    +0.046 A 
ENDBRANCH  18  22
BRANCH  12  16
ATOM      3  O   UNL     1      -0.993  -0.269   1.872  0.00  0.00    -0.274 OA
ATOM      9  N   UNL     1       0.279   1.297   0.709  0.00  0.00    -0.302 N 
ATOM     16  C   UNL     1      -0.352   0.077   0.883  0.00  0.00    +0.236 C 
ATOM     40  H   UNL     1       0.770   1.491  -0.158  0.00  0.00    +0.150 HD
BRANCH   9  17
ATOM     17  C   UNL     1       0.259   2.345   1.703  0.00  0.00    +0.163 C 
BRANCH  17  25
ATOM      6  O   UNL     1       2.668   2.464   1.406  0.00  0.00    -0.274 OA
ATOM     11  N   UNL     1       1.791   2.938   3.476  0.00  0.00    -0.328 N 
ATOM     25  C   UNL     1       1.696   2.564   2.152  0.00  0.00    +0.231 C 
ATOM     42  H   UNL     1       2.693   3.129   3.899  0.00  0.00    +0.145 HD
ATOM     43  H   UNL     1       0.978   3.040   4.074  0.00  0.00    +0.145 HD
ENDBRANCH  17  25
BRANCH  17  20
ATOM     20  C   UNL     1      -0.338   3.650   1.159  0.00  0.00    +0.069 C 
BRANCH  20  21
ATOM     10  N   UNL     1      -3.968   3.431   0.625  0.00  0.00    -0.360 N 
ATOM     21  C   UNL     1      -1.750   3.494   0.671  0.00  0.00    -0.020 A 
ATOM     24  C   UNL     1      -2.158   3.148  -0.647  0.00  0.00    +0.003 A 
ATOM     26  C   UNL     1      -2.885   3.661   1.430  0.00  0.00    +0.087 A 
ATOM     27  C   UNL     1      -3.554   3.116  -0.649  0.00  0.00    +0.047 A 
ATOM     31  C   UNL     1      -1.471   2.858  -1.843  0.00  0.00    +0.010 A 
ATOM     32  C   UNL     1      -4.300   2.807  -1.792  0.00  0.00    +0.026 A 
ATOM     34  C   UNL     1      -2.204   2.548  -2.994  0.00  0.00    +0.001 A 
ATOM     35  C   UNL     1      -3.597   2.523  -2.966  0.00  0.00    +0.002 A 
ATOM     41  H   UNL     1      -4.933   3.485   0.922  0.00  0.00    +0.165 HD
ENDBRANCH  20  21
ENDBRANCH  17  20
ENDBRANCH   9  17
ENDBRANCH  12  16
TORSDOF 7
