MODEL 1
REMARK VINA RESULT:      -7.1      0.000      0.000
REMARK  Name = 45783365
REMARK  9 active torsions:
REMARK  status: ('A' for Active; 'I' for Inactive)
REMARK    1  A    between atoms: O_2  and  C_23
REMARK    2  A    between atoms: O_2  and  C_25
REMARK    3  A    between atoms: O_3  and  C_26
REMARK    4  A    between atoms: O_3  and  C_27
REMARK    5  A    between atoms: N_4  and  C_14
REMARK    6  A    between atoms: C_10  and  C_15
REMARK    7  A    between atoms: C_14  and  C_16
REMARK    8  A    between atoms: C_17  and  C_19
REMARK    9  A    between atoms: C_25  and  C_26
REMARK                            x       y       z     vdW  Elec       q    Type
REMARK                         _______ _______ _______ _____ _____    ______ ____
ROOT
ATOM      1  O   UNL     1      16.300   5.883  18.449  0.00  0.00    -0.336 OA
ATOM      5  N   UNL     1      16.959   7.011  20.268  0.00  0.00    -0.190 NA
ATOM      8  N   UNL     1      17.610   5.463  18.715  0.00  0.00    -0.056 NA
ATOM     15  C   UNL     1      15.995   6.794  19.410  0.00  0.00    +0.245 A 
ATOM     17  C   UNL     1      17.929   6.173  19.802  0.00  0.00    +0.202 A 
ENDROOT
BRANCH  17  19
ATOM      9  N   UNL     1      21.699   5.864  21.694  0.00  0.00    -0.221 NA
ATOM     19  C   UNL     1      19.208   6.069  20.443  0.00  0.00    +0.029 A 
ATOM     21  C   UNL     1      19.925   4.879  20.381  0.00  0.00    +0.079 A 
ATOM     22  C   UNL     1      19.735   7.157  21.130  0.00  0.00    +0.031 A 
ATOM     23  C   UNL     1      21.154   4.828  21.017  0.00  0.00    +0.215 A 
ATOM     24  C   UNL     1      20.973   7.004  21.733  0.00  0.00    +0.115 A 
BRANCH  23   2
ATOM      2  O   UNL     1      21.879   3.667  20.970  0.00  0.00    -0.474 OA
BRANCH   2  25
ATOM     25  C   UNL     1      22.457   3.223  22.193  0.00  0.00    +0.258 C 
BRANCH  25  26
ATOM     26  C   UNL     1      23.882   2.777  21.933  0.00  0.00    +0.200 C 
BRANCH  26   3
ATOM      3  O   UNL     1      23.951   2.162  20.652  0.00  0.00    -0.380 OA
ATOM     27  C   UNL     1      24.930   2.781  19.830  0.00  0.00    +0.194 C 
ENDBRANCH  26   3
ENDBRANCH  25  26
ENDBRANCH   2  25
ENDBRANCH  23   2
ENDBRANCH  17  19
BRANCH  15  10
ATOM      4  N   UNL     1      14.461   8.567  20.243  0.00  0.00    -0.284 NA
ATOM     10  C   UNL     1      14.611   7.406  19.345  0.00  0.00    +0.146 C 
ATOM     11  C   UNL     1      14.267   7.947  17.945  0.00  0.00    +0.030 C 
ATOM     12  C   UNL     1      13.877   9.402  18.165  0.00  0.00    +0.017 C 
ATOM     13  C   UNL     1      13.467   9.444  19.623  0.00  0.00    +0.085 C 
BRANCH   4  14
ATOM     14  C   UNL     1      14.093   8.197  21.604  0.00  0.00    +0.159 C 
BRANCH  14  16
ATOM      6  N   UNL     1      12.558   6.231  21.370  0.00  0.00    -0.347 N 
ATOM      7  N   UNL     1      11.599   8.139  21.978  0.00  0.00    -0.239 NA
ATOM     16  C   UNL     1      12.733   7.555  21.662  0.00  0.00    +0.121 A 
ATOM     18  C   UNL     1      11.227   5.953  21.509  0.00  0.00    +0.104 A 
ATOM     20  C   UNL     1      10.656   7.145  21.885  0.00  0.00    +0.130 A 
ATOM     28  H   UNL     1      13.279   5.577  21.098  0.00  0.00    +0.167 HD
ENDBRANCH  14  16
ENDBRANCH   4  14
ENDBRANCH  15  10
TORSDOF 8
ENDMDL
MODEL 2
REMARK VINA RESULT:      -6.7      2.002      2.628
REMARK  Name = 45783365
REMARK  9 active torsions:
REMARK  status: ('A' for Active; 'I' for Inactive)
REMARK    1  A    between atoms: O_2  and  C_23
REMARK    2  A    between atoms: O_2  and  C_25
REMARK    3  A    between atoms: O_3  and  C_26
REMARK    4  A    between atoms: O_3  and  C_27
REMARK    5  A    between atoms: N_4  and  C_14
REMARK    6  A    between atoms: C_10  and  C_15
REMARK    7  A    between atoms: C_14  and  C_16
REMARK    8  A    between atoms: C_17  and  C_19
REMARK    9  A    between atoms: C_25  and  C_26
REMARK                            x       y       z     vdW  Elec       q    Type
REMARK                         _______ _______ _______ _____ _____    ______ ____
ROOT
ATOM      1  O   UNL     1      14.866   9.176  19.693  0.00  0.00    -0.336 OA
ATOM      5  N   UNL     1      15.807   7.183  19.294  0.00  0.00    -0.190 NA
ATOM      8  N   UNL     1      16.045   9.144  20.448  0.00  0.00    -0.056 NA
ATOM     15  C   UNL     1      14.801   7.984  19.044  0.00  0.00    +0.245 A 
ATOM     17  C   UNL     1      16.543   7.937  20.160  0.00  0.00    +0.202 A 
ENDROOT
BRANCH  17  19
ATOM      9  N   UNL     1      20.167   6.517  21.814  0.00  0.00    -0.221 NA
ATOM     19  C   UNL     1      17.772   7.456  20.721  0.00  0.00    +0.029 A 
ATOM     21  C   UNL     1      18.395   6.337  20.179  0.00  0.00    +0.079 A 
ATOM     22  C   UNL     1      18.345   8.106  21.808  0.00  0.00    +0.031 A 
ATOM     23  C   UNL     1      19.580   5.912  20.757  0.00  0.00    +0.215 A 
ATOM     24  C   UNL     1      19.532   7.602  22.313  0.00  0.00    +0.115 A 
BRANCH  23   2
ATOM      2  O   UNL     1      20.213   4.811  20.242  0.00  0.00    -0.474 OA
BRANCH   2  25
ATOM     25  C   UNL     1      21.579   4.631  20.601  0.00  0.00    +0.258 C 
BRANCH  25  26
ATOM     26  C   UNL     1      21.734   3.302  21.311  0.00  0.00    +0.200 C 
BRANCH  26   3
ATOM      3  O   UNL     1      21.793   3.529  22.714  0.00  0.00    -0.380 OA
ATOM     27  C   UNL     1      23.091   3.265  23.229  0.00  0.00    +0.194 C 
ENDBRANCH  26   3
ENDBRANCH  25  26
ENDBRANCH   2  25
ENDBRANCH  23   2
ENDBRANCH  17  19
BRANCH  15  10
ATOM      4  N   UNL     1      12.420   8.540  18.583  0.00  0.00    -0.284 NA
ATOM     10  C   UNL     1      13.601   7.768  18.147  0.00  0.00    +0.146 C 
ATOM     11  C   UNL     1      13.853   8.224  16.697  0.00  0.00    +0.030 C 
ATOM     12  C   UNL     1      12.730   9.204  16.388  0.00  0.00    +0.017 C 
ATOM     13  C   UNL     1      11.645   8.826  17.375  0.00  0.00    +0.085 C 
BRANCH   4  14
ATOM     14  C   UNL     1      11.627   7.853  19.594  0.00  0.00    +0.159 C 
BRANCH  14  16
ATOM      6  N   UNL     1      12.064   9.904  20.966  0.00  0.00    -0.347 N 
ATOM      7  N   UNL     1      10.674   8.421  21.860  0.00  0.00    -0.239 NA
ATOM     16  C   UNL     1      11.431   8.700  20.822  0.00  0.00    +0.121 A 
ATOM     18  C   UNL     1      11.688  10.424  22.172  0.00  0.00    +0.104 A 
ATOM     20  C   UNL     1      10.830   9.492  22.705  0.00  0.00    +0.130 A 
ATOM     28  H   UNL     1      12.697  10.330  20.303  0.00  0.00    +0.167 HD
ENDBRANCH  14  16
ENDBRANCH   4  14
ENDBRANCH  15  10
TORSDOF 8
ENDMDL
MODEL 3
REMARK VINA RESULT:      -6.7      5.656     11.174
REMARK  Name = 45783365
REMARK  9 active torsions:
REMARK  status: ('A' for Active; 'I' for Inactive)
REMARK    1  A    between atoms: O_2  and  C_23
REMARK    2  A    between atoms: O_2  and  C_25
REMARK    3  A    between atoms: O_3  and  C_26
REMARK    4  A    between atoms: O_3  and  C_27
REMARK    5  A    between atoms: N_4  and  C_14
REMARK    6  A    between atoms: C_10  and  C_15
REMARK    7  A    between atoms: C_14  and  C_16
REMARK    8  A    between atoms: C_17  and  C_19
REMARK    9  A    between atoms: C_25  and  C_26
REMARK                            x       y       z     vdW  Elec       q    Type
REMARK                         _______ _______ _______ _____ _____    ______ ____
ROOT
ATOM      1  O   UNL     1      13.056  10.155  20.241  0.00  0.00    -0.336 OA
ATOM      5  N   UNL     1      12.196   9.913  22.295  0.00  0.00    -0.190 NA
ATOM      8  N   UNL     1      12.449  11.378  20.556  0.00  0.00    -0.056 NA
ATOM     15  C   UNL     1      12.860   9.349  21.317  0.00  0.00    +0.245 A 
ATOM     17  C   UNL     1      11.965  11.156  21.782  0.00  0.00    +0.202 A 
ENDROOT
BRANCH  17  19
ATOM      9  N   UNL     1       9.846  14.100  23.957  0.00  0.00    -0.221 NA
ATOM     19  C   UNL     1      11.246  12.154  22.519  0.00  0.00    +0.029 A 
ATOM     21  C   UNL     1      10.765  13.288  21.873  0.00  0.00    +0.079 A 
ATOM     22  C   UNL     1      11.028  11.992  23.883  0.00  0.00    +0.031 A 
ATOM     23  C   UNL     1      10.078  14.222  22.630  0.00  0.00    +0.215 A 
ATOM     24  C   UNL     1      10.329  12.985  24.550  0.00  0.00    +0.115 A 
BRANCH  23   2
ATOM      2  O   UNL     1       9.594  15.348  22.017  0.00  0.00    -0.474 OA
BRANCH   2  25
ATOM     25  C   UNL     1       8.683  15.151  20.941  0.00  0.00    +0.258 C 
BRANCH  25  26
ATOM     26  C   UNL     1       7.267  15.199  21.477  0.00  0.00    +0.200 C 
BRANCH  26   3
ATOM      3  O   UNL     1       6.367  14.810  20.446  0.00  0.00    -0.380 OA
ATOM     27  C   UNL     1       6.783  15.302  19.180  0.00  0.00    +0.194 C 
ENDBRANCH  26   3
ENDBRANCH  25  26
ENDBRANCH   2  25
ENDBRANCH  23   2
ENDBRANCH  17  19
BRANCH  15  10
ATOM      4  N   UNL     1      13.792   7.573  19.845  0.00  0.00    -0.284 NA
ATOM     10  C   UNL     1      13.431   7.950  21.226  0.00  0.00    +0.146 C 
ATOM     11  C   UNL     1      14.735   7.787  22.030  0.00  0.00    +0.030 C 
ATOM     12  C   UNL     1      15.754   7.257  21.031  0.00  0.00    +0.017 C 
ATOM     13  C   UNL     1      14.900   6.623  19.952  0.00  0.00    +0.085 C 
BRANCH   4  14
ATOM     14  C   UNL     1      12.673   7.028  19.087  0.00  0.00    +0.159 C 
BRANCH  14  16
ATOM      6  N   UNL     1      13.153   8.871  17.458  0.00  0.00    -0.347 N 
ATOM      7  N   UNL     1      11.174   7.886  17.248  0.00  0.00    -0.239 NA
ATOM     16  C   UNL     1      12.299   7.911  17.927  0.00  0.00    +0.121 A 
ATOM     18  C   UNL     1      12.533   9.497  16.414  0.00  0.00    +0.104 A 
ATOM     20  C   UNL     1      11.313   8.872  16.303  0.00  0.00    +0.130 A 
ATOM     28  H   UNL     1      14.074   9.082  17.819  0.00  0.00    +0.167 HD
ENDBRANCH  14  16
ENDBRANCH   4  14
ENDBRANCH  15  10
TORSDOF 8
ENDMDL
MODEL 4
REMARK VINA RESULT:      -6.6      1.692      3.338
REMARK  Name = 45783365
REMARK  9 active torsions:
REMARK  status: ('A' for Active; 'I' for Inactive)
REMARK    1  A    between atoms: O_2  and  C_23
REMARK    2  A    between atoms: O_2  and  C_25
REMARK    3  A    between atoms: O_3  and  C_26
REMARK    4  A    between atoms: O_3  and  C_27
REMARK    5  A    between atoms: N_4  and  C_14
REMARK    6  A    between atoms: C_10  and  C_15
REMARK    7  A    between atoms: C_14  and  C_16
REMARK    8  A    between atoms: C_17  and  C_19
REMARK    9  A    between atoms: C_25  and  C_26
REMARK                            x       y       z     vdW  Elec       q    Type
REMARK                         _______ _______ _______ _____ _____    ______ ____
ROOT
ATOM      1  O   UNL     1      14.522   6.804  19.739  0.00  0.00    -0.336 OA
ATOM      5  N   UNL     1      15.684   7.994  21.239  0.00  0.00    -0.190 NA
ATOM      8  N   UNL     1      15.850   6.370  19.636  0.00  0.00    -0.056 NA
ATOM     15  C   UNL     1      14.512   7.759  20.704  0.00  0.00    +0.245 A 
ATOM     17  C   UNL     1      16.473   7.119  20.552  0.00  0.00    +0.202 A 
ENDROOT
BRANCH  17  19
ATOM      9  N   UNL     1      20.626   6.817  21.294  0.00  0.00    -0.221 NA
ATOM     19  C   UNL     1      17.882   7.017  20.803  0.00  0.00    +0.029 A 
ATOM     21  C   UNL     1      18.590   5.904  20.363  0.00  0.00    +0.079 A 
ATOM     22  C   UNL     1      18.543   8.029  21.489  0.00  0.00    +0.031 A 
ATOM     23  C   UNL     1      19.948   5.853  20.632  0.00  0.00    +0.215 A 
ATOM     24  C   UNL     1      19.903   7.882  21.707  0.00  0.00    +0.115 A 
BRANCH  23   2
ATOM      2  O   UNL     1      20.668   4.767  20.208  0.00  0.00    -0.474 OA
BRANCH   2  25
ATOM     25  C   UNL     1      21.993   4.640  20.713  0.00  0.00    +0.258 C 
BRANCH  25  26
ATOM     26  C   UNL     1      22.128   3.307  21.420  0.00  0.00    +0.200 C 
BRANCH  26   3
ATOM      3  O   UNL     1      23.259   2.619  20.902  0.00  0.00    -0.380 OA
ATOM     27  C   UNL     1      24.436   3.410  20.991  0.00  0.00    +0.194 C 
ENDBRANCH  26   3
ENDBRANCH  25  26
ENDBRANCH   2  25
ENDBRANCH  23   2
ENDBRANCH  17  19
BRANCH  15  10
ATOM      4  N   UNL     1      12.369   8.641  19.797  0.00  0.00    -0.284 NA
ATOM     10  C   UNL     1      13.172   8.395  21.011  0.00  0.00    +0.146 C 
ATOM     11  C   UNL     1      12.280   7.504  21.896  0.00  0.00    +0.030 C 
ATOM     12  C   UNL     1      10.977   7.354  21.124  0.00  0.00    +0.017 C 
ATOM     13  C   UNL     1      10.966   8.558  20.205  0.00  0.00    +0.085 C 
BRANCH   4  14
ATOM     14  C   UNL     1      12.678   9.909  19.150  0.00  0.00    +0.159 C 
BRANCH  14  16
ATOM      6  N   UNL     1      13.548   8.459  17.300  0.00  0.00    -0.347 N 
ATOM      7  N   UNL     1      13.629  10.648  16.933  0.00  0.00    -0.239 NA
ATOM     16  C   UNL     1      13.286   9.710  17.788  0.00  0.00    +0.121 A 
ATOM     18  C   UNL     1      14.092   8.609  16.056  0.00  0.00    +0.104 A 
ATOM     20  C   UNL     1      14.131   9.968  15.850  0.00  0.00    +0.130 A 
ATOM     28  H   UNL     1      13.374   7.583  17.774  0.00  0.00    +0.167 HD
ENDBRANCH  14  16
ENDBRANCH   4  14
ENDBRANCH  15  10
TORSDOF 8
ENDMDL
MODEL 5
REMARK VINA RESULT:      -6.6     26.244     30.202
REMARK  Name = 45783365
REMARK  9 active torsions:
REMARK  status: ('A' for Active; 'I' for Inactive)
REMARK    1  A    between atoms: O_2  and  C_23
REMARK    2  A    between atoms: O_2  and  C_25
REMARK    3  A    between atoms: O_3  and  C_26
REMARK    4  A    between atoms: O_3  and  C_27
REMARK    5  A    between atoms: N_4  and  C_14
REMARK    6  A    between atoms: C_10  and  C_15
REMARK    7  A    between atoms: C_14  and  C_16
REMARK    8  A    between atoms: C_17  and  C_19
REMARK    9  A    between atoms: C_25  and  C_26
REMARK                            x       y       z     vdW  Elec       q    Type
REMARK                         _______ _______ _______ _____ _____    ______ ____
ROOT
ATOM      1  O   UNL     1      -4.002 -11.084  17.910  0.00  0.00    -0.336 OA
ATOM      5  N   UNL     1      -5.438 -10.574  16.269  0.00  0.00    -0.190 NA
ATOM      8  N   UNL     1      -5.217 -10.775  18.536  0.00  0.00    -0.056 NA
ATOM     15  C   UNL     1      -4.220 -10.941  16.577  0.00  0.00    +0.245 A 
ATOM     17  C   UNL     1      -6.013 -10.485  17.503  0.00  0.00    +0.202 A 
ENDROOT
BRANCH  17  19
ATOM      9  N   UNL     1     -10.058  -9.354  17.995  0.00  0.00    -0.221 NA
ATOM     19  C   UNL     1      -7.385 -10.102  17.669  0.00  0.00    +0.029 A 
ATOM     21  C   UNL     1      -7.870  -8.957  17.047  0.00  0.00    +0.079 A 
ATOM     22  C   UNL     1      -8.234 -10.874  18.454  0.00  0.00    +0.031 A 
ATOM     23  C   UNL     1      -9.202  -8.629  17.241  0.00  0.00    +0.215 A 
ATOM     24  C   UNL     1      -9.550 -10.460  18.584  0.00  0.00    +0.115 A 
BRANCH  23   2
ATOM      2  O   UNL     1      -9.705  -7.506  16.638  0.00  0.00    -0.474 OA
BRANCH   2  25
ATOM     25  C   UNL     1     -11.121  -7.370  16.616  0.00  0.00    +0.258 C 
BRANCH  25  26
ATOM     26  C   UNL     1     -11.477  -5.962  16.181  0.00  0.00    +0.200 C 
BRANCH  26   3
ATOM      3  O   UNL     1     -12.573  -6.019  15.276  0.00  0.00    -0.380 OA
ATOM     27  C   UNL     1     -12.264  -5.385  14.043  0.00  0.00    +0.194 C 
ENDBRANCH  26   3
ENDBRANCH  25  26
ENDBRANCH   2  25
ENDBRANCH  23   2
ENDBRANCH  17  19
BRANCH  15  10
ATOM      4  N   UNL     1      -3.131 -10.499  14.383  0.00  0.00    -0.284 NA
ATOM     10  C   UNL     1      -3.043 -11.223  15.667  0.00  0.00    +0.146 C 
ATOM     11  C   UNL     1      -1.701 -10.778  16.276  0.00  0.00    +0.030 C 
ATOM     12  C   UNL     1      -1.079  -9.854  15.238  0.00  0.00    +0.017 C 
ATOM     13  C   UNL     1      -1.754 -10.266  13.945  0.00  0.00    +0.085 C 
BRANCH   4  14
ATOM     14  C   UNL     1      -3.914 -11.205  13.377  0.00  0.00    +0.159 C 
BRANCH  14  16
ATOM      6  N   UNL     1      -6.026  -9.870  13.185  0.00  0.00    -0.347 N 
ATOM      7  N   UNL     1      -4.656  -9.768  11.441  0.00  0.00    -0.239 NA
ATOM     16  C   UNL     1      -4.841 -10.279  12.638  0.00  0.00    +0.121 A 
ATOM     18  C   UNL     1      -6.634  -9.046  12.280  0.00  0.00    +0.104 A 
ATOM     20  C   UNL     1      -5.769  -8.998  11.212  0.00  0.00    +0.130 A 
ATOM     28  H   UNL     1      -6.388 -10.131  14.093  0.00  0.00    +0.167 HD
ENDBRANCH  14  16
ENDBRANCH   4  14
ENDBRANCH  15  10
TORSDOF 8
ENDMDL
MODEL 6
REMARK VINA RESULT:      -6.5      2.995      8.184
REMARK  Name = 45783365
REMARK  9 active torsions:
REMARK  status: ('A' for Active; 'I' for Inactive)
REMARK    1  A    between atoms: O_2  and  C_23
REMARK    2  A    between atoms: O_2  and  C_25
REMARK    3  A    between atoms: O_3  and  C_26
REMARK    4  A    between atoms: O_3  and  C_27
REMARK    5  A    between atoms: N_4  and  C_14
REMARK    6  A    between atoms: C_10  and  C_15
REMARK    7  A    between atoms: C_14  and  C_16
REMARK    8  A    between atoms: C_17  and  C_19
REMARK    9  A    between atoms: C_25  and  C_26
REMARK                            x       y       z     vdW  Elec       q    Type
REMARK                         _______ _______ _______ _____ _____    ______ ____
ROOT
ATOM      1  O   UNL     1      18.246   6.021  19.596  0.00  0.00    -0.336 OA
ATOM      5  N   UNL     1      16.926   7.655  20.374  0.00  0.00    -0.190 NA
ATOM      8  N   UNL     1      16.989   5.820  19.010  0.00  0.00    -0.056 NA
ATOM     15  C   UNL     1      18.122   7.121  20.384  0.00  0.00    +0.245 A 
ATOM     17  C   UNL     1      16.267   6.824  19.517  0.00  0.00    +0.202 A 
ENDROOT
BRANCH  17  19
ATOM      9  N   UNL     1      12.191   7.405  18.550  0.00  0.00    -0.221 NA
ATOM     19  C   UNL     1      14.884   7.021  19.189  0.00  0.00    +0.029 A 
ATOM     21  C   UNL     1      13.894   6.678  20.104  0.00  0.00    +0.079 A 
ATOM     22  C   UNL     1      14.530   7.556  17.956  0.00  0.00    +0.031 A 
ATOM     23  C   UNL     1      12.575   6.888  19.739  0.00  0.00    +0.215 A 
ATOM     24  C   UNL     1      13.181   7.726  17.688  0.00  0.00    +0.115 A 
BRANCH  23   2
ATOM      2  O   UNL     1      11.581   6.558  20.622  0.00  0.00    -0.474 OA
BRANCH   2  25
ATOM     25  C   UNL     1      11.518   7.312  21.828  0.00  0.00    +0.258 C 
BRANCH  25  26
ATOM     26  C   UNL     1      10.512   8.432  21.659  0.00  0.00    +0.200 C 
BRANCH  26   3
ATOM      3  O   UNL     1      11.173   9.680  21.831  0.00  0.00    -0.380 OA
ATOM     27  C   UNL     1      11.015  10.175  23.153  0.00  0.00    +0.194 C 
ENDBRANCH  26   3
ENDBRANCH  25  26
ENDBRANCH   2  25
ENDBRANCH  23   2
ENDBRANCH  17  19
BRANCH  15  10
ATOM      4  N   UNL     1      19.093   8.653  22.087  0.00  0.00    -0.284 NA
ATOM     10  C   UNL     1      19.361   7.554  21.139  0.00  0.00    +0.146 C 
ATOM     11  C   UNL     1      19.955   6.426  22.003  0.00  0.00    +0.030 C 
ATOM     12  C   UNL     1      20.039   7.005  23.408  0.00  0.00    +0.017 C 
ATOM     13  C   UNL     1      20.058   8.502  23.177  0.00  0.00    +0.085 C 
BRANCH   4  14
ATOM     14  C   UNL     1      19.162   9.972  21.473  0.00  0.00    +0.159 C 
BRANCH  14  16
ATOM      6  N   UNL     1      16.883  10.751  20.780  0.00  0.00    -0.347 N 
ATOM      7  N   UNL     1      17.615  11.518  22.732  0.00  0.00    -0.239 NA
ATOM     16  C   UNL     1      17.899  10.760  21.696  0.00  0.00    +0.121 A 
ATOM     18  C   UNL     1      15.889  11.554  21.264  0.00  0.00    +0.104 A 
ATOM     20  C   UNL     1      16.363  12.016  22.469  0.00  0.00    +0.130 A 
ATOM     28  H   UNL     1      16.870  10.246  19.905  0.00  0.00    +0.167 HD
ENDBRANCH  14  16
ENDBRANCH   4  14
ENDBRANCH  15  10
TORSDOF 8
ENDMDL
MODEL 7
REMARK VINA RESULT:      -6.4     16.637     19.904
REMARK  Name = 45783365
REMARK  9 active torsions:
REMARK  status: ('A' for Active; 'I' for Inactive)
REMARK    1  A    between atoms: O_2  and  C_23
REMARK    2  A    between atoms: O_2  and  C_25
REMARK    3  A    between atoms: O_3  and  C_26
REMARK    4  A    between atoms: O_3  and  C_27
REMARK    5  A    between atoms: N_4  and  C_14
REMARK    6  A    between atoms: C_10  and  C_15
REMARK    7  A    between atoms: C_14  and  C_16
REMARK    8  A    between atoms: C_17  and  C_19
REMARK    9  A    between atoms: C_25  and  C_26
REMARK                            x       y       z     vdW  Elec       q    Type
REMARK                         _______ _______ _______ _____ _____    ______ ____
ROOT
ATOM      1  O   UNL     1      11.619   6.677   4.235  0.00  0.00    -0.336 OA
ATOM      5  N   UNL     1      10.741   4.726   3.570  0.00  0.00    -0.190 NA
ATOM      8  N   UNL     1      12.221   6.376   3.006  0.00  0.00    -0.056 NA
ATOM     15  C   UNL     1      10.761   5.655   4.493  0.00  0.00    +0.245 A 
ATOM     17  C   UNL     1      11.652   5.212   2.679  0.00  0.00    +0.202 A 
ENDROOT
BRANCH  17  19
ATOM      9  N   UNL     1      12.597   3.141  -0.885  0.00  0.00    -0.221 NA
ATOM     19  C   UNL     1      11.973   4.510   1.470  0.00  0.00    +0.029 A 
ATOM     21  C   UNL     1      11.026   4.394   0.458  0.00  0.00    +0.079 A 
ATOM     22  C   UNL     1      13.232   3.943   1.306  0.00  0.00    +0.031 A 
ATOM     23  C   UNL     1      11.384   3.705  -0.689  0.00  0.00    +0.215 A 
ATOM     24  C   UNL     1      13.491   3.275   0.120  0.00  0.00    +0.115 A 
BRANCH  23   2
ATOM      2  O   UNL     1      10.469   3.576  -1.700  0.00  0.00    -0.474 OA
BRANCH   2  25
ATOM     25  C   UNL     1      10.081   4.771  -2.369  0.00  0.00    +0.258 C 
BRANCH  25  26
ATOM     26  C   UNL     1       9.099   4.425  -3.471  0.00  0.00    +0.200 C 
BRANCH  26   3
ATOM      3  O   UNL     1       9.089   3.015  -3.658  0.00  0.00    -0.380 OA
ATOM     27  C   UNL     1       9.646   2.653  -4.914  0.00  0.00    +0.194 C 
ENDBRANCH  26   3
ENDBRANCH  25  26
ENDBRANCH   2  25
ENDBRANCH  23   2
ENDBRANCH  17  19
BRANCH  15  10
ATOM      4  N   UNL     1      10.417   6.859   6.643  0.00  0.00    -0.284 NA
ATOM     10  C   UNL     1       9.974   5.744   5.783  0.00  0.00    +0.146 C 
ATOM     11  C   UNL     1       8.475   6.003   5.547  0.00  0.00    +0.030 C 
ATOM     12  C   UNL     1       8.153   7.248   6.362  0.00  0.00    +0.017 C 
ATOM     13  C   UNL     1       9.245   7.279   7.412  0.00  0.00    +0.085 C 
BRANCH   4  14
ATOM     14  C   UNL     1      11.541   6.511   7.502  0.00  0.00    +0.159 C 
BRANCH  14  16
ATOM      6  N   UNL     1      13.865   6.436   6.569  0.00  0.00    -0.347 N 
ATOM      7  N   UNL     1      13.084   8.457   7.056  0.00  0.00    -0.239 NA
ATOM     16  C   UNL     1      12.817   7.170   7.051  0.00  0.00    +0.121 A 
ATOM     18  C   UNL     1      14.865   7.311   6.247  0.00  0.00    +0.104 A 
ATOM     20  C   UNL     1      14.359   8.552   6.556  0.00  0.00    +0.130 A 
ATOM     28  H   UNL     1      13.898   5.431   6.471  0.00  0.00    +0.167 HD
ENDBRANCH  14  16
ENDBRANCH   4  14
ENDBRANCH  15  10
TORSDOF 8
ENDMDL
MODEL 8
REMARK VINA RESULT:      -6.3      2.420      3.957
REMARK  Name = 45783365
REMARK  9 active torsions:
REMARK  status: ('A' for Active; 'I' for Inactive)
REMARK    1  A    between atoms: O_2  and  C_23
REMARK    2  A    between atoms: O_2  and  C_25
REMARK    3  A    between atoms: O_3  and  C_26
REMARK    4  A    between atoms: O_3  and  C_27
REMARK    5  A    between atoms: N_4  and  C_14
REMARK    6  A    between atoms: C_10  and  C_15
REMARK    7  A    between atoms: C_14  and  C_16
REMARK    8  A    between atoms: C_17  and  C_19
REMARK    9  A    between atoms: C_25  and  C_26
REMARK                            x       y       z     vdW  Elec       q    Type
REMARK                         _______ _______ _______ _____ _____    ______ ____
ROOT
ATOM      1  O   UNL     1      15.410  10.398  22.284  0.00  0.00    -0.336 OA
ATOM      5  N   UNL     1      14.634   9.130  20.609  0.00  0.00    -0.190 NA
ATOM      8  N   UNL     1      16.419   9.468  21.999  0.00  0.00    -0.056 NA
ATOM     15  C   UNL     1      14.396  10.129  21.421  0.00  0.00    +0.245 A 
ATOM     17  C   UNL     1      15.886   8.756  21.001  0.00  0.00    +0.202 A 
ENDROOT
BRANCH  17  19
ATOM      9  N   UNL     1      17.927   5.543  19.157  0.00  0.00    -0.221 NA
ATOM     19  C   UNL     1      16.578   7.666  20.375  0.00  0.00    +0.029 A 
ATOM     21  C   UNL     1      17.860   7.324  20.791  0.00  0.00    +0.079 A 
ATOM     22  C   UNL     1      15.969   6.949  19.352  0.00  0.00    +0.031 A 
ATOM     23  C   UNL     1      18.486   6.264  20.154  0.00  0.00    +0.215 A 
ATOM     24  C   UNL     1      16.680   5.906  18.780  0.00  0.00    +0.115 A 
BRANCH  23   2
ATOM      2  O   UNL     1      19.750   5.908  20.545  0.00  0.00    -0.474 OA
BRANCH   2  25
ATOM     25  C   UNL     1      20.151   6.300  21.853  0.00  0.00    +0.258 C 
BRANCH  25  26
ATOM     26  C   UNL     1      21.565   5.815  22.104  0.00  0.00    +0.200 C 
BRANCH  26   3
ATOM      3  O   UNL     1      21.534   4.778  23.077  0.00  0.00    -0.380 OA
ATOM     27  C   UNL     1      22.221   3.619  22.624  0.00  0.00    +0.194 C 
ENDBRANCH  26   3
ENDBRANCH  25  26
ENDBRANCH   2  25
ENDBRANCH  23   2
ENDBRANCH  17  19
BRANCH  15  10
ATOM      4  N   UNL     1      11.978  10.271  21.990  0.00  0.00    -0.284 NA
ATOM     10  C   UNL     1      13.169  11.010  21.526  0.00  0.00    +0.146 C 
ATOM     11  C   UNL     1      13.343  12.152  22.544  0.00  0.00    +0.030 C 
ATOM     12  C   UNL     1      12.171  12.010  23.505  0.00  0.00    +0.017 C 
ATOM     13  C   UNL     1      11.143  11.240  22.702  0.00  0.00    +0.085 C 
BRANCH   4  14
ATOM     14  C   UNL     1      11.254   9.611  20.911  0.00  0.00    +0.159 C 
BRANCH  14  16
ATOM      6  N   UNL     1      12.002   7.364  20.093  0.00  0.00    -0.347 N 
ATOM      7  N   UNL     1      10.798   7.362  21.959  0.00  0.00    -0.239 NA
ATOM     16  C   UNL     1      11.331   8.112  21.020  0.00  0.00    +0.121 A 
ATOM     18  C   UNL     1      11.889   6.053  20.464  0.00  0.00    +0.104 A 
ATOM     20  C   UNL     1      11.143   6.077  21.619  0.00  0.00    +0.130 A 
ATOM     28  H   UNL     1      12.489   7.714  19.280  0.00  0.00    +0.167 HD
ENDBRANCH  14  16
ENDBRANCH   4  14
ENDBRANCH  15  10
TORSDOF 8
ENDMDL
MODEL 9
REMARK VINA RESULT:      -6.2      2.261      3.553
REMARK  Name = 45783365
REMARK  9 active torsions:
REMARK  status: ('A' for Active; 'I' for Inactive)
REMARK    1  A    between atoms: O_2  and  C_23
REMARK    2  A    between atoms: O_2  and  C_25
REMARK    3  A    between atoms: O_3  and  C_26
REMARK    4  A    between atoms: O_3  and  C_27
REMARK    5  A    between atoms: N_4  and  C_14
REMARK    6  A    between atoms: C_10  and  C_15
REMARK    7  A    between atoms: C_14  and  C_16
REMARK    8  A    between atoms: C_17  and  C_19
REMARK    9  A    between atoms: C_25  and  C_26
REMARK                            x       y       z     vdW  Elec       q    Type
REMARK                         _______ _______ _______ _____ _____    ______ ____
ROOT
ATOM      1  O   UNL     1      15.076   9.969  22.044  0.00  0.00    -0.336 OA
ATOM      5  N   UNL     1      14.796   8.091  20.855  0.00  0.00    -0.190 NA
ATOM      8  N   UNL     1      16.346   9.390  21.922  0.00  0.00    -0.056 NA
ATOM     15  C   UNL     1      14.222   9.140  21.388  0.00  0.00    +0.245 A 
ATOM     17  C   UNL     1      16.098   8.287  21.209  0.00  0.00    +0.202 A 
ENDROOT
BRANCH  17  19
ATOM      9  N   UNL     1      19.138   5.561  20.107  0.00  0.00    -0.221 NA
ATOM     19  C   UNL     1      17.129   7.362  20.835  0.00  0.00    +0.029 A 
ATOM     21  C   UNL     1      18.269   7.234  21.621  0.00  0.00    +0.079 A 
ATOM     22  C   UNL     1      16.991   6.592  19.687  0.00  0.00    +0.031 A 
ATOM     23  C   UNL     1      19.236   6.328  21.216  0.00  0.00    +0.215 A 
ATOM     24  C   UNL     1      18.015   5.715  19.369  0.00  0.00    +0.115 A 
BRANCH  23   2
ATOM      2  O   UNL     1      20.369   6.183  21.973  0.00  0.00    -0.474 OA
BRANCH   2  25
ATOM     25  C   UNL     1      21.351   5.275  21.488  0.00  0.00    +0.258 C 
BRANCH  25  26
ATOM     26  C   UNL     1      22.145   4.732  22.659  0.00  0.00    +0.200 C 
BRANCH  26   3
ATOM      3  O   UNL     1      23.231   3.957  22.165  0.00  0.00    -0.380 OA
ATOM     27  C   UNL     1      22.792   2.983  21.229  0.00  0.00    +0.194 C 
ENDBRANCH  26   3
ENDBRANCH  25  26
ENDBRANCH   2  25
ENDBRANCH  23   2
ENDBRANCH  17  19
BRANCH  15  10
ATOM      4  N   UNL     1      11.905   8.621  22.133  0.00  0.00    -0.284 NA
ATOM     10  C   UNL     1      12.764   9.549  21.372  0.00  0.00    +0.146 C 
ATOM     11  C   UNL     1      12.526  10.925  22.022  0.00  0.00    +0.030 C 
ATOM     12  C   UNL     1      11.475  10.681  23.096  0.00  0.00    +0.017 C 
ATOM     13  C   UNL     1      10.783   9.414  22.636  0.00  0.00    +0.085 C 
BRANCH   4  14
ATOM     14  C   UNL     1      11.460   7.476  21.349  0.00  0.00    +0.159 C 
BRANCH  14  16
ATOM      6  N   UNL     1      12.420   7.125  19.062  0.00  0.00    -0.347 N 
ATOM      7  N   UNL     1      10.753   8.586  19.196  0.00  0.00    -0.239 NA
ATOM     16  C   UNL     1      11.515   7.754  19.871  0.00  0.00    +0.121 A 
ATOM     18  C   UNL     1      12.222   7.585  17.790  0.00  0.00    +0.104 A 
ATOM     20  C   UNL     1      11.188   8.485  17.898  0.00  0.00    +0.130 A 
ATOM     28  H   UNL     1      13.111   6.446  19.350  0.00  0.00    +0.167 HD
ENDBRANCH  14  16
ENDBRANCH   4  14
ENDBRANCH  15  10
TORSDOF 8
ENDMDL
MODEL 10
REMARK VINA RESULT:      -6.2     27.547     29.739
REMARK  Name = 45783365
REMARK  9 active torsions:
REMARK  status: ('A' for Active; 'I' for Inactive)
REMARK    1  A    between atoms: O_2  and  C_23
REMARK    2  A    between atoms: O_2  and  C_25
REMARK    3  A    between atoms: O_3  and  C_26
REMARK    4  A    between atoms: O_3  and  C_27
REMARK    5  A    between atoms: N_4  and  C_14
REMARK    6  A    between atoms: C_10  and  C_15
REMARK    7  A    between atoms: C_14  and  C_16
REMARK    8  A    between atoms: C_17  and  C_19
REMARK    9  A    between atoms: C_25  and  C_26
REMARK                            x       y       z     vdW  Elec       q    Type
REMARK                         _______ _______ _______ _____ _____    ______ ____
ROOT
ATOM      1  O   UNL     1      -4.457 -12.184  16.674  0.00  0.00    -0.336 OA
ATOM      5  N   UNL     1      -4.769 -10.199  15.686  0.00  0.00    -0.190 NA
ATOM      8  N   UNL     1      -3.839 -12.272  15.420  0.00  0.00    -0.056 NA
ATOM     15  C   UNL     1      -4.980 -10.932  16.750  0.00  0.00    +0.245 A 
ATOM     17  C   UNL     1      -4.067 -11.063  14.898  0.00  0.00    +0.202 A 
ENDROOT
BRANCH  17  19
ATOM      9  N   UNL     1      -2.708  -9.957  11.048  0.00  0.00    -0.221 NA
ATOM     19  C   UNL     1      -3.606 -10.687  13.592  0.00  0.00    +0.029 A 
ATOM     21  C   UNL     1      -4.518 -10.308  12.613  0.00  0.00    +0.079 A 
ATOM     22  C   UNL     1      -2.247 -10.702  13.302  0.00  0.00    +0.031 A 
ATOM     23  C   UNL     1      -4.022  -9.955  11.369  0.00  0.00    +0.215 A 
ATOM     24  C   UNL     1      -1.853 -10.332  12.026  0.00  0.00    +0.115 A 
BRANCH  23   2
ATOM      2  O   UNL     1      -4.900  -9.578  10.387  0.00  0.00    -0.474 OA
BRANCH   2  25
ATOM     25  C   UNL     1      -6.064  -8.873  10.804  0.00  0.00    +0.258 C 
BRANCH  25  26
ATOM     26  C   UNL     1      -7.278  -9.479  10.129  0.00  0.00    +0.200 C 
BRANCH  26   3
ATOM      3  O   UNL     1      -8.226  -8.451   9.868  0.00  0.00    -0.380 OA
ATOM     27  C   UNL     1      -7.933  -7.768   8.657  0.00  0.00    +0.194 C 
ENDBRANCH  26   3
ENDBRANCH  25  26
ENDBRANCH   2  25
ENDBRANCH  23   2
ENDBRANCH  17  19
BRANCH  15  10
ATOM      4  N   UNL     1      -7.177 -10.577  17.862  0.00  0.00    -0.284 NA
ATOM     10  C   UNL     1      -5.710 -10.582  18.029  0.00  0.00    +0.146 C 
ATOM     11  C   UNL     1      -5.448 -11.594  19.159  0.00  0.00    +0.030 C 
ATOM     12  C   UNL     1      -6.827 -12.059  19.605  0.00  0.00    +0.017 C 
ATOM     13  C   UNL     1      -7.742 -10.934  19.164  0.00  0.00    +0.085 C 
BRANCH   4  14
ATOM     14  C   UNL     1      -7.695  -9.307  17.370  0.00  0.00    +0.159 C 
BRANCH  14  16
ATOM      6  N   UNL     1      -7.649  -9.498  14.871  0.00  0.00    -0.347 N 
ATOM      7  N   UNL     1      -9.661  -9.566  15.809  0.00  0.00    -0.239 NA
ATOM     16  C   UNL     1      -8.370  -9.459  16.033  0.00  0.00    +0.121 A 
ATOM     18  C   UNL     1      -8.537  -9.639  13.842  0.00  0.00    +0.104 A 
ATOM     20  C   UNL     1      -9.772  -9.680  14.446  0.00  0.00    +0.130 A 
ATOM     28  H   UNL     1      -6.644  -9.432  14.788  0.00  0.00    +0.167 HD
ENDBRANCH  14  16
ENDBRANCH   4  14
ENDBRANCH  15  10
TORSDOF 8
ENDMDL
