MODEL 1
REMARK VINA RESULT:      -6.3      0.000      0.000
REMARK  Name = 7134523
REMARK  16 active torsions:
REMARK  status: ('A' for Active; 'I' for Inactive)
REMARK    1  A    between atoms: O_1  and  C_21
REMARK    2  A    between atoms: O_2  and  C_23
REMARK    3  A    between atoms: O_3  and  C_24
REMARK    4  A    between atoms: O_5  and  C_28
REMARK    5  A    between atoms: O_9  and  C_37
REMARK    6  A    between atoms: O_9  and  C_38
REMARK    7  A    between atoms: N_10  and  C_19
REMARK    8  A    between atoms: N_11  and  C_29
REMARK    9  A    between atoms: C_13  and  C_18
REMARK   10  A    between atoms: C_13  and  C_20
REMARK   11  A    between atoms: C_18  and  C_26
REMARK   12  A    between atoms: C_20  and  C_28
REMARK   13  A    between atoms: C_21  and  C_27
REMARK   14  A    between atoms: C_29  and  C_30
REMARK   15  A    between atoms: C_29  and  C_31
REMARK   16  A    between atoms: C_30  and  C_32
REMARK                            x       y       z     vdW  Elec       q    Type
REMARK                         _______ _______ _______ _____ _____    ______ ____
ROOT
ATOM     19  C   UNL     1      14.368   7.550   3.800  0.00  0.00    +0.107 C 
ATOM     21  C   UNL     1      12.875   8.298   5.716  0.00  0.00    +0.146 C 
ATOM     22  C   UNL     1      12.991   7.427   4.463  0.00  0.00    +0.069 C 
ATOM     23  C   UNL     1      15.505   7.276   4.792  0.00  0.00    +0.163 C 
ATOM     24  C   UNL     1      15.382   8.128   6.057  0.00  0.00    +0.148 C 
ATOM     25  C   UNL     1      14.001   8.000   6.704  0.00  0.00    +0.078 C 
ENDROOT
BRANCH  19  10
ATOM      4  O   UNL     1      13.558   8.083   1.074  0.00  0.00    -0.276 OA
ATOM     10  N   UNL     1      14.448   6.650   2.671  0.00  0.00    -0.310 N 
ATOM     26  C   UNL     1      14.032   6.997   1.395  0.00  0.00    +0.214 C 
ATOM     39  H   UNL     1      14.763   5.701   2.850  0.00  0.00    +0.149 HD
BRANCH  26  18
ATOM     18  C   UNL     1      14.238   5.858   0.414  0.00  0.00    +0.103 C 
BRANCH  18  13
ATOM     13  C   UNL     1      13.128   4.807   0.491  0.00  0.00    -0.011 C 
ATOM     14  C   UNL     1      12.655   4.381  -0.905  0.00  0.00    +0.008 C 
ATOM     15  C   UNL     1      11.841   5.388   1.092  0.00  0.00    +0.008 C 
ATOM     16  C   UNL     1      11.245   3.833  -0.696  0.00  0.00    +0.001 C 
ATOM     17  C   UNL     1      10.722   4.481   0.585  0.00  0.00    +0.001 C 
BRANCH  13  20
ATOM     20  C   UNL     1      13.628   3.601   1.304  0.00  0.00    +0.127 C 
BRANCH  20  28
ATOM      7  O   UNL     1      15.872   3.463   0.360  0.00  0.00    -0.251 OA
ATOM     28  C   UNL     1      15.127   3.542   1.326  0.00  0.00    +0.305 C 
BRANCH  28   5
ATOM      5  O   UNL     1      15.561   3.590   2.611  0.00  0.00    -0.481 OA
ATOM     44  H   UNL     1      15.987   4.448   2.823  0.00  0.00    +0.295 HD
ENDBRANCH  28   5
ENDBRANCH  20  28
ENDBRANCH  13  20
ENDBRANCH  18  13
ENDBRANCH  26  18
ENDBRANCH  19  10
BRANCH  21  27
ATOM      6  O   UNL     1      10.916   9.033   6.868  0.00  0.00    -0.273 OA
ATOM     11  N   UNL     1      11.150   6.770   6.375  0.00  0.00    -0.301 N 
ATOM     27  C   UNL     1      11.542   8.097   6.376  0.00  0.00    +0.246 C 
ATOM     43  H   UNL     1      11.758   6.059   5.980  0.00  0.00    +0.150 HD
BRANCH  11  29
ATOM     29  C   UNL     1       9.916   6.309   6.969  0.00  0.00    +0.163 C 
BRANCH  29  31
ATOM      8  O   UNL     1      10.563   5.392   9.124  0.00  0.00    -0.274 OA
ATOM     12  N   UNL     1      10.198   3.943   7.379  0.00  0.00    -0.328 N 
ATOM     31  C   UNL     1      10.276   5.199   7.945  0.00  0.00    +0.231 C 
ATOM     45  H   UNL     1      10.398   3.113   7.927  0.00  0.00    +0.145 HD
ATOM     46  H   UNL     1       9.958   3.797   6.404  0.00  0.00    +0.145 HD
ENDBRANCH  29  31
BRANCH  29  30
ATOM     30  C   UNL     1       8.924   5.796   5.919  0.00  0.00    +0.067 C 
BRANCH  30  32
ATOM     32  C   UNL     1       8.714   6.772   4.789  0.00  0.00    -0.045 A 
ATOM     33  C   UNL     1       7.893   7.886   4.969  0.00  0.00    +0.007 A 
ATOM     34  C   UNL     1       9.341   6.561   3.560  0.00  0.00    +0.007 A 
ATOM     35  C   UNL     1       7.700   8.787   3.923  0.00  0.00    +0.046 A 
ATOM     36  C   UNL     1       9.148   7.463   2.514  0.00  0.00    +0.046 A 
ATOM     37  C   UNL     1       8.327   8.576   2.696  0.00  0.00    +0.120 A 
BRANCH  37   9
ATOM      9  O   UNL     1       8.139   9.456   1.675  0.00  0.00    -0.495 OA
ATOM     38  C   UNL     1       8.589   9.057   0.381  0.00  0.00    +0.277 C 
ENDBRANCH  37   9
ENDBRANCH  30  32
ENDBRANCH  29  30
ENDBRANCH  11  29
ENDBRANCH  21  27
BRANCH  21   1
ATOM      1  O   UNL     1      12.911   9.677   5.370  0.00  0.00    -0.379 OA
ATOM     40  H   UNL     1      11.997  10.000   5.298  0.00  0.00    +0.211 HD
ENDBRANCH  21   1
BRANCH  23   2
ATOM      2  O   UNL     1      16.753   7.599   4.172  0.00  0.00    -0.387 OA
ATOM     41  H   UNL     1      17.064   6.812   3.692  0.00  0.00    +0.210 HD
ENDBRANCH  23   2
BRANCH  24   3
ATOM      3  O   UNL     1      16.371   7.695   6.992  0.00  0.00    -0.389 OA
ATOM     42  H   UNL     1      16.300   6.728   7.068  0.00  0.00    +0.210 HD
ENDBRANCH  24   3
TORSDOF 15
ENDMDL
MODEL 2
REMARK VINA RESULT:      -6.3      1.338      1.930
REMARK  Name = 7134523
REMARK  16 active torsions:
REMARK  status: ('A' for Active; 'I' for Inactive)
REMARK    1  A    between atoms: O_1  and  C_21
REMARK    2  A    between atoms: O_2  and  C_23
REMARK    3  A    between atoms: O_3  and  C_24
REMARK    4  A    between atoms: O_5  and  C_28
REMARK    5  A    between atoms: O_9  and  C_37
REMARK    6  A    between atoms: O_9  and  C_38
REMARK    7  A    between atoms: N_10  and  C_19
REMARK    8  A    between atoms: N_11  and  C_29
REMARK    9  A    between atoms: C_13  and  C_18
REMARK   10  A    between atoms: C_13  and  C_20
REMARK   11  A    between atoms: C_18  and  C_26
REMARK   12  A    between atoms: C_20  and  C_28
REMARK   13  A    between atoms: C_21  and  C_27
REMARK   14  A    between atoms: C_29  and  C_30
REMARK   15  A    between atoms: C_29  and  C_31
REMARK   16  A    between atoms: C_30  and  C_32
REMARK                            x       y       z     vdW  Elec       q    Type
REMARK                         _______ _______ _______ _____ _____    ______ ____
ROOT
ATOM     19  C   UNL     1      14.118   7.105   3.663  0.00  0.00    +0.107 C 
ATOM     21  C   UNL     1      12.885   8.205   5.593  0.00  0.00    +0.146 C 
ATOM     22  C   UNL     1      12.892   7.058   4.581  0.00  0.00    +0.069 C 
ATOM     23  C   UNL     1      15.427   7.168   4.461  0.00  0.00    +0.163 C 
ATOM     24  C   UNL     1      15.417   8.300   5.490  0.00  0.00    +0.148 C 
ATOM     25  C   UNL     1      14.184   8.244   6.395  0.00  0.00    +0.078 C 
ENDROOT
BRANCH  19  10
ATOM      4  O   UNL     1      14.817   7.048   0.855  0.00  0.00    -0.276 OA
ATOM     10  N   UNL     1      14.114   5.957   2.782  0.00  0.00    -0.310 N 
ATOM     26  C   UNL     1      14.466   6.029   1.444  0.00  0.00    +0.214 C 
ATOM     39  H   UNL     1      13.770   5.079   3.159  0.00  0.00    +0.149 HD
BRANCH  26  18
ATOM     18  C   UNL     1      14.371   4.672   0.770  0.00  0.00    +0.103 C 
BRANCH  18  13
ATOM     13  C   UNL     1      13.182   4.573  -0.189  0.00  0.00    -0.011 C 
ATOM     14  C   UNL     1      12.871   3.115  -0.554  0.00  0.00    +0.008 C 
ATOM     15  C   UNL     1      13.513   5.173  -1.563  0.00  0.00    +0.008 C 
ATOM     16  C   UNL     1      12.122   3.191  -1.882  0.00  0.00    +0.001 C 
ATOM     17  C   UNL     1      12.535   4.511  -2.530  0.00  0.00    +0.001 C 
BRANCH  13  20
ATOM     20  C   UNL     1      11.963   5.264   0.443  0.00  0.00    +0.127 C 
BRANCH  20  28
ATOM      7  O   UNL     1      11.684   3.953   2.480  0.00  0.00    -0.251 OA
ATOM     28  C   UNL     1      11.259   4.354   1.407  0.00  0.00    +0.305 C 
BRANCH  28   5
ATOM      5  O   UNL     1      10.042   4.022   0.905  0.00  0.00    -0.481 OA
ATOM     44  H   UNL     1      10.086   3.806  -0.051  0.00  0.00    +0.295 HD
ENDBRANCH  28   5
ENDBRANCH  20  28
ENDBRANCH  13  20
ENDBRANCH  18  13
ENDBRANCH  26  18
ENDBRANCH  19  10
BRANCH  21  27
ATOM      6  O   UNL     1      11.417   8.978   7.311  0.00  0.00    -0.273 OA
ATOM     11  N   UNL     1      11.051   6.877   6.377  0.00  0.00    -0.301 N 
ATOM     27  C   UNL     1      11.710   8.086   6.518  0.00  0.00    +0.246 C 
ATOM     43  H   UNL     1      11.395   6.183   5.721  0.00  0.00    +0.150 HD
BRANCH  11  29
ATOM     29  C   UNL     1       9.900   6.506   7.168  0.00  0.00    +0.163 C 
BRANCH  29  31
ATOM      8  O   UNL     1      10.641   5.408   9.205  0.00  0.00    -0.274 OA
ATOM     12  N   UNL     1      10.221   4.117   7.351  0.00  0.00    -0.328 N 
ATOM     31  C   UNL     1      10.310   5.318   8.025  0.00  0.00    +0.231 C 
ATOM     45  H   UNL     1      10.451   3.244   7.814  0.00  0.00    +0.145 HD
ATOM     46  H   UNL     1       9.944   4.056   6.378  0.00  0.00    +0.145 HD
ENDBRANCH  29  31
BRANCH  29  30
ATOM     30  C   UNL     1       8.691   6.145   6.298  0.00  0.00    +0.067 C 
BRANCH  30  32
ATOM     32  C   UNL     1       8.619   6.961   5.031  0.00  0.00    -0.045 A 
ATOM     33  C   UNL     1       9.241   6.505   3.869  0.00  0.00    +0.007 A 
ATOM     34  C   UNL     1       7.928   8.173   5.022  0.00  0.00    +0.007 A 
ATOM     35  C   UNL     1       9.173   7.260   2.698  0.00  0.00    +0.046 A 
ATOM     36  C   UNL     1       7.860   8.928   3.851  0.00  0.00    +0.046 A 
ATOM     37  C   UNL     1       8.483   8.471   2.689  0.00  0.00    +0.120 A 
BRANCH  37   9
ATOM      9  O   UNL     1       8.416   9.208   1.546  0.00  0.00    -0.495 OA
ATOM     38  C   UNL     1       7.115   9.556   1.073  0.00  0.00    +0.277 C 
ENDBRANCH  37   9
ENDBRANCH  30  32
ENDBRANCH  29  30
ENDBRANCH  11  29
ENDBRANCH  21  27
BRANCH  21   1
ATOM      1  O   UNL     1      12.708   9.452   4.931  0.00  0.00    -0.379 OA
ATOM     40  H   UNL     1      12.196  10.039   5.513  0.00  0.00    +0.211 HD
ENDBRANCH  21   1
BRANCH  23   2
ATOM      2  O   UNL     1      16.512   7.411   3.561  0.00  0.00    -0.387 OA
ATOM     41  H   UNL     1      16.779   8.342   3.655  0.00  0.00    +0.210 HD
ENDBRANCH  23   2
BRANCH  24   3
ATOM      3  O   UNL     1      16.588   8.186   6.299  0.00  0.00    -0.389 OA
ATOM     42  H   UNL     1      16.342   7.698   7.104  0.00  0.00    +0.210 HD
ENDBRANCH  24   3
TORSDOF 15
ENDMDL
MODEL 3
REMARK VINA RESULT:      -6.2     24.708     28.103
REMARK  Name = 7134523
REMARK  16 active torsions:
REMARK  status: ('A' for Active; 'I' for Inactive)
REMARK    1  A    between atoms: O_1  and  C_21
REMARK    2  A    between atoms: O_2  and  C_23
REMARK    3  A    between atoms: O_3  and  C_24
REMARK    4  A    between atoms: O_5  and  C_28
REMARK    5  A    between atoms: O_9  and  C_37
REMARK    6  A    between atoms: O_9  and  C_38
REMARK    7  A    between atoms: N_10  and  C_19
REMARK    8  A    between atoms: N_11  and  C_29
REMARK    9  A    between atoms: C_13  and  C_18
REMARK   10  A    between atoms: C_13  and  C_20
REMARK   11  A    between atoms: C_18  and  C_26
REMARK   12  A    between atoms: C_20  and  C_28
REMARK   13  A    between atoms: C_21  and  C_27
REMARK   14  A    between atoms: C_29  and  C_30
REMARK   15  A    between atoms: C_29  and  C_31
REMARK   16  A    between atoms: C_30  and  C_32
REMARK                            x       y       z     vdW  Elec       q    Type
REMARK                         _______ _______ _______ _____ _____    ______ ____
ROOT
ATOM     19  C   UNL     1      -4.098 -12.151  15.185  0.00  0.00    +0.107 C 
ATOM     21  C   UNL     1      -5.723 -11.298  16.942  0.00  0.00    +0.146 C 
ATOM     22  C   UNL     1      -5.260 -11.198  15.488  0.00  0.00    +0.069 C 
ATOM     23  C   UNL     1      -4.427 -13.596  15.579  0.00  0.00    +0.163 C 
ATOM     24  C   UNL     1      -4.913 -13.700  17.026  0.00  0.00    +0.148 C 
ATOM     25  C   UNL     1      -6.068 -12.739  17.315  0.00  0.00    +0.078 C 
ENDROOT
BRANCH  19  10
ATOM      4  O   UNL     1      -2.298 -10.266  13.926  0.00  0.00    -0.276 OA
ATOM     10  N   UNL     1      -3.754 -12.072  13.782  0.00  0.00    -0.310 N 
ATOM     26  C   UNL     1      -2.877 -11.128  13.270  0.00  0.00    +0.214 C 
ATOM     39  H   UNL     1      -4.236 -12.699  13.145  0.00  0.00    +0.149 HD
BRANCH  26  18
ATOM     18  C   UNL     1      -2.704 -11.286  11.770  0.00  0.00    +0.103 C 
BRANCH  18  13
ATOM     13  C   UNL     1      -3.791 -10.560  10.974  0.00  0.00    -0.011 C 
ATOM     14  C   UNL     1      -3.260  -9.266  10.343  0.00  0.00    +0.008 C 
ATOM     15  C   UNL     1      -4.902 -10.027  11.889  0.00  0.00    +0.008 C 
ATOM     16  C   UNL     1      -4.497  -8.402  10.110  0.00  0.00    +0.001 C 
ATOM     17  C   UNL     1      -5.550  -8.889  11.104  0.00  0.00    +0.001 C 
BRANCH  13  20
ATOM     20  C   UNL     1      -4.357 -11.512   9.907  0.00  0.00    +0.127 C 
BRANCH  20  28
ATOM      7  O   UNL     1      -5.178 -13.308  11.337  0.00  0.00    -0.251 OA
ATOM     28  C   UNL     1      -4.462 -12.915  10.428  0.00  0.00    +0.305 C 
BRANCH  28   5
ATOM      5  O   UNL     1      -3.621 -13.719   9.728  0.00  0.00    -0.481 OA
ATOM     44  H   UNL     1      -3.948 -13.888   8.819  0.00  0.00    +0.295 HD
ENDBRANCH  28   5
ENDBRANCH  20  28
ENDBRANCH  13  20
ENDBRANCH  18  13
ENDBRANCH  26  18
ENDBRANCH  19  10
BRANCH  21  27
ATOM      6  O   UNL     1      -6.957  -9.264  16.729  0.00  0.00    -0.273 OA
ATOM     11  N   UNL     1      -7.871 -11.011  17.967  0.00  0.00    -0.301 N 
ATOM     27  C   UNL     1      -6.905 -10.405  17.182  0.00  0.00    +0.246 C 
ATOM     43  H   UNL     1      -7.718 -11.946  18.331  0.00  0.00    +0.150 HD
BRANCH  11  29
ATOM     29  C   UNL     1      -9.096 -10.354  18.361  0.00  0.00    +0.163 C 
BRANCH  29  31
ATOM      8  O   UNL     1      -9.035 -11.962  20.183  0.00  0.00    -0.274 OA
ATOM     12  N   UNL     1     -10.375 -10.108  20.398  0.00  0.00    -0.328 N 
ATOM     31  C   UNL     1      -9.489 -10.919  19.718  0.00  0.00    +0.231 C 
ATOM     45  H   UNL     1     -10.706 -10.361  21.323  0.00  0.00    +0.145 HD
ATOM     46  H   UNL     1     -10.740  -9.248  20.005  0.00  0.00    +0.145 HD
ENDBRANCH  29  31
BRANCH  29  30
ATOM     30  C   UNL     1     -10.222 -10.572  17.346  0.00  0.00    +0.067 C 
BRANCH  30  32
ATOM     32  C   UNL     1     -10.778  -9.278  16.804  0.00  0.00    -0.045 A 
ATOM     33  C   UNL     1     -10.258  -8.058  17.237  0.00  0.00    +0.007 A 
ATOM     34  C   UNL     1     -11.812  -9.302  15.868  0.00  0.00    +0.007 A 
ATOM     35  C   UNL     1     -10.772  -6.863  16.736  0.00  0.00    +0.046 A 
ATOM     36  C   UNL     1     -12.326  -8.106  15.366  0.00  0.00    +0.046 A 
ATOM     37  C   UNL     1     -11.806  -6.887  15.800  0.00  0.00    +0.120 A 
BRANCH  37   9
ATOM      9  O   UNL     1     -12.307  -5.720  15.310  0.00  0.00    -0.495 OA
ATOM     38  C   UNL     1     -12.240  -5.527  13.898  0.00  0.00    +0.277 C 
ENDBRANCH  37   9
ENDBRANCH  30  32
ENDBRANCH  29  30
ENDBRANCH  11  29
ENDBRANCH  21  27
BRANCH  21   1
ATOM      1  O   UNL     1      -4.714 -10.818  17.821  0.00  0.00    -0.379 OA
ATOM     40  H   UNL     1      -4.299 -11.581  18.259  0.00  0.00    +0.211 HD
ENDBRANCH  21   1
BRANCH  23   2
ATOM      2  O   UNL     1      -3.246 -14.394  15.461  0.00  0.00    -0.387 OA
ATOM     41  H   UNL     1      -3.519 -15.318  15.326  0.00  0.00    +0.210 HD
ENDBRANCH  23   2
BRANCH  24   3
ATOM      3  O   UNL     1      -5.357 -15.037  17.260  0.00  0.00    -0.389 OA
ATOM     42  H   UNL     1      -6.311 -15.001  17.445  0.00  0.00    +0.210 HD
ENDBRANCH  24   3
TORSDOF 15
ENDMDL
MODEL 4
REMARK VINA RESULT:      -6.1      2.480      7.115
REMARK  Name = 7134523
REMARK  16 active torsions:
REMARK  status: ('A' for Active; 'I' for Inactive)
REMARK    1  A    between atoms: O_1  and  C_21
REMARK    2  A    between atoms: O_2  and  C_23
REMARK    3  A    between atoms: O_3  and  C_24
REMARK    4  A    between atoms: O_5  and  C_28
REMARK    5  A    between atoms: O_9  and  C_37
REMARK    6  A    between atoms: O_9  and  C_38
REMARK    7  A    between atoms: N_10  and  C_19
REMARK    8  A    between atoms: N_11  and  C_29
REMARK    9  A    between atoms: C_13  and  C_18
REMARK   10  A    between atoms: C_13  and  C_20
REMARK   11  A    between atoms: C_18  and  C_26
REMARK   12  A    between atoms: C_20  and  C_28
REMARK   13  A    between atoms: C_21  and  C_27
REMARK   14  A    between atoms: C_29  and  C_30
REMARK   15  A    between atoms: C_29  and  C_31
REMARK   16  A    between atoms: C_30  and  C_32
REMARK                            x       y       z     vdW  Elec       q    Type
REMARK                         _______ _______ _______ _____ _____    ______ ____
ROOT
ATOM     19  C   UNL     1      13.578   7.759   5.249  0.00  0.00    +0.107 C 
ATOM     21  C   UNL     1      14.443   6.983   2.990  0.00  0.00    +0.146 C 
ATOM     22  C   UNL     1      13.253   7.013   3.950  0.00  0.00    +0.069 C 
ATOM     23  C   UNL     1      14.128   9.165   4.979  0.00  0.00    +0.163 C 
ATOM     24  C   UNL     1      15.304   9.143   4.001  0.00  0.00    +0.148 C 
ATOM     25  C   UNL     1      14.967   8.390   2.712  0.00  0.00    +0.078 C 
ENDROOT
BRANCH  19  10
ATOM      4  O   UNL     1      13.015   6.191   7.616  0.00  0.00    -0.276 OA
ATOM     10  N   UNL     1      12.398   7.825   6.083  0.00  0.00    -0.310 N 
ATOM     26  C   UNL     1      12.217   7.028   7.204  0.00  0.00    +0.214 C 
ATOM     39  H   UNL     1      11.647   8.439   5.785  0.00  0.00    +0.149 HD
BRANCH  26  18
ATOM     18  C   UNL     1      10.891   7.317   7.883  0.00  0.00    +0.103 C 
BRANCH  18  13
ATOM     13  C   UNL     1       9.740   6.493   7.300  0.00  0.00    -0.011 C 
ATOM     14  C   UNL     1      10.229   5.536   6.205  0.00  0.00    +0.008 C 
ATOM     15  C   UNL     1       8.751   7.374   6.524  0.00  0.00    +0.008 C 
ATOM     16  C   UNL     1       8.995   5.244   5.354  0.00  0.00    +0.001 C 
ATOM     17  C   UNL     1       8.047   6.424   5.558  0.00  0.00    +0.001 C 
BRANCH  13  20
ATOM     20  C   UNL     1       9.036   5.731   8.435  0.00  0.00    +0.127 C 
BRANCH  20  28
ATOM      7  O   UNL     1      10.465   5.118  10.314  0.00  0.00    -0.251 OA
ATOM     28  C   UNL     1      10.007   4.884   9.206  0.00  0.00    +0.305 C 
BRANCH  28   5
ATOM      5  O   UNL     1      10.319   3.782   8.477  0.00  0.00    -0.481 OA
ATOM     44  H   UNL     1       9.667   3.060   8.608  0.00  0.00    +0.295 HD
ENDBRANCH  28   5
ENDBRANCH  20  28
ENDBRANCH  13  20
ENDBRANCH  18  13
ENDBRANCH  26  18
ENDBRANCH  19  10
BRANCH  21  27
ATOM      6  O   UNL     1      14.779   6.374   0.705  0.00  0.00    -0.273 OA
ATOM     11  N   UNL     1      12.848   5.657   1.789  0.00  0.00    -0.301 N 
ATOM     27  C   UNL     1      14.065   6.309   1.703  0.00  0.00    +0.246 C 
ATOM     43  H   UNL     1      12.309   5.695   2.649  0.00  0.00    +0.150 HD
BRANCH  11  29
ATOM     29  C   UNL     1      12.249   4.949   0.681  0.00  0.00    +0.163 C 
BRANCH  29  31
ATOM      8  O   UNL     1      10.689   4.014   2.292  0.00  0.00    -0.274 OA
ATOM     12  N   UNL     1       9.919   4.534   0.191  0.00  0.00    -0.328 N 
ATOM     31  C   UNL     1      10.899   4.433   1.156  0.00  0.00    +0.231 C 
ATOM     45  H   UNL     1       8.967   4.240   0.384  0.00  0.00    +0.145 HD
ATOM     46  H   UNL     1      10.105   4.885  -0.743  0.00  0.00    +0.145 HD
ENDBRANCH  29  31
BRANCH  29  30
ATOM     30  C   UNL     1      13.123   3.788   0.195  0.00  0.00    +0.067 C 
BRANCH  30  32
ATOM     32  C   UNL     1      13.056   3.592  -1.299  0.00  0.00    -0.045 A 
ATOM     33  C   UNL     1      13.796   4.416  -2.147  0.00  0.00    +0.007 A 
ATOM     34  C   UNL     1      12.253   2.584  -1.834  0.00  0.00    +0.007 A 
ATOM     35  C   UNL     1      13.732   4.234  -3.528  0.00  0.00    +0.046 A 
ATOM     36  C   UNL     1      12.190   2.401  -3.215  0.00  0.00    +0.046 A 
ATOM     37  C   UNL     1      12.930   3.227  -4.062  0.00  0.00    +0.120 A 
BRANCH  37   9
ATOM      9  O   UNL     1      12.869   3.048  -5.410  0.00  0.00    -0.495 OA
ATOM     38  C   UNL     1      11.618   3.308  -6.044  0.00  0.00    +0.277 C 
ENDBRANCH  37   9
ENDBRANCH  30  32
ENDBRANCH  29  30
ENDBRANCH  11  29
ENDBRANCH  21  27
BRANCH  21   1
ATOM      1  O   UNL     1      15.496   6.191   3.526  0.00  0.00    -0.379 OA
ATOM     40  H   UNL     1      16.260   6.768   3.694  0.00  0.00    +0.211 HD
ENDBRANCH  21   1
BRANCH  23   2
ATOM      2  O   UNL     1      14.596   9.728   6.207  0.00  0.00    -0.387 OA
ATOM     41  H   UNL     1      14.915  10.629   6.023  0.00  0.00    +0.210 HD
ENDBRANCH  23   2
BRANCH  24   3
ATOM      3  O   UNL     1      15.645  10.490   3.672  0.00  0.00    -0.389 OA
ATOM     42  H   UNL     1      16.543  10.655   4.006  0.00  0.00    +0.210 HD
ENDBRANCH  24   3
TORSDOF 15
ENDMDL
MODEL 5
REMARK VINA RESULT:      -6.0     25.316     28.857
REMARK  Name = 7134523
REMARK  16 active torsions:
REMARK  status: ('A' for Active; 'I' for Inactive)
REMARK    1  A    between atoms: O_1  and  C_21
REMARK    2  A    between atoms: O_2  and  C_23
REMARK    3  A    between atoms: O_3  and  C_24
REMARK    4  A    between atoms: O_5  and  C_28
REMARK    5  A    between atoms: O_9  and  C_37
REMARK    6  A    between atoms: O_9  and  C_38
REMARK    7  A    between atoms: N_10  and  C_19
REMARK    8  A    between atoms: N_11  and  C_29
REMARK    9  A    between atoms: C_13  and  C_18
REMARK   10  A    between atoms: C_13  and  C_20
REMARK   11  A    between atoms: C_18  and  C_26
REMARK   12  A    between atoms: C_20  and  C_28
REMARK   13  A    between atoms: C_21  and  C_27
REMARK   14  A    between atoms: C_29  and  C_30
REMARK   15  A    between atoms: C_29  and  C_31
REMARK   16  A    between atoms: C_30  and  C_32
REMARK                            x       y       z     vdW  Elec       q    Type
REMARK                         _______ _______ _______ _____ _____    ______ ____
ROOT
ATOM     19  C   UNL     1      -5.304 -10.303  17.153  0.00  0.00    +0.107 C 
ATOM     21  C   UNL     1      -6.959 -11.062  18.926  0.00  0.00    +0.146 C 
ATOM     22  C   UNL     1      -6.781 -10.476  17.524  0.00  0.00    +0.069 C 
ATOM     23  C   UNL     1      -4.515 -11.606  17.331  0.00  0.00    +0.163 C 
ATOM     24  C   UNL     1      -4.706 -12.208  18.724  0.00  0.00    +0.148 C 
ATOM     25  C   UNL     1      -6.185 -12.369  19.082  0.00  0.00    +0.078 C 
ENDROOT
BRANCH  19  10
ATOM      4  O   UNL     1      -6.521 -11.444  14.788  0.00  0.00    -0.276 OA
ATOM     10  N   UNL     1      -5.195  -9.822  15.793  0.00  0.00    -0.310 N 
ATOM     26  C   UNL     1      -5.818 -10.439  14.720  0.00  0.00    +0.214 C 
ATOM     39  H   UNL     1      -4.576  -9.035  15.623  0.00  0.00    +0.149 HD
BRANCH  26  18
ATOM     18  C   UNL     1      -5.529  -9.714  13.418  0.00  0.00    +0.103 C 
BRANCH  18  13
ATOM     13  C   UNL     1      -4.758 -10.582  12.420  0.00  0.00    -0.011 C 
ATOM     14  C   UNL     1      -4.194  -9.746  11.264  0.00  0.00    +0.008 C 
ATOM     15  C   UNL     1      -5.687 -11.553  11.678  0.00  0.00    +0.008 C 
ATOM     16  C   UNL     1      -3.991 -10.738  10.120  0.00  0.00    +0.001 C 
ATOM     17  C   UNL     1      -4.951 -11.897  10.386  0.00  0.00    +0.001 C 
BRANCH  13  20
ATOM     20  C   UNL     1      -3.642 -11.336  13.162  0.00  0.00    +0.127 C 
BRANCH  20  28
ATOM      7  O   UNL     1      -1.617 -10.125  12.544  0.00  0.00    -0.251 OA
ATOM     28  C   UNL     1      -2.443 -10.458  13.380  0.00  0.00    +0.305 C 
BRANCH  28   5
ATOM      5  O   UNL     1      -2.400 -10.071  14.681  0.00  0.00    -0.481 OA
ATOM     44  H   UNL     1      -2.121 -10.802  15.272  0.00  0.00    +0.295 HD
ENDBRANCH  28   5
ENDBRANCH  20  28
ENDBRANCH  13  20
ENDBRANCH  18  13
ENDBRANCH  26  18
ENDBRANCH  19  10
BRANCH  21  27
ATOM      6  O   UNL     1      -8.966 -10.744  20.181  0.00  0.00    -0.273 OA
ATOM     11  N   UNL     1      -9.006 -12.157  18.331  0.00  0.00    -0.301 N 
ATOM     27  C   UNL     1      -8.413 -11.283  19.225  0.00  0.00    +0.246 C 
ATOM     43  H   UNL     1      -8.453 -12.587  17.596  0.00  0.00    +0.150 HD
BRANCH  11  29
ATOM     29  C   UNL     1     -10.393 -12.553  18.414  0.00  0.00    +0.163 C 
BRANCH  29  31
ATOM      8  O   UNL     1      -9.428 -14.748  18.809  0.00  0.00    -0.274 OA
ATOM     12  N   UNL     1     -11.685 -14.596  18.406  0.00  0.00    -0.328 N 
ATOM     31  C   UNL     1     -10.419 -14.068  18.551  0.00  0.00    +0.231 C 
ATOM     45  H   UNL     1     -11.844 -15.595  18.490  0.00  0.00    +0.145 HD
ATOM     46  H   UNL     1     -12.495 -14.024  18.196  0.00  0.00    +0.145 HD
ENDBRANCH  29  31
BRANCH  29  30
ATOM     30  C   UNL     1     -11.195 -12.114  17.184  0.00  0.00    +0.067 C 
BRANCH  30  32
ATOM     32  C   UNL     1     -10.903 -10.693  16.773  0.00  0.00    -0.045 A 
ATOM     33  C   UNL     1     -11.351  -9.631  17.560  0.00  0.00    +0.007 A 
ATOM     34  C   UNL     1     -10.184 -10.439  15.604  0.00  0.00    +0.007 A 
ATOM     35  C   UNL     1     -11.080  -8.318  17.178  0.00  0.00    +0.046 A 
ATOM     36  C   UNL     1      -9.913  -9.125  15.224  0.00  0.00    +0.046 A 
ATOM     37  C   UNL     1     -10.361  -8.064  16.011  0.00  0.00    +0.120 A 
BRANCH  37   9
ATOM      9  O   UNL     1     -10.096  -6.782  15.639  0.00  0.00    -0.495 OA
ATOM     38  C   UNL     1     -11.193  -5.869  15.625  0.00  0.00    +0.277 C 
ENDBRANCH  37   9
ENDBRANCH  30  32
ENDBRANCH  29  30
ENDBRANCH  11  29
ENDBRANCH  21  27
BRANCH  21   1
ATOM      1  O   UNL     1      -6.516 -10.137  19.913  0.00  0.00    -0.379 OA
ATOM     40  H   UNL     1      -6.057 -10.631  20.613  0.00  0.00    +0.211 HD
ENDBRANCH  21   1
BRANCH  23   2
ATOM      2  O   UNL     1      -3.120 -11.334  17.165  0.00  0.00    -0.387 OA
ATOM     41  H   UNL     1      -2.915 -10.509  17.640  0.00  0.00    +0.210 HD
ENDBRANCH  23   2
BRANCH  24   3
ATOM      3  O   UNL     1      -4.083 -13.492  18.751  0.00  0.00    -0.389 OA
ATOM     42  H   UNL     1      -3.121 -13.352  18.743  0.00  0.00    +0.210 HD
ENDBRANCH  24   3
TORSDOF 15
ENDMDL
MODEL 6
REMARK VINA RESULT:      -6.0     23.833     27.581
REMARK  Name = 7134523
REMARK  16 active torsions:
REMARK  status: ('A' for Active; 'I' for Inactive)
REMARK    1  A    between atoms: O_1  and  C_21
REMARK    2  A    between atoms: O_2  and  C_23
REMARK    3  A    between atoms: O_3  and  C_24
REMARK    4  A    between atoms: O_5  and  C_28
REMARK    5  A    between atoms: O_9  and  C_37
REMARK    6  A    between atoms: O_9  and  C_38
REMARK    7  A    between atoms: N_10  and  C_19
REMARK    8  A    between atoms: N_11  and  C_29
REMARK    9  A    between atoms: C_13  and  C_18
REMARK   10  A    between atoms: C_13  and  C_20
REMARK   11  A    between atoms: C_18  and  C_26
REMARK   12  A    between atoms: C_20  and  C_28
REMARK   13  A    between atoms: C_21  and  C_27
REMARK   14  A    between atoms: C_29  and  C_30
REMARK   15  A    between atoms: C_29  and  C_31
REMARK   16  A    between atoms: C_30  and  C_32
REMARK                            x       y       z     vdW  Elec       q    Type
REMARK                         _______ _______ _______ _____ _____    ______ ____
ROOT
ATOM     19  C   UNL     1      -4.094 -11.374  15.387  0.00  0.00    +0.107 C 
ATOM     21  C   UNL     1      -2.821 -11.147  13.200  0.00  0.00    +0.146 C 
ATOM     22  C   UNL     1      -4.147 -10.913  13.927  0.00  0.00    +0.069 C 
ATOM     23  C   UNL     1      -2.913 -10.750  16.141  0.00  0.00    +0.163 C 
ATOM     24  C   UNL     1      -1.587 -10.962  15.408  0.00  0.00    +0.148 C 
ATOM     25  C   UNL     1      -1.657 -10.502  13.950  0.00  0.00    +0.078 C 
ENDROOT
BRANCH  19  10
ATOM      4  O   UNL     1      -6.459 -13.035  15.548  0.00  0.00    -0.276 OA
ATOM     10  N   UNL     1      -5.343 -11.058  16.045  0.00  0.00    -0.310 N 
ATOM     26  C   UNL     1      -6.426 -11.922  16.068  0.00  0.00    +0.214 C 
ATOM     39  H   UNL     1      -5.440 -10.130  16.446  0.00  0.00    +0.149 HD
BRANCH  26  18
ATOM     18  C   UNL     1      -7.596 -11.328  16.831  0.00  0.00    +0.103 C 
BRANCH  18  13
ATOM     13  C   UNL     1      -7.875 -12.061  18.145  0.00  0.00    -0.011 C 
ATOM     14  C   UNL     1      -8.773 -13.286  17.929  0.00  0.00    +0.008 C 
ATOM     15  C   UNL     1      -8.731 -11.212  19.096  0.00  0.00    +0.008 C 
ATOM     16  C   UNL     1      -9.421 -13.547  19.287  0.00  0.00    +0.001 C 
ATOM     17  C   UNL     1      -9.394 -12.216  20.035  0.00  0.00    +0.001 C 
BRANCH  13  20
ATOM     20  C   UNL     1      -6.540 -12.455  18.799  0.00  0.00    +0.127 C 
BRANCH  20  28
ATOM      7  O   UNL     1      -5.372 -10.319  18.945  0.00  0.00    -0.251 OA
ATOM     28  C   UNL     1      -5.901 -11.281  19.482  0.00  0.00    +0.305 C 
BRANCH  28   5
ATOM      5  O   UNL     1      -5.991 -11.440  20.827  0.00  0.00    -0.481 OA
ATOM     44  H   UNL     1      -5.811 -10.604  21.308  0.00  0.00    +0.295 HD
ENDBRANCH  28   5
ENDBRANCH  20  28
ENDBRANCH  13  20
ENDBRANCH  18  13
ENDBRANCH  26  18
ENDBRANCH  19  10
BRANCH  21  27
ATOM      6  O   UNL     1      -2.034  -9.856  11.351  0.00  0.00    -0.273 OA
ATOM     11  N   UNL     1      -4.006 -11.070  11.118  0.00  0.00    -0.301 N 
ATOM     27  C   UNL     1      -2.888 -10.619  11.797  0.00  0.00    +0.246 C 
ATOM     43  H   UNL     1      -4.680 -11.667  11.588  0.00  0.00    +0.150 HD
BRANCH  11  29
ATOM     29  C   UNL     1      -4.314 -10.689   9.759  0.00  0.00    +0.163 C 
BRANCH  29  31
ATOM      8  O   UNL     1      -5.832  -9.029  10.679  0.00  0.00    -0.274 OA
ATOM     12  N   UNL     1      -4.579  -8.470   8.836  0.00  0.00    -0.328 N 
ATOM     31  C   UNL     1      -5.009  -9.337   9.820  0.00  0.00    +0.231 C 
ATOM     45  H   UNL     1      -4.951  -7.529   8.775  0.00  0.00    +0.145 HD
ATOM     46  H   UNL     1      -3.896  -8.736   8.135  0.00  0.00    +0.145 HD
ENDBRANCH  29  31
BRANCH  29  30
ATOM     30  C   UNL     1      -5.208 -11.717   9.058  0.00  0.00    +0.067 C 
BRANCH  30  32
ATOM     32  C   UNL     1      -4.641 -12.180   7.739  0.00  0.00    -0.045 A 
ATOM     33  C   UNL     1      -4.805 -11.399   6.594  0.00  0.00    +0.007 A 
ATOM     34  C   UNL     1      -3.952 -13.391   7.663  0.00  0.00    +0.007 A 
ATOM     35  C   UNL     1      -4.280 -11.828   5.376  0.00  0.00    +0.046 A 
ATOM     36  C   UNL     1      -3.427 -13.820   6.444  0.00  0.00    +0.046 A 
ATOM     37  C   UNL     1      -3.591 -13.038   5.300  0.00  0.00    +0.120 A 
BRANCH  37   9
ATOM      9  O   UNL     1      -3.078 -13.456   4.110  0.00  0.00    -0.495 OA
ATOM     38  C   UNL     1      -3.217 -12.575   2.997  0.00  0.00    +0.277 C 
ENDBRANCH  37   9
ENDBRANCH  30  32
ENDBRANCH  29  30
ENDBRANCH  11  29
ENDBRANCH  21  27
BRANCH  21   1
ATOM      1  O   UNL     1      -2.570 -12.540  13.058  0.00  0.00    -0.379 OA
ATOM     40  H   UNL     1      -1.778 -12.764  13.577  0.00  0.00    +0.211 HD
ENDBRANCH  21   1
BRANCH  23   2
ATOM      2  O   UNL     1      -2.800 -11.367  17.427  0.00  0.00    -0.387 OA
ATOM     41  H   UNL     1      -3.681 -11.365  17.840  0.00  0.00    +0.210 HD
ENDBRANCH  23   2
BRANCH  24   3
ATOM      3  O   UNL     1      -0.574 -10.212  16.079  0.00  0.00    -0.389 OA
ATOM     42  H   UNL     1      -0.384  -9.426  15.539  0.00  0.00    +0.210 HD
ENDBRANCH  24   3
TORSDOF 15
ENDMDL
MODEL 7
REMARK VINA RESULT:      -5.7     24.322     27.206
REMARK  Name = 7134523
REMARK  16 active torsions:
REMARK  status: ('A' for Active; 'I' for Inactive)
REMARK    1  A    between atoms: O_1  and  C_21
REMARK    2  A    between atoms: O_2  and  C_23
REMARK    3  A    between atoms: O_3  and  C_24
REMARK    4  A    between atoms: O_5  and  C_28
REMARK    5  A    between atoms: O_9  and  C_37
REMARK    6  A    between atoms: O_9  and  C_38
REMARK    7  A    between atoms: N_10  and  C_19
REMARK    8  A    between atoms: N_11  and  C_29
REMARK    9  A    between atoms: C_13  and  C_18
REMARK   10  A    between atoms: C_13  and  C_20
REMARK   11  A    between atoms: C_18  and  C_26
REMARK   12  A    between atoms: C_20  and  C_28
REMARK   13  A    between atoms: C_21  and  C_27
REMARK   14  A    between atoms: C_29  and  C_30
REMARK   15  A    between atoms: C_29  and  C_31
REMARK   16  A    between atoms: C_30  and  C_32
REMARK                            x       y       z     vdW  Elec       q    Type
REMARK                         _______ _______ _______ _____ _____    ______ ____
ROOT
ATOM     19  C   UNL     1      -5.829 -10.003  12.543  0.00  0.00    +0.107 C 
ATOM     21  C   UNL     1      -7.166  -9.600  10.420  0.00  0.00    +0.146 C 
ATOM     22  C   UNL     1      -7.071  -9.350  11.926  0.00  0.00    +0.069 C 
ATOM     23  C   UNL     1      -4.545  -9.587  11.814  0.00  0.00    +0.163 C 
ATOM     24  C   UNL     1      -4.642  -9.814  10.304  0.00  0.00    +0.148 C 
ATOM     25  C   UNL     1      -5.890  -9.163   9.704  0.00  0.00    +0.078 C 
ENDROOT
BRANCH  19  10
ATOM      4  O   UNL     1      -4.829 -11.672  14.685  0.00  0.00    -0.276 OA
ATOM     10  N   UNL     1      -5.748  -9.669  13.948  0.00  0.00    -0.310 N 
ATOM     26  C   UNL     1      -5.252 -10.540  14.905  0.00  0.00    +0.214 C 
ATOM     39  H   UNL     1      -6.139  -8.779  14.241  0.00  0.00    +0.149 HD
BRANCH  26  18
ATOM     18  C   UNL     1      -5.286  -9.922  16.291  0.00  0.00    +0.103 C 
BRANCH  18  13
ATOM     13  C   UNL     1      -6.517 -10.347  17.095  0.00  0.00    -0.011 C 
ATOM     14  C   UNL     1      -7.248 -11.520  16.429  0.00  0.00    +0.008 C 
ATOM     15  C   UNL     1      -7.600  -9.259  17.086  0.00  0.00    +0.008 C 
ATOM     16  C   UNL     1      -8.678 -11.448  16.960  0.00  0.00    +0.001 C 
ATOM     17  C   UNL     1      -8.904  -9.997  17.381  0.00  0.00    +0.001 C 
BRANCH  13  20
ATOM     20  C   UNL     1      -6.089 -10.696  18.529  0.00  0.00    +0.127 C 
BRANCH  20  28
ATOM      7  O   UNL     1      -3.840 -11.635  18.427  0.00  0.00    -0.251 OA
ATOM     28  C   UNL     1      -5.049 -11.778  18.540  0.00  0.00    +0.305 C 
BRANCH  28   5
ATOM      5  O   UNL     1      -5.654 -12.983  18.696  0.00  0.00    -0.481 OA
ATOM     44  H   UNL     1      -5.004 -13.707  18.821  0.00  0.00    +0.295 HD
ENDBRANCH  28   5
ENDBRANCH  20  28
ENDBRANCH  13  20
ENDBRANCH  18  13
ENDBRANCH  26  18
ENDBRANCH  19  10
BRANCH  21  27
ATOM      6  O   UNL     1      -9.474  -8.991  10.334  0.00  0.00    -0.273 OA
ATOM     11  N   UNL     1      -8.028  -8.156   8.712  0.00  0.00    -0.301 N 
ATOM     27  C   UNL     1      -8.353  -8.888   9.840  0.00  0.00    +0.246 C 
ATOM     43  H   UNL     1      -7.078  -8.167   8.354  0.00  0.00    +0.150 HD
BRANCH  11  29
ATOM     29  C   UNL     1      -8.996  -7.397   7.955  0.00  0.00    +0.163 C 
BRANCH  29  31
ATOM      8  O   UNL     1      -9.666  -8.124   5.735  0.00  0.00    -0.274 OA
ATOM     12  N   UNL     1      -7.482  -7.496   6.073  0.00  0.00    -0.328 N 
ATOM     31  C   UNL     1      -8.777  -7.731   6.486  0.00  0.00    +0.231 C 
ATOM     45  H   UNL     1      -7.206  -7.662   5.111  0.00  0.00    +0.145 HD
ATOM     46  H   UNL     1      -6.758  -7.168   6.703  0.00  0.00    +0.145 HD
ENDBRANCH  29  31
BRANCH  29  30
ATOM     30  C   UNL     1      -8.859  -5.889   8.186  0.00  0.00    +0.067 C 
BRANCH  30  32
ATOM     32  C   UNL     1     -10.072  -5.288   8.852  0.00  0.00    -0.045 A 
ATOM     33  C   UNL     1     -10.199  -3.902   8.955  0.00  0.00    +0.007 A 
ATOM     34  C   UNL     1     -11.068  -6.118   9.366  0.00  0.00    +0.007 A 
ATOM     35  C   UNL     1     -11.320  -3.348   9.571  0.00  0.00    +0.046 A 
ATOM     36  C   UNL     1     -12.190  -5.564   9.982  0.00  0.00    +0.046 A 
ATOM     37  C   UNL     1     -12.316  -4.178  10.084  0.00  0.00    +0.120 A 
BRANCH  37   9
ATOM      9  O   UNL     1     -13.411  -3.637  10.685  0.00  0.00    -0.495 OA
ATOM     38  C   UNL     1     -13.427  -3.619  12.111  0.00  0.00    +0.277 C 
ENDBRANCH  37   9
ENDBRANCH  30  32
ENDBRANCH  29  30
ENDBRANCH  11  29
ENDBRANCH  21  27
BRANCH  21   1
ATOM      1  O   UNL     1      -7.399 -10.979  10.157  0.00  0.00    -0.379 OA
ATOM     40  H   UNL     1      -6.681 -11.494  10.563  0.00  0.00    +0.211 HD
ENDBRANCH  21   1
BRANCH  23   2
ATOM      2  O   UNL     1      -3.455 -10.376  12.301  0.00  0.00    -0.387 OA
ATOM     41  H   UNL     1      -2.628  -9.989  11.962  0.00  0.00    +0.210 HD
ENDBRANCH  23   2
BRANCH  24   3
ATOM      3  O   UNL     1      -3.485  -9.250   9.686  0.00  0.00    -0.389 OA
ATOM     42  H   UNL     1      -3.787  -8.546   9.086  0.00  0.00    +0.210 HD
ENDBRANCH  24   3
TORSDOF 15
ENDMDL
MODEL 8
REMARK VINA RESULT:      -5.7     24.918     29.134
REMARK  Name = 7134523
REMARK  16 active torsions:
REMARK  status: ('A' for Active; 'I' for Inactive)
REMARK    1  A    between atoms: O_1  and  C_21
REMARK    2  A    between atoms: O_2  and  C_23
REMARK    3  A    between atoms: O_3  and  C_24
REMARK    4  A    between atoms: O_5  and  C_28
REMARK    5  A    between atoms: O_9  and  C_37
REMARK    6  A    between atoms: O_9  and  C_38
REMARK    7  A    between atoms: N_10  and  C_19
REMARK    8  A    between atoms: N_11  and  C_29
REMARK    9  A    between atoms: C_13  and  C_18
REMARK   10  A    between atoms: C_13  and  C_20
REMARK   11  A    between atoms: C_18  and  C_26
REMARK   12  A    between atoms: C_20  and  C_28
REMARK   13  A    between atoms: C_21  and  C_27
REMARK   14  A    between atoms: C_29  and  C_30
REMARK   15  A    between atoms: C_29  and  C_31
REMARK   16  A    between atoms: C_30  and  C_32
REMARK                            x       y       z     vdW  Elec       q    Type
REMARK                         _______ _______ _______ _____ _____    ______ ____
ROOT
ATOM     19  C   UNL     1      -7.832 -10.954  17.740  0.00  0.00    +0.107 C 
ATOM     21  C   UNL     1      -5.795 -12.348  17.135  0.00  0.00    +0.146 C 
ATOM     22  C   UNL     1      -6.747 -11.235  16.694  0.00  0.00    +0.069 C 
ATOM     23  C   UNL     1      -7.231 -10.674  19.123  0.00  0.00    +0.163 C 
ATOM     24  C   UNL     1      -6.261 -11.773  19.561  0.00  0.00    +0.148 C 
ATOM     25  C   UNL     1      -5.189 -12.047  18.504  0.00  0.00    +0.078 C 
ENDROOT
BRANCH  19  10
ATOM      4  O   UNL     1     -10.660 -10.573  18.221  0.00  0.00    -0.276 OA
ATOM     10  N   UNL     1      -8.652  -9.844  17.307  0.00  0.00    -0.310 N 
ATOM     26  C   UNL     1     -10.006  -9.749  17.587  0.00  0.00    +0.214 C 
ATOM     39  H   UNL     1      -8.217  -9.143  16.714  0.00  0.00    +0.149 HD
BRANCH  26  18
ATOM     18  C   UNL     1     -10.606  -8.479  17.011  0.00  0.00    +0.103 C 
BRANCH  18  13
ATOM     13  C   UNL     1     -11.371  -8.728  15.709  0.00  0.00    -0.011 C 
ATOM     14  C   UNL     1     -12.879  -8.865  15.958  0.00  0.00    +0.008 C 
ATOM     15  C   UNL     1     -11.029 -10.097  15.105  0.00  0.00    +0.008 C 
ATOM     16  C   UNL     1     -13.407  -9.655  14.762  0.00  0.00    +0.001 C 
ATOM     17  C   UNL     1     -12.220 -10.447  14.216  0.00  0.00    +0.001 C 
BRANCH  13  20
ATOM     20  C   UNL     1     -11.069  -7.591  14.719  0.00  0.00    +0.127 C 
BRANCH  20  28
ATOM      7  O   UNL     1     -11.967  -5.658  15.905  0.00  0.00    -0.251 OA
ATOM     28  C   UNL     1     -11.024  -6.261  15.414  0.00  0.00    +0.305 C 
BRANCH  28   5
ATOM      5  O   UNL     1      -9.747  -5.800  15.423  0.00  0.00    -0.481 OA
ATOM     44  H   UNL     1      -9.582  -5.193  16.175  0.00  0.00    +0.295 HD
ENDBRANCH  28   5
ENDBRANCH  20  28
ENDBRANCH  13  20
ENDBRANCH  18  13
ENDBRANCH  26  18
ENDBRANCH  19  10
BRANCH  21  27
ATOM      6  O   UNL     1      -4.534 -13.625  15.559  0.00  0.00    -0.273 OA
ATOM     11  N   UNL     1      -3.950 -11.403  15.933  0.00  0.00    -0.301 N 
ATOM     27  C   UNL     1      -4.708 -12.546  16.120  0.00  0.00    +0.246 C 
ATOM     43  H   UNL     1      -4.144 -10.568  16.477  0.00  0.00    +0.150 HD
BRANCH  11  29
ATOM     29  C   UNL     1      -2.827 -11.338  15.026  0.00  0.00    +0.163 C 
BRANCH  29  31
ATOM      8  O   UNL     1      -0.801 -10.031  15.324  0.00  0.00    -0.274 OA
ATOM     12  N   UNL     1      -1.666 -11.145  17.138  0.00  0.00    -0.328 N 
ATOM     31  C   UNL     1      -1.651 -10.774  15.809  0.00  0.00    +0.231 C 
ATOM     45  H   UNL     1      -0.946 -10.823  17.775  0.00  0.00    +0.145 HD
ATOM     46  H   UNL     1      -2.376 -11.757  17.526  0.00  0.00    +0.145 HD
ENDBRANCH  29  31
BRANCH  29  30
ATOM     30  C   UNL     1      -3.122 -10.464  13.802  0.00  0.00    +0.067 C 
BRANCH  30  32
ATOM     32  C   UNL     1      -3.358 -11.272  12.551  0.00  0.00    -0.045 A 
ATOM     33  C   UNL     1      -3.788 -10.643  11.382  0.00  0.00    +0.007 A 
ATOM     34  C   UNL     1      -3.147 -12.651  12.562  0.00  0.00    +0.007 A 
ATOM     35  C   UNL     1      -4.006 -11.391  10.226  0.00  0.00    +0.046 A 
ATOM     36  C   UNL     1      -3.364 -13.400  11.405  0.00  0.00    +0.046 A 
ATOM     37  C   UNL     1      -3.794 -12.769  10.237  0.00  0.00    +0.120 A 
BRANCH  37   9
ATOM      9  O   UNL     1      -4.006 -13.500   9.108  0.00  0.00    -0.495 OA
ATOM     38  C   UNL     1      -4.267 -14.893   9.274  0.00  0.00    +0.277 C 
ENDBRANCH  37   9
ENDBRANCH  30  32
ENDBRANCH  29  30
ENDBRANCH  11  29
ENDBRANCH  21  27
BRANCH  21   1
ATOM      1  O   UNL     1      -6.478 -13.595  17.192  0.00  0.00    -0.379 OA
ATOM     40  H   UNL     1      -7.434 -13.424  17.147  0.00  0.00    +0.211 HD
ENDBRANCH  21   1
BRANCH  23   2
ATOM      2  O   UNL     1      -8.286 -10.619  20.088  0.00  0.00    -0.387 OA
ATOM     41  H   UNL     1      -7.970 -10.104  20.851  0.00  0.00    +0.210 HD
ENDBRANCH  23   2
BRANCH  24   3
ATOM      3  O   UNL     1      -5.623 -11.359  20.769  0.00  0.00    -0.389 OA
ATOM     42  H   UNL     1      -5.352 -12.161  21.248  0.00  0.00    +0.210 HD
ENDBRANCH  24   3
TORSDOF 15
ENDMDL
MODEL 9
REMARK VINA RESULT:      -5.7     24.569     27.577
REMARK  Name = 7134523
REMARK  16 active torsions:
REMARK  status: ('A' for Active; 'I' for Inactive)
REMARK    1  A    between atoms: O_1  and  C_21
REMARK    2  A    between atoms: O_2  and  C_23
REMARK    3  A    between atoms: O_3  and  C_24
REMARK    4  A    between atoms: O_5  and  C_28
REMARK    5  A    between atoms: O_9  and  C_37
REMARK    6  A    between atoms: O_9  and  C_38
REMARK    7  A    between atoms: N_10  and  C_19
REMARK    8  A    between atoms: N_11  and  C_29
REMARK    9  A    between atoms: C_13  and  C_18
REMARK   10  A    between atoms: C_13  and  C_20
REMARK   11  A    between atoms: C_18  and  C_26
REMARK   12  A    between atoms: C_20  and  C_28
REMARK   13  A    between atoms: C_21  and  C_27
REMARK   14  A    between atoms: C_29  and  C_30
REMARK   15  A    between atoms: C_29  and  C_31
REMARK   16  A    between atoms: C_30  and  C_32
REMARK                            x       y       z     vdW  Elec       q    Type
REMARK                         _______ _______ _______ _____ _____    ______ ____
ROOT
ATOM     19  C   UNL     1      -4.034 -11.160  15.793  0.00  0.00    +0.107 C 
ATOM     21  C   UNL     1      -3.251 -11.400  13.388  0.00  0.00    +0.146 C 
ATOM     22  C   UNL     1      -4.329 -10.849  14.322  0.00  0.00    +0.069 C 
ATOM     23  C   UNL     1      -2.632 -10.694  16.204  0.00  0.00    +0.163 C 
ATOM     24  C   UNL     1      -1.551 -11.224  15.261  0.00  0.00    +0.148 C 
ATOM     25  C   UNL     1      -1.862 -10.912  13.796  0.00  0.00    +0.078 C 
ENDROOT
BRANCH  19  10
ATOM      4  O   UNL     1      -6.002 -12.510  17.430  0.00  0.00    -0.276 OA
ATOM     10  N   UNL     1      -5.041 -10.550  16.633  0.00  0.00    -0.310 N 
ATOM     26  C   UNL     1      -5.945 -11.284  17.385  0.00  0.00    +0.214 C 
ATOM     39  H   UNL     1      -5.121  -9.538  16.609  0.00  0.00    +0.149 HD
BRANCH  26  18
ATOM     18  C   UNL     1      -6.879 -10.380  18.169  0.00  0.00    +0.103 C 
BRANCH  18  13
ATOM     13  C   UNL     1      -8.248 -10.229  17.502  0.00  0.00    -0.011 C 
ATOM     14  C   UNL     1      -8.180 -10.527  15.999  0.00  0.00    +0.008 C 
ATOM     15  C   UNL     1      -8.722  -8.768  17.508  0.00  0.00    +0.008 C 
ATOM     16  C   UNL     1      -9.382  -9.803  15.396  0.00  0.00    +0.001 C 
ATOM     17  C   UNL     1      -9.729  -8.673  16.365  0.00  0.00    +0.001 C 
BRANCH  13  20
ATOM     20  C   UNL     1      -9.260 -11.146  18.209  0.00  0.00    +0.127 C 
BRANCH  20  28
ATOM      7  O   UNL     1      -8.159 -12.160  20.135  0.00  0.00    -0.251 OA
ATOM     28  C   UNL     1      -8.913 -11.325  19.658  0.00  0.00    +0.305 C 
BRANCH  28   5
ATOM      5  O   UNL     1      -9.577 -10.399  20.397  0.00  0.00    -0.481 OA
ATOM     44  H   UNL     1      -9.035  -9.595  20.549  0.00  0.00    +0.295 HD
ENDBRANCH  28   5
ENDBRANCH  20  28
ENDBRANCH  13  20
ENDBRANCH  18  13
ENDBRANCH  26  18
ENDBRANCH  19  10
BRANCH  21  27
ATOM      6  O   UNL     1      -2.661 -11.028  11.103  0.00  0.00    -0.273 OA
ATOM     11  N   UNL     1      -4.855 -10.638  11.779  0.00  0.00    -0.301 N 
ATOM     27  C   UNL     1      -3.536 -11.015  11.966  0.00  0.00    +0.246 C 
ATOM     43  H   UNL     1      -5.496 -10.619  12.566  0.00  0.00    +0.150 HD
BRANCH  11  29
ATOM     29  C   UNL     1      -5.379 -10.201  10.505  0.00  0.00    +0.163 C 
BRANCH  29  31
ATOM      8  O   UNL     1      -6.445  -8.483  11.853  0.00  0.00    -0.274 OA
ATOM     12  N   UNL     1      -7.202  -8.826   9.711  0.00  0.00    -0.328 N 
ATOM     31  C   UNL     1      -6.388  -9.098  10.791  0.00  0.00    +0.231 C 
ATOM     45  H   UNL     1      -7.909  -8.100   9.764  0.00  0.00    +0.145 HD
ATOM     46  H   UNL     1      -7.143  -9.340   8.839  0.00  0.00    +0.145 HD
ENDBRANCH  29  31
BRANCH  29  30
ATOM     30  C   UNL     1      -6.043 -11.344   9.730  0.00  0.00    +0.067 C 
BRANCH  30  32
ATOM     32  C   UNL     1      -5.370 -11.621   8.408  0.00  0.00    -0.045 A 
ATOM     33  C   UNL     1      -4.499 -12.703   8.280  0.00  0.00    +0.007 A 
ATOM     34  C   UNL     1      -5.620 -10.794   7.312  0.00  0.00    +0.007 A 
ATOM     35  C   UNL     1      -3.878 -12.958   7.058  0.00  0.00    +0.046 A 
ATOM     36  C   UNL     1      -4.999 -11.050   6.090  0.00  0.00    +0.046 A 
ATOM     37  C   UNL     1      -4.127 -12.132   5.963  0.00  0.00    +0.120 A 
BRANCH  37   9
ATOM      9  O   UNL     1      -3.522 -12.381   4.770  0.00  0.00    -0.495 OA
ATOM     38  C   UNL     1      -4.367 -12.519   3.629  0.00  0.00    +0.277 C 
ENDBRANCH  37   9
ENDBRANCH  30  32
ENDBRANCH  29  30
ENDBRANCH  11  29
ENDBRANCH  21  27
BRANCH  21   1
ATOM      1  O   UNL     1      -3.264 -12.823  13.394  0.00  0.00    -0.379 OA
ATOM     40  H   UNL     1      -3.871 -13.121  14.094  0.00  0.00    +0.211 HD
ENDBRANCH  21   1
BRANCH  23   2
ATOM      2  O   UNL     1      -2.342 -11.187  17.516  0.00  0.00    -0.387 OA
ATOM     41  H   UNL     1      -2.628 -12.116  17.559  0.00  0.00    +0.210 HD
ENDBRANCH  23   2
BRANCH  24   3
ATOM      3  O   UNL     1      -0.308 -10.613  15.608  0.00  0.00    -0.389 OA
ATOM     42  H   UNL     1       0.225 -11.278  16.078  0.00  0.00    +0.210 HD
ENDBRANCH  24   3
TORSDOF 15
ENDMDL
MODEL 10
REMARK VINA RESULT:      -5.7     23.823     27.122
REMARK  Name = 7134523
REMARK  16 active torsions:
REMARK  status: ('A' for Active; 'I' for Inactive)
REMARK    1  A    between atoms: O_1  and  C_21
REMARK    2  A    between atoms: O_2  and  C_23
REMARK    3  A    between atoms: O_3  and  C_24
REMARK    4  A    between atoms: O_5  and  C_28
REMARK    5  A    between atoms: O_9  and  C_37
REMARK    6  A    between atoms: O_9  and  C_38
REMARK    7  A    between atoms: N_10  and  C_19
REMARK    8  A    between atoms: N_11  and  C_29
REMARK    9  A    between atoms: C_13  and  C_18
REMARK   10  A    between atoms: C_13  and  C_20
REMARK   11  A    between atoms: C_18  and  C_26
REMARK   12  A    between atoms: C_20  and  C_28
REMARK   13  A    between atoms: C_21  and  C_27
REMARK   14  A    between atoms: C_29  and  C_30
REMARK   15  A    between atoms: C_29  and  C_31
REMARK   16  A    between atoms: C_30  and  C_32
REMARK                            x       y       z     vdW  Elec       q    Type
REMARK                         _______ _______ _______ _____ _____    ______ ____
ROOT
ATOM     19  C   UNL     1      -3.920 -11.822  14.682  0.00  0.00    +0.107 C 
ATOM     21  C   UNL     1      -2.684 -11.090  12.586  0.00  0.00    +0.146 C 
ATOM     22  C   UNL     1      -4.047 -11.367  13.224  0.00  0.00    +0.069 C 
ATOM     23  C   UNL     1      -3.089 -10.840  15.517  0.00  0.00    +0.163 C 
ATOM     24  C   UNL     1      -1.734 -10.542  14.872  0.00  0.00    +0.148 C 
ATOM     25  C   UNL     1      -1.876 -10.095  13.416  0.00  0.00    +0.078 C 
ENDROOT
BRANCH  19  10
ATOM      4  O   UNL     1      -5.954  -9.793  15.034  0.00  0.00    -0.276 OA
ATOM     10  N   UNL     1      -5.236 -11.992  15.257  0.00  0.00    -0.310 N 
ATOM     26  C   UNL     1      -6.147 -10.954  15.385  0.00  0.00    +0.214 C 
ATOM     39  H   UNL     1      -5.465 -12.904  15.642  0.00  0.00    +0.149 HD
BRANCH  26  18
ATOM     18  C   UNL     1      -7.443 -11.426  16.018  0.00  0.00    +0.103 C 
BRANCH  18  13
ATOM     13  C   UNL     1      -7.464 -11.223  17.535  0.00  0.00    -0.011 C 
ATOM     14  C   UNL     1      -6.322 -10.308  17.998  0.00  0.00    +0.008 C 
ATOM     15  C   UNL     1      -7.143 -12.524  18.284  0.00  0.00    +0.008 C 
ATOM     16  C   UNL     1      -6.108 -10.655  19.469  0.00  0.00    +0.001 C 
ATOM     17  C   UNL     1      -6.634 -12.078  19.653  0.00  0.00    +0.001 C 
BRANCH  13  20
ATOM     20  C   UNL     1      -8.833 -10.662  17.952  0.00  0.00    +0.127 C 
BRANCH  20  28
ATOM      7  O   UNL     1      -8.741  -8.498  16.831  0.00  0.00    -0.251 OA
ATOM     28  C   UNL     1      -9.284  -9.576  17.018  0.00  0.00    +0.305 C 
BRANCH  28   5
ATOM      5  O   UNL     1     -10.421  -9.969  16.388  0.00  0.00    -0.481 OA
ATOM     44  H   UNL     1     -11.138  -9.307  16.479  0.00  0.00    +0.295 HD
ENDBRANCH  28   5
ENDBRANCH  20  28
ENDBRANCH  13  20
ENDBRANCH  18  13
ENDBRANCH  26  18
ENDBRANCH  19  10
BRANCH  21  27
ATOM      6  O   UNL     1      -2.202  -9.626  10.762  0.00  0.00    -0.273 OA
ATOM     11  N   UNL     1      -3.812 -11.284  10.480  0.00  0.00    -0.301 N 
ATOM     27  C   UNL     1      -2.851 -10.579  11.185  0.00  0.00    +0.246 C 
ATOM     43  H   UNL     1      -4.328 -12.032  10.932  0.00  0.00    +0.150 HD
BRANCH  11  29
ATOM     29  C   UNL     1      -4.178 -10.975   9.117  0.00  0.00    +0.163 C 
BRANCH  29  31
ATOM      8  O   UNL     1      -6.259  -9.804   9.572  0.00  0.00    -0.274 OA
ATOM     12  N   UNL     1      -4.481  -8.605   8.749  0.00  0.00    -0.328 N 
ATOM     31  C   UNL     1      -5.100  -9.765   9.164  0.00  0.00    +0.231 C 
ATOM     45  H   UNL     1      -4.980  -7.722   8.747  0.00  0.00    +0.145 HD
ATOM     46  H   UNL     1      -3.522  -8.585   8.417  0.00  0.00    +0.145 HD
ENDBRANCH  29  31
BRANCH  29  30
ATOM     30  C   UNL     1      -4.875 -12.151   8.424  0.00  0.00    +0.067 C 
BRANCH  30  32
ATOM     32  C   UNL     1      -4.568 -12.224   6.949  0.00  0.00    -0.045 A 
ATOM     33  C   UNL     1      -5.433 -11.637   6.025  0.00  0.00    +0.007 A 
ATOM     34  C   UNL     1      -3.418 -12.879   6.508  0.00  0.00    +0.007 A 
ATOM     35  C   UNL     1      -5.148 -11.705   4.661  0.00  0.00    +0.046 A 
ATOM     36  C   UNL     1      -3.133 -12.947   5.144  0.00  0.00    +0.046 A 
ATOM     37  C   UNL     1      -3.999 -12.360   4.221  0.00  0.00    +0.120 A 
BRANCH  37   9
ATOM      9  O   UNL     1      -3.720 -12.425   2.890  0.00  0.00    -0.495 OA
ATOM     38  C   UNL     1      -3.300 -13.688   2.376  0.00  0.00    +0.277 C 
ENDBRANCH  37   9
ENDBRANCH  30  32
ENDBRANCH  29  30
ENDBRANCH  11  29
ENDBRANCH  21  27
BRANCH  21   1
ATOM      1  O   UNL     1      -1.942 -12.297  12.452  0.00  0.00    -0.379 OA
ATOM     40  H   UNL     1      -1.960 -12.765  13.304  0.00  0.00    +0.211 HD
ENDBRANCH  21   1
BRANCH  23   2
ATOM      2  O   UNL     1      -2.839 -11.414  16.803  0.00  0.00    -0.387 OA
ATOM     41  H   UNL     1      -2.317 -10.776  17.321  0.00  0.00    +0.210 HD
ENDBRANCH  23   2
BRANCH  24   3
ATOM      3  O   UNL     1      -1.099  -9.500  15.614  0.00  0.00    -0.389 OA
ATOM     42  H   UNL     1      -0.648  -9.912  16.371  0.00  0.00    +0.210 HD
ENDBRANCH  24   3
TORSDOF 15
ENDMDL
