MODEL 1
REMARK VINA RESULT:      -7.5      0.000      0.000
REMARK  Name = 45361527
REMARK  11 active torsions:
REMARK  status: ('A' for Active; 'I' for Inactive)
REMARK    1  A    between atoms: O_1  and  C_10
REMARK    2  A    between atoms: N_4  and  C_14
REMARK    3  A    between atoms: N_5  and  C_24
REMARK    4  A    between atoms: C_7  and  C_17
REMARK    5  A    between atoms: C_9  and  C_19
REMARK    6  A    between atoms: C_13  and  C_18
REMARK    7  A    between atoms: C_18  and  C_20
REMARK    8  A    between atoms: C_18  and  C_21
REMARK    9  A    between atoms: C_22  and  C_23
REMARK   10  A    between atoms: C_23  and  C_25
REMARK   11  A    between atoms: C_24  and  C_26
REMARK                            x       y       z     vdW  Elec       q    Type
REMARK                         _______ _______ _______ _____ _____    ______ ____
ROOT
ATOM      7  C   UNL     1     -16.836   6.068  22.218  0.00  0.00    -0.027 C 
ATOM      8  C   UNL     1     -15.520   5.584  22.913  0.00  0.00    +0.028 C 
ATOM      9  C   UNL     1     -14.345   5.478  21.875  0.00  0.00    +0.012 C 
ATOM     10  C   UNL     1     -15.771   4.311  23.771  0.00  0.00    +0.122 C 
ATOM     11  C   UNL     1     -17.939   6.269  23.285  0.00  0.00    +0.007 C 
ATOM     12  C   UNL     1     -16.577   7.435  21.544  0.00  0.00    +0.009 C 
ATOM     13  C   UNL     1     -16.943   4.483  24.765  0.00  0.00    +0.029 C 
ATOM     14  C   UNL     1     -14.144   6.838  21.150  0.00  0.00    +0.076 C 
ATOM     15  C   UNL     1     -18.214   5.013  24.100  0.00  0.00    +0.007 C 
ATOM     16  C   UNL     1     -15.431   7.401  20.545  0.00  0.00    +0.023 C 
ATOM     17  C   UNL     1     -17.350   5.064  21.155  0.00  0.00    +0.011 C 
ATOM     19  C   UNL     1     -13.011   5.035  22.499  0.00  0.00    +0.010 C 
ENDROOT
BRANCH  14   4
ATOM      3  O   UNL     1     -11.918   8.614  20.729  0.00  0.00    -0.275 OA
ATOM      4  N   UNL     1     -13.147   6.746  20.104  0.00  0.00    -0.312 N 
ATOM     22  C   UNL     1     -12.107   7.655  19.985  0.00  0.00    +0.218 C 
ATOM     36  H   UNL     1     -13.264   6.019  19.405  0.00  0.00    +0.149 HD
BRANCH  22  23
ATOM     23  C   UNL     1     -11.211   7.317  18.809  0.00  0.00    +0.130 C 
BRANCH  23  25
ATOM     25  C   UNL     1     -11.200   8.381  17.743  0.00  0.00    -0.039 A 
ATOM     27  C   UNL     1     -12.298   8.534  16.898  0.00  0.00    +0.004 A 
ATOM     28  C   UNL     1     -10.090   9.214  17.602  0.00  0.00    +0.004 A 
ATOM     31  C   UNL     1     -12.287   9.519  15.910  0.00  0.00    +0.000 A 
ATOM     32  C   UNL     1     -10.079  10.200  16.615  0.00  0.00    +0.000 A 
ATOM     33  C   UNL     1     -11.177  10.352  15.768  0.00  0.00    +0.000 A 
ENDBRANCH  23  25
ENDBRANCH  22  23
ENDBRANCH  14   4
BRANCH  10   1
ATOM      1  O   UNL     1     -14.610   4.027  24.555  0.00  0.00    -0.391 OA
ATOM     37  H   UNL     1     -14.096   4.848  24.641  0.00  0.00    +0.210 HD
ENDBRANCH  10   1
BRANCH  13  18
ATOM     18  C   UNL     1     -17.259   3.179  25.505  0.00  0.00    +0.077 C 
ATOM     20  C   UNL     1     -18.664   2.702  25.155  0.00  0.00    +0.017 C 
BRANCH  18  21
ATOM      2  O   UNL     1     -18.039   3.688  27.741  0.00  0.00    -0.276 OA
ATOM      5  N   UNL     1     -15.794   3.188  27.437  0.00  0.00    -0.311 N 
ATOM     21  C   UNL     1     -17.100   3.383  27.009  0.00  0.00    +0.216 C 
ATOM     38  H   UNL     1     -15.085   2.886  26.777  0.00  0.00    +0.149 HD
BRANCH   5  24
ATOM     24  C   UNL     1     -15.396   3.327  28.818  0.00  0.00    +0.141 C 
BRANCH  24  26
ATOM      6  N   UNL     1     -15.986  -0.178  30.109  0.00  0.00    -0.263 NA
ATOM     26  C   UNL     1     -15.146   1.996  29.467  0.00  0.00    -0.012 A 
ATOM     29  C   UNL     1     -13.905   1.687  30.014  0.00  0.00    +0.008 A 
ATOM     30  C   UNL     1     -16.143   1.038  29.539  0.00  0.00    +0.115 A 
ATOM     34  C   UNL     1     -13.705   0.446  30.610  0.00  0.00    +0.020 A 
ATOM     35  C   UNL     1     -14.767  -0.443  30.632  0.00  0.00    +0.111 A 
ENDBRANCH  24  26
ENDBRANCH   5  24
ENDBRANCH  18  21
ENDBRANCH  13  18
TORSDOF 8
ENDMDL
MODEL 2
REMARK VINA RESULT:      -7.3     19.048     22.360
REMARK  Name = 45361527
REMARK  11 active torsions:
REMARK  status: ('A' for Active; 'I' for Inactive)
REMARK    1  A    between atoms: O_1  and  C_10
REMARK    2  A    between atoms: N_4  and  C_14
REMARK    3  A    between atoms: N_5  and  C_24
REMARK    4  A    between atoms: C_7  and  C_17
REMARK    5  A    between atoms: C_9  and  C_19
REMARK    6  A    between atoms: C_13  and  C_18
REMARK    7  A    between atoms: C_18  and  C_20
REMARK    8  A    between atoms: C_18  and  C_21
REMARK    9  A    between atoms: C_22  and  C_23
REMARK   10  A    between atoms: C_23  and  C_25
REMARK   11  A    between atoms: C_24  and  C_26
REMARK                            x       y       z     vdW  Elec       q    Type
REMARK                         _______ _______ _______ _____ _____    ______ ____
ROOT
ATOM      7  C   UNL     1      -3.972 -10.257  10.462  0.00  0.00    -0.027 C 
ATOM      8  C   UNL     1      -5.246  -9.766  11.227  0.00  0.00    +0.028 C 
ATOM      9  C   UNL     1      -5.401 -10.520  12.597  0.00  0.00    +0.012 C 
ATOM     10  C   UNL     1      -6.499  -9.788  10.306  0.00  0.00    +0.122 C 
ATOM     11  C   UNL     1      -3.787  -9.418   9.175  0.00  0.00    +0.007 C 
ATOM     12  C   UNL     1      -2.730 -10.031  11.354  0.00  0.00    +0.009 C 
ATOM     13  C   UNL     1      -6.274  -9.034   8.975  0.00  0.00    +0.029 C 
ATOM     14  C   UNL     1      -4.115 -10.348  13.454  0.00  0.00    +0.076 C 
ATOM     15  C   UNL     1      -4.998  -9.469   8.253  0.00  0.00    +0.007 C 
ATOM     16  C   UNL     1      -2.833 -10.718  12.708  0.00  0.00    +0.023 C 
ATOM     17  C   UNL     1      -4.054 -11.755  10.071  0.00  0.00    +0.011 C 
ATOM     19  C   UNL     1      -6.620 -10.063  13.416  0.00  0.00    +0.010 C 
ENDROOT
BRANCH  14   4
ATOM      3  O   UNL     1      -2.622  -9.884  15.871  0.00  0.00    -0.275 OA
ATOM      4  N   UNL     1      -4.177 -11.125  14.674  0.00  0.00    -0.312 N 
ATOM     22  C   UNL     1      -3.414 -10.819  15.790  0.00  0.00    +0.218 C 
ATOM     36  H   UNL     1      -4.759 -11.957  14.673  0.00  0.00    +0.149 HD
BRANCH  22  23
ATOM     23  C   UNL     1      -3.681 -11.792  16.924  0.00  0.00    +0.130 C 
BRANCH  23  25
ATOM     25  C   UNL     1      -4.786 -11.345  17.844  0.00  0.00    -0.039 A 
ATOM     27  C   UNL     1      -5.816 -10.541  17.359  0.00  0.00    +0.004 A 
ATOM     28  C   UNL     1      -4.779 -11.737  19.183  0.00  0.00    +0.004 A 
ATOM     31  C   UNL     1      -6.840 -10.128  18.212  0.00  0.00    +0.000 A 
ATOM     32  C   UNL     1      -5.803 -11.325  20.036  0.00  0.00    +0.000 A 
ATOM     33  C   UNL     1      -6.834 -10.520  19.550  0.00  0.00    +0.000 A 
ENDBRANCH  23  25
ENDBRANCH  22  23
ENDBRANCH  14   4
BRANCH  10   1
ATOM      1  O   UNL     1      -7.587  -9.135  10.965  0.00  0.00    -0.391 OA
ATOM     37  H   UNL     1      -7.247  -8.737  11.785  0.00  0.00    +0.210 HD
ENDBRANCH  10   1
BRANCH  13  18
ATOM     18  C   UNL     1      -7.471  -9.178   8.029  0.00  0.00    +0.077 C 
ATOM     20  C   UNL     1      -7.125 -10.123   6.883  0.00  0.00    +0.017 C 
BRANCH  18  21
ATOM      2  O   UNL     1      -7.885  -7.517   6.316  0.00  0.00    -0.276 OA
ATOM      5  N   UNL     1      -8.276  -6.948   8.531  0.00  0.00    -0.311 N 
ATOM     21  C   UNL     1      -7.893  -7.807   7.511  0.00  0.00    +0.216 C 
ATOM     38  H   UNL     1      -8.305  -7.280   9.489  0.00  0.00    +0.149 HD
BRANCH   5  24
ATOM     24  C   UNL     1      -8.714  -5.593   8.288  0.00  0.00    +0.141 C 
BRANCH  24  26
ATOM      6  N   UNL     1     -12.079  -6.154   9.917  0.00  0.00    -0.263 NA
ATOM     26  C   UNL     1     -10.042  -5.309   8.928  0.00  0.00    -0.012 A 
ATOM     29  C   UNL     1     -10.476  -4.003   9.130  0.00  0.00    +0.008 A 
ATOM     30  C   UNL     1     -10.873  -6.339   9.337  0.00  0.00    +0.115 A 
ATOM     34  C   UNL     1     -11.712  -3.772   9.725  0.00  0.00    +0.020 A 
ATOM     35  C   UNL     1     -12.469  -4.872  10.097  0.00  0.00    +0.111 A 
ENDBRANCH  24  26
ENDBRANCH   5  24
ENDBRANCH  18  21
ENDBRANCH  13  18
TORSDOF 8
ENDMDL
MODEL 3
REMARK VINA RESULT:      -7.3      1.985     11.016
REMARK  Name = 45361527
REMARK  11 active torsions:
REMARK  status: ('A' for Active; 'I' for Inactive)
REMARK    1  A    between atoms: O_1  and  C_10
REMARK    2  A    between atoms: N_4  and  C_14
REMARK    3  A    between atoms: N_5  and  C_24
REMARK    4  A    between atoms: C_7  and  C_17
REMARK    5  A    between atoms: C_9  and  C_19
REMARK    6  A    between atoms: C_13  and  C_18
REMARK    7  A    between atoms: C_18  and  C_20
REMARK    8  A    between atoms: C_18  and  C_21
REMARK    9  A    between atoms: C_22  and  C_23
REMARK   10  A    between atoms: C_23  and  C_25
REMARK   11  A    between atoms: C_24  and  C_26
REMARK                            x       y       z     vdW  Elec       q    Type
REMARK                         _______ _______ _______ _____ _____    ______ ____
ROOT
ATOM      7  C   UNL     1     -17.563   4.686  21.768  0.00  0.00    -0.027 C 
ATOM      8  C   UNL     1     -16.278   4.380  22.607  0.00  0.00    +0.028 C 
ATOM      9  C   UNL     1     -16.656   3.845  24.035  0.00  0.00    +0.012 C 
ATOM     10  C   UNL     1     -15.289   5.580  22.582  0.00  0.00    +0.122 C 
ATOM     11  C   UNL     1     -17.157   5.102  20.334  0.00  0.00    +0.007 C 
ATOM     12  C   UNL     1     -18.415   3.401  21.664  0.00  0.00    +0.009 C 
ATOM     13  C   UNL     1     -14.967   6.057  21.147  0.00  0.00    +0.029 C 
ATOM     14  C   UNL     1     -17.575   2.597  23.917  0.00  0.00    +0.076 C 
ATOM     15  C   UNL     1     -16.219   6.301  20.305  0.00  0.00    +0.007 C 
ATOM     16  C   UNL     1     -18.792   2.821  23.019  0.00  0.00    +0.023 C 
ATOM     17  C   UNL     1     -18.421   5.818  22.389  0.00  0.00    +0.011 C 
ATOM     19  C   UNL     1     -15.436   3.495  24.904  0.00  0.00    +0.010 C 
ENDROOT
BRANCH  14   4
ATOM      3  O   UNL     1     -16.876   0.137  25.238  0.00  0.00    -0.275 OA
ATOM      4  N   UNL     1     -18.037   2.147  25.213  0.00  0.00    -0.312 N 
ATOM     22  C   UNL     1     -17.641   0.940  25.766  0.00  0.00    +0.218 C 
ATOM     36  H   UNL     1     -18.725   2.720  25.692  0.00  0.00    +0.149 HD
BRANCH  22  23
ATOM     23  C   UNL     1     -18.270   0.724  27.129  0.00  0.00    +0.130 C 
BRANCH  23  25
ATOM     25  C   UNL     1     -17.536   1.423  28.243  0.00  0.00    -0.039 A 
ATOM     27  C   UNL     1     -18.090   2.552  28.844  0.00  0.00    +0.004 A 
ATOM     28  C   UNL     1     -16.300   0.940  28.673  0.00  0.00    +0.004 A 
ATOM     31  C   UNL     1     -17.409   3.200  29.875  0.00  0.00    +0.000 A 
ATOM     32  C   UNL     1     -15.619   1.587  29.704  0.00  0.00    +0.000 A 
ATOM     33  C   UNL     1     -16.173   2.717  30.305  0.00  0.00    +0.000 A 
ENDBRANCH  23  25
ENDBRANCH  22  23
ENDBRANCH  14   4
BRANCH  10   1
ATOM      1  O   UNL     1     -14.047   5.187  23.170  0.00  0.00    -0.391 OA
ATOM     37  H   UNL     1     -13.674   4.466  22.635  0.00  0.00    +0.210 HD
ENDBRANCH  10   1
BRANCH  13  18
ATOM     18  C   UNL     1     -14.097   7.320  21.148  0.00  0.00    +0.077 C 
ATOM     20  C   UNL     1     -14.759   8.414  20.317  0.00  0.00    +0.017 C 
BRANCH  18  21
ATOM      2  O   UNL     1     -11.896   6.317  21.261  0.00  0.00    -0.276 OA
ATOM      5  N   UNL     1     -12.464   7.535  19.371  0.00  0.00    -0.311 N 
ATOM     21  C   UNL     1     -12.702   6.991  20.625  0.00  0.00    +0.216 C 
ATOM     38  H   UNL     1     -13.202   8.036  18.886  0.00  0.00    +0.149 HD
BRANCH   5  24
ATOM     24  C   UNL     1     -11.213   7.362  18.669  0.00  0.00    +0.141 C 
BRANCH  24  26
ATOM      6  N   UNL     1     -10.392   9.762  15.866  0.00  0.00    -0.263 NA
ATOM     26  C   UNL     1     -10.792   8.613  17.955  0.00  0.00    -0.012 A 
ATOM     29  C   UNL     1     -10.419   9.752  18.662  0.00  0.00    +0.008 A 
ATOM     30  C   UNL     1     -10.761   8.670  16.571  0.00  0.00    +0.115 A 
ATOM     34  C   UNL     1     -10.033  10.896  17.971  0.00  0.00    +0.020 A 
ATOM     35  C   UNL     1     -10.036  10.850  16.586  0.00  0.00    +0.111 A 
ENDBRANCH  24  26
ENDBRANCH   5  24
ENDBRANCH  18  21
ENDBRANCH  13  18
TORSDOF 8
ENDMDL
MODEL 4
REMARK VINA RESULT:      -7.2     19.663     21.231
REMARK  Name = 45361527
REMARK  11 active torsions:
REMARK  status: ('A' for Active; 'I' for Inactive)
REMARK    1  A    between atoms: O_1  and  C_10
REMARK    2  A    between atoms: N_4  and  C_14
REMARK    3  A    between atoms: N_5  and  C_24
REMARK    4  A    between atoms: C_7  and  C_17
REMARK    5  A    between atoms: C_9  and  C_19
REMARK    6  A    between atoms: C_13  and  C_18
REMARK    7  A    between atoms: C_18  and  C_20
REMARK    8  A    between atoms: C_18  and  C_21
REMARK    9  A    between atoms: C_22  and  C_23
REMARK   10  A    between atoms: C_23  and  C_25
REMARK   11  A    between atoms: C_24  and  C_26
REMARK                            x       y       z     vdW  Elec       q    Type
REMARK                         _______ _______ _______ _____ _____    ______ ____
ROOT
ATOM      7  C   UNL     1      -3.623 -10.721  10.557  0.00  0.00    -0.027 C 
ATOM      8  C   UNL     1      -4.957 -10.316  11.267  0.00  0.00    +0.028 C 
ATOM      9  C   UNL     1      -5.713  -9.208  10.449  0.00  0.00    +0.012 C 
ATOM     10  C   UNL     1      -4.721  -9.993  12.770  0.00  0.00    +0.122 C 
ATOM     11  C   UNL     1      -2.962 -11.889  11.327  0.00  0.00    +0.007 C 
ATOM     12  C   UNL     1      -3.942 -11.218   9.129  0.00  0.00    +0.009 C 
ATOM     13  C   UNL     1      -3.968 -11.123  13.511  0.00  0.00    +0.029 C 
ATOM     14  C   UNL     1      -5.961  -9.690   8.992  0.00  0.00    +0.076 C 
ATOM     15  C   UNL     1      -2.694 -11.562  12.790  0.00  0.00    +0.007 C 
ATOM     16  C   UNL     1      -4.697 -10.194   8.294  0.00  0.00    +0.023 C 
ATOM     17  C   UNL     1      -2.614  -9.546  10.476  0.00  0.00    +0.011 C 
ATOM     19  C   UNL     1      -7.051  -8.784  11.077  0.00  0.00    +0.010 C 
ENDROOT
BRANCH  14   4
ATOM      3  O   UNL     1      -8.166  -9.976   7.164  0.00  0.00    -0.275 OA
ATOM      4  N   UNL     1      -6.552  -8.650   8.177  0.00  0.00    -0.312 N 
ATOM     22  C   UNL     1      -7.618  -8.889   7.323  0.00  0.00    +0.218 C 
ATOM     36  H   UNL     1      -6.118  -7.732   8.197  0.00  0.00    +0.149 HD
BRANCH  22  23
ATOM     23  C   UNL     1      -8.038  -7.625   6.598  0.00  0.00    +0.130 C 
BRANCH  23  25
ATOM     25  C   UNL     1      -9.117  -6.857   7.315  0.00  0.00    -0.039 A 
ATOM     27  C   UNL     1     -10.456  -7.190   7.123  0.00  0.00    +0.004 A 
ATOM     28  C   UNL     1      -8.775  -5.810   8.172  0.00  0.00    +0.004 A 
ATOM     31  C   UNL     1     -11.455  -6.478   7.787  0.00  0.00    +0.000 A 
ATOM     32  C   UNL     1      -9.773  -5.099   8.837  0.00  0.00    +0.000 A 
ATOM     33  C   UNL     1     -11.113  -5.432   8.645  0.00  0.00    +0.000 A 
ENDBRANCH  23  25
ENDBRANCH  22  23
ENDBRANCH  14   4
BRANCH  10   1
ATOM      1  O   UNL     1      -5.980  -9.842  13.429  0.00  0.00    -0.391 OA
ATOM     37  H   UNL     1      -5.982 -10.418  14.213  0.00  0.00    +0.210 HD
ENDBRANCH  10   1
BRANCH  13  18
ATOM     18  C   UNL     1      -3.630 -10.731  14.954  0.00  0.00    +0.077 C 
ATOM     20  C   UNL     1      -2.135 -10.458  15.088  0.00  0.00    +0.017 C 
BRANCH  18  21
ATOM      2  O   UNL     1      -4.459 -12.933  15.524  0.00  0.00    -0.276 OA
ATOM      5  N   UNL     1      -4.018 -11.436  17.240  0.00  0.00    -0.311 N 
ATOM     21  C   UNL     1      -4.083 -11.829  15.911  0.00  0.00    +0.216 C 
ATOM     38  H   UNL     1      -3.644 -10.523  17.481  0.00  0.00    +0.149 HD
BRANCH   5  24
ATOM     24  C   UNL     1      -4.397 -12.304  18.331  0.00  0.00    +0.141 C 
BRANCH  24  26
ATOM      6  N   UNL     1      -7.500 -11.050  20.089  0.00  0.00    -0.263 NA
ATOM     26  C   UNL     1      -5.840 -12.136  18.707  0.00  0.00    -0.012 A 
ATOM     29  C   UNL     1      -6.837 -12.865  18.068  0.00  0.00    +0.008 A 
ATOM     30  C   UNL     1      -6.221 -11.249  19.701  0.00  0.00    +0.115 A 
ATOM     34  C   UNL     1      -8.166 -12.687  18.439  0.00  0.00    +0.020 A 
ATOM     35  C   UNL     1      -8.443 -11.777  19.446  0.00  0.00    +0.111 A 
ENDBRANCH  24  26
ENDBRANCH   5  24
ENDBRANCH  18  21
ENDBRANCH  13  18
TORSDOF 8
ENDMDL
MODEL 5
REMARK VINA RESULT:      -7.0     19.328     20.942
REMARK  Name = 45361527
REMARK  11 active torsions:
REMARK  status: ('A' for Active; 'I' for Inactive)
REMARK    1  A    between atoms: O_1  and  C_10
REMARK    2  A    between atoms: N_4  and  C_14
REMARK    3  A    between atoms: N_5  and  C_24
REMARK    4  A    between atoms: C_7  and  C_17
REMARK    5  A    between atoms: C_9  and  C_19
REMARK    6  A    between atoms: C_13  and  C_18
REMARK    7  A    between atoms: C_18  and  C_20
REMARK    8  A    between atoms: C_18  and  C_21
REMARK    9  A    between atoms: C_22  and  C_23
REMARK   10  A    between atoms: C_23  and  C_25
REMARK   11  A    between atoms: C_24  and  C_26
REMARK                            x       y       z     vdW  Elec       q    Type
REMARK                         _______ _______ _______ _____ _____    ______ ____
ROOT
ATOM      7  C   UNL     1      -3.409 -11.364  11.700  0.00  0.00    -0.027 C 
ATOM      8  C   UNL     1      -4.712 -10.657  12.202  0.00  0.00    +0.028 C 
ATOM      9  C   UNL     1      -5.245  -9.641  11.129  0.00  0.00    +0.012 C 
ATOM     10  C   UNL     1      -4.525 -10.081  13.634  0.00  0.00    +0.122 C 
ATOM     11  C   UNL     1      -2.975 -12.436  12.728  0.00  0.00    +0.007 C 
ATOM     12  C   UNL     1      -3.707 -12.084  10.365  0.00  0.00    +0.009 C 
ATOM     13  C   UNL     1      -3.992 -11.133  14.635  0.00  0.00    +0.029 C 
ATOM     14  C   UNL     1      -5.470 -10.361   9.770  0.00  0.00    +0.076 C 
ATOM     15  C   UNL     1      -2.753 -11.868  14.123  0.00  0.00    +0.007 C 
ATOM     16  C   UNL     1      -4.252 -11.153   9.293  0.00  0.00    +0.023 C 
ATOM     17  C   UNL     1      -2.236 -10.371  11.493  0.00  0.00    +0.011 C 
ATOM     19  C   UNL     1      -6.543  -8.930  11.546  0.00  0.00    +0.010 C 
ENDROOT
BRANCH  14   4
ATOM      3  O   UNL     1      -7.803 -10.515   8.091  0.00  0.00    -0.275 OA
ATOM      4  N   UNL     1      -5.851  -9.431   8.727  0.00  0.00    -0.312 N 
ATOM     22  C   UNL     1      -7.000  -9.594   7.970  0.00  0.00    +0.218 C 
ATOM     36  H   UNL     1      -5.209  -8.673   8.515  0.00  0.00    +0.149 HD
BRANCH  22  23
ATOM     23  C   UNL     1      -7.156  -8.475   6.957  0.00  0.00    +0.130 C 
BRANCH  23  25
ATOM     25  C   UNL     1      -8.313  -7.558   7.255  0.00  0.00    -0.039 A 
ATOM     27  C   UNL     1      -8.168  -6.532   8.187  0.00  0.00    +0.004 A 
ATOM     28  C   UNL     1      -9.530  -7.735   6.597  0.00  0.00    +0.004 A 
ATOM     31  C   UNL     1      -9.240  -5.683   8.463  0.00  0.00    +0.000 A 
ATOM     32  C   UNL     1     -10.602  -6.886   6.872  0.00  0.00    +0.000 A 
ATOM     33  C   UNL     1     -10.458  -5.860   7.806  0.00  0.00    +0.000 A 
ENDBRANCH  23  25
ENDBRANCH  22  23
ENDBRANCH  14   4
BRANCH  10   1
ATOM      1  O   UNL     1      -5.786  -9.639  14.139  0.00  0.00    -0.391 OA
ATOM     37  H   UNL     1      -6.158  -9.000  13.507  0.00  0.00    +0.210 HD
ENDBRANCH  10   1
BRANCH  13  18
ATOM     18  C   UNL     1      -3.690 -10.514  16.005  0.00  0.00    +0.077 C 
ATOM     20  C   UNL     1      -2.211 -10.671  16.338  0.00  0.00    +0.017 C 
BRANCH  18  21
ATOM      2  O   UNL     1      -4.144 -11.981  17.878  0.00  0.00    -0.276 OA
ATOM      5  N   UNL     1      -5.883 -10.710  17.018  0.00  0.00    -0.311 N 
ATOM     21  C   UNL     1      -4.571 -11.158  17.071  0.00  0.00    +0.216 C 
ATOM     38  H   UNL     1      -6.146  -9.987  16.355  0.00  0.00    +0.149 HD
BRANCH   5  24
ATOM     24  C   UNL     1      -6.905 -11.177  17.926  0.00  0.00    +0.141 C 
BRANCH  24  26
ATOM      6  N   UNL     1     -10.415  -9.935  18.586  0.00  0.00    -0.263 NA
ATOM     26  C   UNL     1      -8.139 -10.323  17.870  0.00  0.00    -0.012 A 
ATOM     29  C   UNL     1      -8.179  -9.172  17.090  0.00  0.00    +0.008 A 
ATOM     30  C   UNL     1      -9.273 -10.657  18.592  0.00  0.00    +0.115 A 
ATOM     34  C   UNL     1      -9.338  -8.402  17.058  0.00  0.00    +0.020 A 
ATOM     35  C   UNL     1     -10.418  -8.823  17.816  0.00  0.00    +0.111 A 
ENDBRANCH  24  26
ENDBRANCH   5  24
ENDBRANCH  18  21
ENDBRANCH  13  18
TORSDOF 8
ENDMDL
MODEL 6
REMARK VINA RESULT:      -7.0     29.675     33.671
REMARK  Name = 45361527
REMARK  11 active torsions:
REMARK  status: ('A' for Active; 'I' for Inactive)
REMARK    1  A    between atoms: O_1  and  C_10
REMARK    2  A    between atoms: N_4  and  C_14
REMARK    3  A    between atoms: N_5  and  C_24
REMARK    4  A    between atoms: C_7  and  C_17
REMARK    5  A    between atoms: C_9  and  C_19
REMARK    6  A    between atoms: C_13  and  C_18
REMARK    7  A    between atoms: C_18  and  C_20
REMARK    8  A    between atoms: C_18  and  C_21
REMARK    9  A    between atoms: C_22  and  C_23
REMARK   10  A    between atoms: C_23  and  C_25
REMARK   11  A    between atoms: C_24  and  C_26
REMARK                            x       y       z     vdW  Elec       q    Type
REMARK                         _______ _______ _______ _____ _____    ______ ____
ROOT
ATOM      7  C   UNL     1       9.521   6.721   6.686  0.00  0.00    -0.027 C 
ATOM      8  C   UNL     1      10.626   7.441   5.843  0.00  0.00    +0.028 C 
ATOM      9  C   UNL     1      11.518   6.395   5.082  0.00  0.00    +0.012 C 
ATOM     10  C   UNL     1      11.400   8.482   6.701  0.00  0.00    +0.122 C 
ATOM     11  C   UNL     1       8.593   7.778   7.330  0.00  0.00    +0.007 C 
ATOM     12  C   UNL     1       8.659   5.847   5.746  0.00  0.00    +0.009 C 
ATOM     13  C   UNL     1      10.460   9.473   7.426  0.00  0.00    +0.029 C 
ATOM     14  C   UNL     1      10.632   5.474   4.198  0.00  0.00    +0.076 C 
ATOM     15  C   UNL     1       9.343   8.776   8.202  0.00  0.00    +0.007 C 
ATOM     16  C   UNL     1       9.474   4.831   4.960  0.00  0.00    +0.023 C 
ATOM     17  C   UNL     1      10.115   5.831   7.807  0.00  0.00    +0.011 C 
ATOM     19  C   UNL     1      12.609   7.038   4.209  0.00  0.00    +0.010 C 
ENDROOT
BRANCH  14   4
ATOM      3  O   UNL     1      10.555   4.691   1.429  0.00  0.00    -0.275 OA
ATOM      4  N   UNL     1      11.409   4.424   3.571  0.00  0.00    -0.312 N 
ATOM     22  C   UNL     1      11.299   4.122   2.222  0.00  0.00    +0.218 C 
ATOM     36  H   UNL     1      12.004   3.858   4.168  0.00  0.00    +0.149 HD
BRANCH  22  23
ATOM     23  C   UNL     1      12.229   2.988   1.834  0.00  0.00    +0.130 C 
BRANCH  23  25
ATOM     25  C   UNL     1      13.331   3.413   0.901  0.00  0.00    -0.039 A 
ATOM     27  C   UNL     1      14.607   3.672   1.400  0.00  0.00    +0.004 A 
ATOM     28  C   UNL     1      13.076   3.549  -0.464  0.00  0.00    +0.004 A 
ATOM     31  C   UNL     1      15.628   4.067   0.535  0.00  0.00    +0.000 A 
ATOM     32  C   UNL     1      14.096   3.942  -1.329  0.00  0.00    +0.000 A 
ATOM     33  C   UNL     1      15.373   4.202  -0.830  0.00  0.00    +0.000 A 
ENDBRANCH  23  25
ENDBRANCH  22  23
ENDBRANCH  14   4
BRANCH  10   1
ATOM      1  O   UNL     1      12.244   9.265   5.854  0.00  0.00    -0.391 OA
ATOM     37  H   UNL     1      13.059   8.760   5.691  0.00  0.00    +0.210 HD
ENDBRANCH  10   1
BRANCH  13  18
ATOM     18  C   UNL     1      11.232  10.406   8.367  0.00  0.00    +0.077 C 
ATOM     20  C   UNL     1      10.260  11.208   9.225  0.00  0.00    +0.017 C 
BRANCH  18  21
ATOM      2  O   UNL     1      11.717  12.126   6.733  0.00  0.00    -0.276 OA
ATOM      5  N   UNL     1      13.487  11.136   7.860  0.00  0.00    -0.311 N 
ATOM     21  C   UNL     1      12.146  11.321   7.557  0.00  0.00    +0.216 C 
ATOM     38  H   UNL     1      13.757  10.487   8.592  0.00  0.00    +0.149 HD
BRANCH   5  24
ATOM     24  C   UNL     1      14.542  11.887   7.221  0.00  0.00    +0.141 C 
BRANCH  24  26
ATOM      6  N   UNL     1      18.034  10.711   6.370  0.00  0.00    -0.263 NA
ATOM     26  C   UNL     1      15.667  11.001   6.768  0.00  0.00    -0.012 A 
ATOM     29  C   UNL     1      15.427   9.701   6.337  0.00  0.00    +0.008 A 
ATOM     30  C   UNL     1      16.976  11.454   6.765  0.00  0.00    +0.115 A 
ATOM     34  C   UNL     1      16.490   8.905   5.922  0.00  0.00    +0.020 A 
ATOM     35  C   UNL     1      17.762   9.452   5.957  0.00  0.00    +0.111 A 
ENDBRANCH  24  26
ENDBRANCH   5  24
ENDBRANCH  18  21
ENDBRANCH  13  18
TORSDOF 8
ENDMDL
MODEL 7
REMARK VINA RESULT:      -7.0     27.806     31.747
REMARK  Name = 45361527
REMARK  11 active torsions:
REMARK  status: ('A' for Active; 'I' for Inactive)
REMARK    1  A    between atoms: O_1  and  C_10
REMARK    2  A    between atoms: N_4  and  C_14
REMARK    3  A    between atoms: N_5  and  C_24
REMARK    4  A    between atoms: C_7  and  C_17
REMARK    5  A    between atoms: C_9  and  C_19
REMARK    6  A    between atoms: C_13  and  C_18
REMARK    7  A    between atoms: C_18  and  C_20
REMARK    8  A    between atoms: C_18  and  C_21
REMARK    9  A    between atoms: C_22  and  C_23
REMARK   10  A    between atoms: C_23  and  C_25
REMARK   11  A    between atoms: C_24  and  C_26
REMARK                            x       y       z     vdW  Elec       q    Type
REMARK                         _______ _______ _______ _____ _____    ______ ____
ROOT
ATOM      7  C   UNL     1       9.617   6.661   6.427  0.00  0.00    -0.027 C 
ATOM      8  C   UNL     1      10.380   7.478   5.331  0.00  0.00    +0.028 C 
ATOM      9  C   UNL     1      11.424   6.572   4.584  0.00  0.00    +0.012 C 
ATOM     10  C   UNL     1      10.940   8.809   5.908  0.00  0.00    +0.122 C 
ATOM     11  C   UNL     1       8.521   7.549   7.063  0.00  0.00    +0.007 C 
ATOM     12  C   UNL     1       8.918   5.454   5.761  0.00  0.00    +0.009 C 
ATOM     13  C   UNL     1       9.860   9.645   6.633  0.00  0.00    +0.029 C 
ATOM     14  C   UNL     1      10.721   5.323   3.983  0.00  0.00    +0.076 C 
ATOM     15  C   UNL     1       9.072   8.835   7.663  0.00  0.00    +0.007 C 
ATOM     16  C   UNL     1       9.877   4.552   4.999  0.00  0.00    +0.023 C 
ATOM     17  C   UNL     1      10.557   6.151   7.549  0.00  0.00    +0.011 C 
ATOM     19  C   UNL     1      12.191   7.306   3.471  0.00  0.00    +0.010 C 
ENDROOT
BRANCH  14   4
ATOM      3  O   UNL     1      10.572   4.147   1.360  0.00  0.00    -0.275 OA
ATOM      4  N   UNL     1      11.672   4.407   3.387  0.00  0.00    -0.312 N 
ATOM     22  C   UNL     1      11.510   3.894   2.110  0.00  0.00    +0.218 C 
ATOM     36  H   UNL     1      12.447   4.093   3.964  0.00  0.00    +0.149 HD
BRANCH  22  23
ATOM     23  C   UNL     1      12.653   2.968   1.739  0.00  0.00    +0.130 C 
BRANCH  23  25
ATOM     25  C   UNL     1      13.591   3.558   0.719  0.00  0.00    -0.039 A 
ATOM     27  C   UNL     1      13.242   3.562  -0.630  0.00  0.00    +0.004 A 
ATOM     28  C   UNL     1      14.810   4.102   1.125  0.00  0.00    +0.004 A 
ATOM     31  C   UNL     1      14.111   4.108  -1.575  0.00  0.00    +0.000 A 
ATOM     32  C   UNL     1      15.679   4.649   0.181  0.00  0.00    +0.000 A 
ATOM     33  C   UNL     1      15.330   4.652  -1.169  0.00  0.00    +0.000 A 
ENDBRANCH  23  25
ENDBRANCH  22  23
ENDBRANCH  14   4
BRANCH  10   1
ATOM      1  O   UNL     1      11.436   9.620   4.841  0.00  0.00    -0.391 OA
ATOM     37  H   UNL     1      11.812  10.430   5.227  0.00  0.00    +0.210 HD
ENDBRANCH  10   1
BRANCH  13  18
ATOM     18  C   UNL     1      10.458  10.886   7.306  0.00  0.00    +0.077 C 
ATOM     20  C   UNL     1      11.230  10.484   8.558  0.00  0.00    +0.017 C 
BRANCH  18  21
ATOM      2  O   UNL     1       8.705  12.466   6.765  0.00  0.00    -0.276 OA
ATOM      5  N   UNL     1       9.171  12.049   8.998  0.00  0.00    -0.311 N 
ATOM     21  C   UNL     1       9.351  11.884   7.633  0.00  0.00    +0.216 C 
ATOM     38  H   UNL     1       9.710  11.491   9.652  0.00  0.00    +0.149 HD
BRANCH   5  24
ATOM     24  C   UNL     1       8.182  12.944   9.553  0.00  0.00    +0.141 C 
BRANCH  24  26
ATOM      6  N   UNL     1       8.431  14.842  12.814  0.00  0.00    -0.263 NA
ATOM     26  C   UNL     1       8.443  13.243  11.001  0.00  0.00    -0.012 A 
ATOM     29  C   UNL     1       8.923  12.260  11.860  0.00  0.00    +0.008 A 
ATOM     30  C   UNL     1       8.216  14.506  11.523  0.00  0.00    +0.115 A 
ATOM     34  C   UNL     1       9.156  12.568  13.197  0.00  0.00    +0.020 A 
ATOM     35  C   UNL     1       8.898  13.862  13.620  0.00  0.00    +0.111 A 
ENDBRANCH  24  26
ENDBRANCH   5  24
ENDBRANCH  18  21
ENDBRANCH  13  18
TORSDOF 8
ENDMDL
MODEL 8
REMARK VINA RESULT:      -7.0     27.885     33.212
REMARK  Name = 45361527
REMARK  11 active torsions:
REMARK  status: ('A' for Active; 'I' for Inactive)
REMARK    1  A    between atoms: O_1  and  C_10
REMARK    2  A    between atoms: N_4  and  C_14
REMARK    3  A    between atoms: N_5  and  C_24
REMARK    4  A    between atoms: C_7  and  C_17
REMARK    5  A    between atoms: C_9  and  C_19
REMARK    6  A    between atoms: C_13  and  C_18
REMARK    7  A    between atoms: C_18  and  C_20
REMARK    8  A    between atoms: C_18  and  C_21
REMARK    9  A    between atoms: C_22  and  C_23
REMARK   10  A    between atoms: C_23  and  C_25
REMARK   11  A    between atoms: C_24  and  C_26
REMARK                            x       y       z     vdW  Elec       q    Type
REMARK                         _______ _______ _______ _____ _____    ______ ____
ROOT
ATOM      7  C   UNL     1       9.437   6.230   6.222  0.00  0.00    -0.027 C 
ATOM      8  C   UNL     1      10.495   7.284   5.752  0.00  0.00    +0.028 C 
ATOM      9  C   UNL     1      10.058   8.737   6.161  0.00  0.00    +0.012 C 
ATOM     10  C   UNL     1      10.856   7.091   4.252  0.00  0.00    +0.122 C 
ATOM     11  C   UNL     1       9.952   4.806   5.906  0.00  0.00    +0.007 C 
ATOM     12  C   UNL     1       9.263   6.340   7.754  0.00  0.00    +0.009 C 
ATOM     13  C   UNL     1      11.271   5.638   3.921  0.00  0.00    +0.029 C 
ATOM     14  C   UNL     1       9.812   8.814   7.693  0.00  0.00    +0.076 C 
ATOM     15  C   UNL     1      10.268   4.602   4.430  0.00  0.00    +0.007 C 
ATOM     16  C   UNL     1       8.863   7.734   8.213  0.00  0.00    +0.023 C 
ATOM     17  C   UNL     1       8.061   6.426   5.536  0.00  0.00    +0.011 C 
ATOM     19  C   UNL     1      11.070   9.821   5.754  0.00  0.00    +0.010 C 
ENDROOT
BRANCH  14   4
ATOM      3  O   UNL     1      11.153  10.787   9.305  0.00  0.00    -0.275 OA
ATOM      4  N   UNL     1       9.296  10.108   8.089  0.00  0.00    -0.312 N 
ATOM     22  C   UNL     1      10.023  10.992   8.871  0.00  0.00    +0.218 C 
ATOM     36  H   UNL     1       8.340  10.333   7.827  0.00  0.00    +0.149 HD
BRANCH  22  23
ATOM     23  C   UNL     1       9.246  12.269   9.127  0.00  0.00    +0.130 C 
BRANCH  23  25
ATOM     25  C   UNL     1       9.377  12.773  10.540  0.00  0.00    -0.039 A 
ATOM     27  C   UNL     1       8.702  12.129  11.577  0.00  0.00    +0.004 A 
ATOM     28  C   UNL     1      10.174  13.885  10.813  0.00  0.00    +0.004 A 
ATOM     31  C   UNL     1       8.824  12.596  12.886  0.00  0.00    +0.000 A 
ATOM     32  C   UNL     1      10.296  14.352  12.121  0.00  0.00    +0.000 A 
ATOM     33  C   UNL     1       9.621  13.708  13.158  0.00  0.00    +0.000 A 
ENDBRANCH  23  25
ENDBRANCH  22  23
ENDBRANCH  14   4
BRANCH  10   1
ATOM      1  O   UNL     1      11.971   7.919   3.918  0.00  0.00    -0.391 OA
ATOM     37  H   UNL     1      11.878   8.759   4.400  0.00  0.00    +0.210 HD
ENDBRANCH  10   1
BRANCH  13  18
ATOM     18  C   UNL     1      11.494   5.438   2.418  0.00  0.00    +0.077 C 
ATOM     20  C   UNL     1      10.707   4.228   1.926  0.00  0.00    +0.017 C 
BRANCH  18  21
ATOM      2  O   UNL     1      13.778   6.220   2.223  0.00  0.00    -0.276 OA
ATOM      5  N   UNL     1      13.325   3.993   1.757  0.00  0.00    -0.311 N 
ATOM     21  C   UNL     1      12.985   5.286   2.129  0.00  0.00    +0.216 C 
ATOM     38  H   UNL     1      12.619   3.264   1.755  0.00  0.00    +0.149 HD
BRANCH   5  24
ATOM     24  C   UNL     1      14.678   3.605   1.433  0.00  0.00    +0.141 C 
BRANCH  24  26
ATOM      6  N   UNL     1      14.363   4.334  -2.264  0.00  0.00    -0.263 NA
ATOM     26  C   UNL     1      15.048   3.982   0.027  0.00  0.00    -0.012 A 
ATOM     29  C   UNL     1      16.356   4.319  -0.303  0.00  0.00    +0.008 A 
ATOM     30  C   UNL     1      14.098   4.005  -0.981  0.00  0.00    +0.115 A 
ATOM     34  C   UNL     1      16.668   4.664  -1.615  0.00  0.00    +0.020 A 
ATOM     35  C   UNL     1      15.646   4.655  -2.549  0.00  0.00    +0.111 A 
ENDBRANCH  24  26
ENDBRANCH   5  24
ENDBRANCH  18  21
ENDBRANCH  13  18
TORSDOF 8
ENDMDL
MODEL 9
REMARK VINA RESULT:      -6.9     18.916     20.258
REMARK  Name = 45361527
REMARK  11 active torsions:
REMARK  status: ('A' for Active; 'I' for Inactive)
REMARK    1  A    between atoms: O_1  and  C_10
REMARK    2  A    between atoms: N_4  and  C_14
REMARK    3  A    between atoms: N_5  and  C_24
REMARK    4  A    between atoms: C_7  and  C_17
REMARK    5  A    between atoms: C_9  and  C_19
REMARK    6  A    between atoms: C_13  and  C_18
REMARK    7  A    between atoms: C_18  and  C_20
REMARK    8  A    between atoms: C_18  and  C_21
REMARK    9  A    between atoms: C_22  and  C_23
REMARK   10  A    between atoms: C_23  and  C_25
REMARK   11  A    between atoms: C_24  and  C_26
REMARK                            x       y       z     vdW  Elec       q    Type
REMARK                         _______ _______ _______ _____ _____    ______ ____
ROOT
ATOM      7  C   UNL     1      -5.767 -10.838  17.520  0.00  0.00    -0.027 C 
ATOM      8  C   UNL     1      -6.360 -12.220  17.087  0.00  0.00    +0.028 C 
ATOM      9  C   UNL     1      -6.062 -12.506  15.571  0.00  0.00    +0.012 C 
ATOM     10  C   UNL     1      -7.850 -12.352  17.513  0.00  0.00    +0.122 C 
ATOM     11  C   UNL     1      -5.978 -10.639  19.040  0.00  0.00    +0.007 C 
ATOM     12  C   UNL     1      -4.245 -10.836  17.252  0.00  0.00    +0.009 C 
ATOM     13  C   UNL     1      -8.070 -12.051  19.014  0.00  0.00    +0.029 C 
ATOM     14  C   UNL     1      -4.534 -12.427  15.298  0.00  0.00    +0.076 C 
ATOM     15  C   UNL     1      -7.441 -10.729  19.454  0.00  0.00    +0.007 C 
ATOM     16  C   UNL     1      -3.893 -11.134  15.802  0.00  0.00    +0.023 C 
ATOM     17  C   UNL     1      -6.419  -9.650  16.768  0.00  0.00    +0.011 C 
ATOM     19  C   UNL     1      -6.594 -13.865  15.086  0.00  0.00    +0.010 C 
ENDROOT
BRANCH  14   4
ATOM      3  O   UNL     1      -2.170 -13.602  14.152  0.00  0.00    -0.275 OA
ATOM      4  N   UNL     1      -4.233 -12.571  13.889  0.00  0.00    -0.312 N 
ATOM     22  C   UNL     1      -3.061 -13.155  13.435  0.00  0.00    +0.218 C 
ATOM     36  H   UNL     1      -4.887 -12.169  13.225  0.00  0.00    +0.149 HD
BRANCH  22  23
ATOM     23  C   UNL     1      -3.009 -13.180  11.919  0.00  0.00    +0.130 C 
BRANCH  23  25
ATOM     25  C   UNL     1      -3.046 -11.809  11.298  0.00  0.00    -0.039 A 
ATOM     27  C   UNL     1      -3.962 -11.526  10.286  0.00  0.00    +0.004 A 
ATOM     28  C   UNL     1      -2.164 -10.821  11.737  0.00  0.00    +0.004 A 
ATOM     31  C   UNL     1      -3.996 -10.255   9.710  0.00  0.00    +0.000 A 
ATOM     32  C   UNL     1      -2.198  -9.551  11.162  0.00  0.00    +0.000 A 
ATOM     33  C   UNL     1      -3.114  -9.267  10.149  0.00  0.00    +0.000 A 
ENDBRANCH  23  25
ENDBRANCH  22  23
ENDBRANCH  14   4
BRANCH  10   1
ATOM      1  O   UNL     1      -8.291 -13.695  17.297  0.00  0.00    -0.391 OA
ATOM     37  H   UNL     1      -8.825 -13.963  18.064  0.00  0.00    +0.210 HD
ENDBRANCH  10   1
BRANCH  13  18
ATOM     18  C   UNL     1      -9.558 -12.058  19.384  0.00  0.00    +0.077 C 
ATOM     20  C   UNL     1      -9.946 -10.730  20.026  0.00  0.00    +0.017 C 
BRANCH  18  21
ATOM      2  O   UNL     1      -9.169 -14.249  20.338  0.00  0.00    -0.276 OA
ATOM      5  N   UNL     1     -10.978 -13.013  21.100  0.00  0.00    -0.311 N 
ATOM     21  C   UNL     1      -9.858 -13.232  20.311  0.00  0.00    +0.216 C 
ATOM     38  H   UNL     1     -11.463 -12.122  21.056  0.00  0.00    +0.149 HD
BRANCH   5  24
ATOM     24  C   UNL     1     -11.461 -13.982  22.056  0.00  0.00    +0.141 C 
BRANCH  24  26
ATOM      6  N   UNL     1     -14.596 -12.049  22.910  0.00  0.00    -0.263 NA
ATOM     26  C   UNL     1     -12.640 -13.468  22.830  0.00  0.00    -0.012 A 
ATOM     29  C   UNL     1     -12.886 -13.893  24.131  0.00  0.00    +0.008 A 
ATOM     30  C   UNL     1     -13.518 -12.553  22.270  0.00  0.00    +0.115 A 
ATOM     34  C   UNL     1     -13.986 -13.397  24.822  0.00  0.00    +0.020 A 
ATOM     35  C   UNL     1     -14.803 -12.485  24.174  0.00  0.00    +0.111 A 
ENDBRANCH  24  26
ENDBRANCH   5  24
ENDBRANCH  18  21
ENDBRANCH  13  18
TORSDOF 8
ENDMDL
MODEL 10
REMARK VINA RESULT:      -6.9     18.755     21.798
REMARK  Name = 45361527
REMARK  11 active torsions:
REMARK  status: ('A' for Active; 'I' for Inactive)
REMARK    1  A    between atoms: O_1  and  C_10
REMARK    2  A    between atoms: N_4  and  C_14
REMARK    3  A    between atoms: N_5  and  C_24
REMARK    4  A    between atoms: C_7  and  C_17
REMARK    5  A    between atoms: C_9  and  C_19
REMARK    6  A    between atoms: C_13  and  C_18
REMARK    7  A    between atoms: C_18  and  C_20
REMARK    8  A    between atoms: C_18  and  C_21
REMARK    9  A    between atoms: C_22  and  C_23
REMARK   10  A    between atoms: C_23  and  C_25
REMARK   11  A    between atoms: C_24  and  C_26
REMARK                            x       y       z     vdW  Elec       q    Type
REMARK                         _______ _______ _______ _____ _____    ______ ____
ROOT
ATOM      7  C   UNL     1      -4.741 -11.024  16.876  0.00  0.00    -0.027 C 
ATOM      8  C   UNL     1      -5.490 -10.413  15.645  0.00  0.00    +0.028 C 
ATOM      9  C   UNL     1      -7.047 -10.531  15.823  0.00  0.00    +0.012 C 
ATOM     10  C   UNL     1      -4.925 -10.971  14.307  0.00  0.00    +0.122 C 
ATOM     11  C   UNL     1      -3.219 -10.791  16.722  0.00  0.00    +0.007 C 
ATOM     12  C   UNL     1      -5.202 -10.297  18.159  0.00  0.00    +0.009 C 
ATOM     13  C   UNL     1      -3.389 -10.828  14.204  0.00  0.00    +0.029 C 
ATOM     14  C   UNL     1      -7.489  -9.862  17.154  0.00  0.00    +0.076 C 
ATOM     15  C   UNL     1      -2.656 -11.370  15.431  0.00  0.00    +0.007 C 
ATOM     16  C   UNL     1      -6.708 -10.355  18.372  0.00  0.00    +0.023 C 
ATOM     17  C   UNL     1      -4.997 -12.545  17.031  0.00  0.00    +0.011 C 
ATOM     19  C   UNL     1      -7.847  -9.922  14.659  0.00  0.00    +0.010 C 
ENDROOT
BRANCH  14   4
ATOM      3  O   UNL     1      -9.479  -7.805  17.464  0.00  0.00    -0.275 OA
ATOM      4  N   UNL     1      -8.902 -10.053  17.406  0.00  0.00    -0.312 N 
ATOM     22  C   UNL     1      -9.784  -8.992  17.541  0.00  0.00    +0.218 C 
ATOM     36  H   UNL     1      -9.230 -11.003  17.549  0.00  0.00    +0.149 HD
BRANCH  22  23
ATOM     23  C   UNL     1     -11.198  -9.479  17.794  0.00  0.00    +0.130 C 
BRANCH  23  25
ATOM     25  C   UNL     1     -12.165  -9.095  16.704  0.00  0.00    -0.039 A 
ATOM     27  C   UNL     1     -11.797  -9.228  15.366  0.00  0.00    +0.004 A 
ATOM     28  C   UNL     1     -13.429  -8.606  17.034  0.00  0.00    +0.004 A 
ATOM     31  C   UNL     1     -12.692  -8.872  14.357  0.00  0.00    +0.000 A 
ATOM     32  C   UNL     1     -14.324  -8.251  16.026  0.00  0.00    +0.000 A 
ATOM     33  C   UNL     1     -13.956  -8.384  14.687  0.00  0.00    +0.000 A 
ENDBRANCH  23  25
ENDBRANCH  22  23
ENDBRANCH  14   4
BRANCH  10   1
ATOM      1  O   UNL     1      -5.478 -10.237  13.213  0.00  0.00    -0.391 OA
ATOM     37  H   UNL     1      -5.142  -9.325  13.260  0.00  0.00    +0.210 HD
ENDBRANCH  10   1
BRANCH  13  18
ATOM     18  C   UNL     1      -2.839 -11.500  12.940  0.00  0.00    +0.077 C 
ATOM     20  C   UNL     1      -1.640 -12.375  13.291  0.00  0.00    +0.017 C 
BRANCH  18  21
ATOM      2  O   UNL     1      -1.358  -9.917  11.860  0.00  0.00    -0.276 OA
ATOM      5  N   UNL     1      -3.519 -10.147  11.048  0.00  0.00    -0.311 N 
ATOM     21  C   UNL     1      -2.470 -10.440  11.907  0.00  0.00    +0.216 C 
ATOM     38  H   UNL     1      -4.391 -10.662  11.118  0.00  0.00    +0.149 HD
BRANCH   5  24
ATOM     24  C   UNL     1      -3.411  -9.174   9.986  0.00  0.00    +0.141 C 
BRANCH  24  26
ATOM      6  N   UNL     1      -6.050  -9.764   7.344  0.00  0.00    -0.263 NA
ATOM     26  C   UNL     1      -4.689  -9.047   9.208  0.00  0.00    -0.012 A 
ATOM     29  C   UNL     1      -5.673  -8.142   9.589  0.00  0.00    +0.008 A 
ATOM     30  C   UNL     1      -4.925  -9.828   8.089  0.00  0.00    +0.115 A 
ATOM     34  C   UNL     1      -6.847  -8.047   8.848  0.00  0.00    +0.020 A 
ATOM     35  C   UNL     1      -6.985  -8.872   7.743  0.00  0.00    +0.111 A 
ENDBRANCH  24  26
ENDBRANCH   5  24
ENDBRANCH  18  21
ENDBRANCH  13  18
TORSDOF 8
ENDMDL
