MODEL 1
REMARK VINA RESULT:      -7.3      0.000      0.000
REMARK  Name = 45783910
REMARK  10 active torsions:
REMARK  status: ('A' for Active; 'I' for Inactive)
REMARK    1  A    between atoms: N_3  and  C_13
REMARK    2  A    between atoms: C_8  and  C_12
REMARK    3  A    between atoms: C_9  and  C_13
REMARK    4  A    between atoms: C_11  and  C_16
REMARK    5  A    between atoms: C_12  and  C_17
REMARK    6  A    between atoms: C_12  and  C_18
REMARK    7  A    between atoms: C_15  and  C_21
REMARK    8  A    between atoms: C_16  and  C_24
REMARK    9  A    between atoms: C_25  and  C_27
REMARK   10  A    between atoms: C_26  and  C_28
REMARK                            x       y       z     vdW  Elec       q    Type
REMARK                         _______ _______ _______ _____ _____    ______ ____
ROOT
ATOM      8  C   UNL     1      -5.674 -10.628  10.881  0.00  0.00    +0.000 C 
ATOM      9  C   UNL     1      -4.989 -10.397   9.514  0.00  0.00    +0.029 C 
ATOM     10  C   UNL     1      -4.676 -11.206  11.893  0.00  0.00    +0.012 C 
ATOM     11  C   UNL     1      -3.425 -10.323  12.090  0.00  0.00    +0.024 C 
ATOM     14  C   UNL     1      -3.627  -9.765   9.649  0.00  0.00    -0.023 C 
ATOM     15  C   UNL     1      -2.918  -9.711  10.792  0.00  0.00    -0.073 C 
ATOM     21  C   UNL     1      -1.605  -8.979  10.836  0.00  0.00    +0.039 C 
ENDROOT
BRANCH   8  12
ATOM     12  C   UNL     1      -6.317  -9.339  11.410  0.00  0.00    -0.013 C 
ATOM     17  C   UNL     1      -7.388  -8.843  10.444  0.00  0.00    +0.007 C 
ATOM     18  C   UNL     1      -6.906  -9.568  12.798  0.00  0.00    +0.007 C 
ENDBRANCH   8  12
BRANCH   9  13
ATOM     13  C   UNL     1      -4.863 -11.698   8.717  0.00  0.00    +0.092 C 
BRANCH  13   3
ATOM      2  O   UNL     1      -6.510 -11.874   2.670  0.00  0.00    -0.276 OA
ATOM      3  N   UNL     1      -4.685 -11.416   7.292  0.00  0.00    -0.299 NA
ATOM      4  N   UNL     1      -5.063 -11.851   4.486  0.00  0.00    -0.299 N 
ATOM     19  C   UNL     1      -4.031 -12.549   6.620  0.00  0.00    +0.103 C 
ATOM     20  C   UNL     1      -5.978 -11.120   6.659  0.00  0.00    +0.103 C 
ATOM     22  C   UNL     1      -3.812 -12.252   5.136  0.00  0.00    +0.123 C 
ATOM     23  C   UNL     1      -5.793 -10.790   5.179  0.00  0.00    +0.123 C 
ATOM     25  C   UNL     1      -5.512 -12.308   3.248  0.00  0.00    +0.213 C 
ATOM     27  C   UNL     1      -4.704 -13.408   2.603  0.00  0.00    +0.109 C 
ENDBRANCH  13   3
ENDBRANCH   9  13
BRANCH  11  16
ATOM     16  C   UNL     1      -2.354 -11.146  12.819  0.00  0.00    +0.105 C 
BRANCH  16  24
ATOM      1  O   UNL     1      -3.714 -10.876  14.827  0.00  0.00    -0.420 OA
ATOM      5  N   UNL     1      -1.512 -10.939  15.214  0.00  0.00    -0.112 NA
ATOM      6  N   UNL     1      -2.155 -10.786  16.427  0.00  0.00    -0.107 NA
ATOM     24  C   UNL     1      -2.461 -10.989  14.308  0.00  0.00    +0.218 A 
ATOM     26  C   UNL     1      -3.438 -10.753  16.154  0.00  0.00    +0.248 A 
BRANCH  26  28
ATOM      7  N   UNL     1      -6.783 -10.338  18.709  0.00  0.00    -0.263 NA
ATOM     28  C   UNL     1      -4.572 -10.612  17.021  0.00  0.00    +0.041 A 
ATOM     29  C   UNL     1      -5.684  -9.890  16.602  0.00  0.00    +0.033 A 
ATOM     30  C   UNL     1      -4.563 -11.197  18.282  0.00  0.00    +0.033 A 
ATOM     31  C   UNL     1      -6.754  -9.784  17.476  0.00  0.00    +0.111 A 
ATOM     32  C   UNL     1      -5.684 -11.032  19.081  0.00  0.00    +0.111 A 
ENDBRANCH  26  28
ENDBRANCH  16  24
ENDBRANCH  11  16
TORSDOF 6
ENDMDL
MODEL 2
REMARK VINA RESULT:      -7.2     26.488     30.184
REMARK  Name = 45783910
REMARK  10 active torsions:
REMARK  status: ('A' for Active; 'I' for Inactive)
REMARK    1  A    between atoms: N_3  and  C_13
REMARK    2  A    between atoms: C_8  and  C_12
REMARK    3  A    between atoms: C_9  and  C_13
REMARK    4  A    between atoms: C_11  and  C_16
REMARK    5  A    between atoms: C_12  and  C_17
REMARK    6  A    between atoms: C_12  and  C_18
REMARK    7  A    between atoms: C_15  and  C_21
REMARK    8  A    between atoms: C_16  and  C_24
REMARK    9  A    between atoms: C_25  and  C_27
REMARK   10  A    between atoms: C_26  and  C_28
REMARK                            x       y       z     vdW  Elec       q    Type
REMARK                         _______ _______ _______ _____ _____    ______ ____
ROOT
ATOM      8  C   UNL     1      13.218  10.631  21.647  0.00  0.00    +0.000 C 
ATOM      9  C   UNL     1      14.178   9.456  21.945  0.00  0.00    +0.029 C 
ATOM     10  C   UNL     1      12.288  10.283  20.476  0.00  0.00    +0.012 C 
ATOM     11  C   UNL     1      11.467   8.997  20.709  0.00  0.00    +0.024 C 
ATOM     14  C   UNL     1      13.480   8.120  21.930  0.00  0.00    -0.023 C 
ATOM     15  C   UNL     1      12.265   7.897  21.395  0.00  0.00    -0.073 C 
ATOM     21  C   UNL     1      11.622   6.542  21.511  0.00  0.00    +0.039 C 
ENDROOT
BRANCH   8  12
ATOM     12  C   UNL     1      12.416  11.028  22.893  0.00  0.00    -0.013 C 
ATOM     17  C   UNL     1      13.345  11.585  23.968  0.00  0.00    +0.007 C 
ATOM     18  C   UNL     1      11.338  12.044  22.531  0.00  0.00    +0.007 C 
ENDBRANCH   8  12
BRANCH   9  13
ATOM     13  C   UNL     1      15.352   9.421  20.961  0.00  0.00    +0.092 C 
BRANCH  13   3
ATOM      2  O   UNL     1      21.258   7.325  21.154  0.00  0.00    -0.276 OA
ATOM      3  N   UNL     1      16.448   8.611  21.494  0.00  0.00    -0.299 NA
ATOM      4  N   UNL     1      18.949   7.219  21.380  0.00  0.00    -0.299 N 
ATOM     19  C   UNL     1      16.563   7.347  20.752  0.00  0.00    +0.103 C 
ATOM     20  C   UNL     1      17.714   9.356  21.441  0.00  0.00    +0.103 C 
ATOM     22  C   UNL     1      17.686   6.478  21.321  0.00  0.00    +0.123 C 
ATOM     23  C   UNL     1      18.855   8.527  22.029  0.00  0.00    +0.123 C 
ATOM     25  C   UNL     1      20.193   6.726  20.990  0.00  0.00    +0.213 C 
ATOM     27  C   UNL     1      20.202   5.372  20.325  0.00  0.00    +0.109 C 
ENDBRANCH  13   3
ENDBRANCH   9  13
BRANCH  11  16
ATOM     16  C   UNL     1      10.865   8.550  19.371  0.00  0.00    +0.105 C 
BRANCH  16  24
ATOM      1  O   UNL     1      12.611   9.532  17.976  0.00  0.00    -0.420 OA
ATOM      5  N   UNL     1      12.298   7.341  17.647  0.00  0.00    -0.112 NA
ATOM      6  N   UNL     1      13.306   7.761  16.800  0.00  0.00    -0.107 NA
ATOM     24  C   UNL     1      11.922   8.407  18.315  0.00  0.00    +0.218 A 
ATOM     26  C   UNL     1      13.455   9.045  17.026  0.00  0.00    +0.248 A 
BRANCH  26  28
ATOM      7  N   UNL     1      16.100  11.852  15.291  0.00  0.00    -0.263 NA
ATOM     28  C   UNL     1      14.353   9.996  16.437  0.00  0.00    +0.041 A 
ATOM     29  C   UNL     1      14.775   9.837  15.123  0.00  0.00    +0.033 A 
ATOM     30  C   UNL     1      14.802  11.083  17.179  0.00  0.00    +0.033 A 
ATOM     31  C   UNL     1      15.642  10.784  14.601  0.00  0.00    +0.111 A 
ATOM     32  C   UNL     1      15.667  11.975  16.565  0.00  0.00    +0.111 A 
ENDBRANCH  26  28
ENDBRANCH  16  24
ENDBRANCH  11  16
TORSDOF 6
ENDMDL
MODEL 3
REMARK VINA RESULT:      -7.2     27.684     31.015
REMARK  Name = 45783910
REMARK  10 active torsions:
REMARK  status: ('A' for Active; 'I' for Inactive)
REMARK    1  A    between atoms: N_3  and  C_13
REMARK    2  A    between atoms: C_8  and  C_12
REMARK    3  A    between atoms: C_9  and  C_13
REMARK    4  A    between atoms: C_11  and  C_16
REMARK    5  A    between atoms: C_12  and  C_17
REMARK    6  A    between atoms: C_12  and  C_18
REMARK    7  A    between atoms: C_15  and  C_21
REMARK    8  A    between atoms: C_16  and  C_24
REMARK    9  A    between atoms: C_25  and  C_27
REMARK   10  A    between atoms: C_26  and  C_28
REMARK                            x       y       z     vdW  Elec       q    Type
REMARK                         _______ _______ _______ _____ _____    ______ ____
ROOT
ATOM      8  C   UNL     1      14.564  10.684  20.320  0.00  0.00    +0.000 C 
ATOM      9  C   UNL     1      13.204  10.755  19.589  0.00  0.00    +0.029 C 
ATOM     10  C   UNL     1      14.955   9.225  20.590  0.00  0.00    +0.012 C 
ATOM     11  C   UNL     1      15.016   8.363  19.310  0.00  0.00    +0.024 C 
ATOM     14  C   UNL     1      13.092   9.745  18.475  0.00  0.00    -0.023 C 
ATOM     15  C   UNL     1      13.899   8.677  18.326  0.00  0.00    -0.073 C 
ATOM     21  C   UNL     1      13.755   7.779  17.128  0.00  0.00    +0.039 C 
ENDROOT
BRANCH   8  12
ATOM     12  C   UNL     1      15.660  11.418  19.536  0.00  0.00    -0.013 C 
ATOM     17  C   UNL     1      15.251  12.863  19.275  0.00  0.00    +0.007 C 
ATOM     18  C   UNL     1      16.985  11.358  20.291  0.00  0.00    +0.007 C 
ENDBRANCH   8  12
BRANCH   9  13
ATOM     13  C   UNL     1      12.030  10.570  20.555  0.00  0.00    +0.092 C 
BRANCH  13   3
ATOM      2  O   UNL     1      10.198  13.182  25.952  0.00  0.00    -0.276 OA
ATOM      3  N   UNL     1      12.213  11.389  21.753  0.00  0.00    -0.299 NA
ATOM      4  N   UNL     1      11.356  13.022  23.946  0.00  0.00    -0.299 N 
ATOM     19  C   UNL     1      11.736  12.760  21.518  0.00  0.00    +0.103 C 
ATOM     20  C   UNL     1      11.515  10.791  22.900  0.00  0.00    +0.103 C 
ATOM     22  C   UNL     1      11.952  13.635  22.754  0.00  0.00    +0.123 C 
ATOM     23  C   UNL     1      11.732  11.625  24.161  0.00  0.00    +0.123 C 
ATOM     25  C   UNL     1      10.594  13.692  24.902  0.00  0.00    +0.213 C 
ATOM     27  C   UNL     1      10.245  15.128  24.600  0.00  0.00    +0.109 C 
ENDBRANCH  13   3
ENDBRANCH   9  13
BRANCH  11  16
ATOM     16  C   UNL     1      15.053   6.884  19.717  0.00  0.00    +0.105 C 
BRANCH  16  24
ATOM      1  O   UNL     1      17.308   6.517  20.576  0.00  0.00    -0.420 OA
ATOM      5  N   UNL     1      16.934   5.610  18.566  0.00  0.00    -0.112 NA
ATOM      6  N   UNL     1      18.238   5.327  18.926  0.00  0.00    -0.107 NA
ATOM     24  C   UNL     1      16.429   6.305  19.558  0.00  0.00    +0.218 A 
ATOM     26  C   UNL     1      18.412   5.875  20.106  0.00  0.00    +0.248 A 
BRANCH  26  28
ATOM      7  N   UNL     1      21.809   5.953  22.625  0.00  0.00    -0.263 NA
ATOM     28  C   UNL     1      19.565   5.902  20.960  0.00  0.00    +0.041 A 
ATOM     29  C   UNL     1      19.552   6.660  22.125  0.00  0.00    +0.033 A 
ATOM     30  C   UNL     1      20.697   5.169  20.626  0.00  0.00    +0.033 A 
ATOM     31  C   UNL     1      20.689   6.652  22.916  0.00  0.00    +0.111 A 
ATOM     32  C   UNL     1      21.784   5.228  21.485  0.00  0.00    +0.111 A 
ENDBRANCH  26  28
ENDBRANCH  16  24
ENDBRANCH  11  16
TORSDOF 6
ENDMDL
MODEL 4
REMARK VINA RESULT:      -7.1      1.051      1.766
REMARK  Name = 45783910
REMARK  10 active torsions:
REMARK  status: ('A' for Active; 'I' for Inactive)
REMARK    1  A    between atoms: N_3  and  C_13
REMARK    2  A    between atoms: C_8  and  C_12
REMARK    3  A    between atoms: C_9  and  C_13
REMARK    4  A    between atoms: C_11  and  C_16
REMARK    5  A    between atoms: C_12  and  C_17
REMARK    6  A    between atoms: C_12  and  C_18
REMARK    7  A    between atoms: C_15  and  C_21
REMARK    8  A    between atoms: C_16  and  C_24
REMARK    9  A    between atoms: C_25  and  C_27
REMARK   10  A    between atoms: C_26  and  C_28
REMARK                            x       y       z     vdW  Elec       q    Type
REMARK                         _______ _______ _______ _____ _____    ______ ____
ROOT
ATOM      8  C   UNL     1      -5.486 -10.464  10.624  0.00  0.00    +0.000 C 
ATOM      9  C   UNL     1      -4.690 -10.083   9.354  0.00  0.00    +0.029 C 
ATOM     10  C   UNL     1      -4.583 -11.195  11.627  0.00  0.00    +0.012 C 
ATOM     11  C   UNL     1      -3.333 -10.382  12.029  0.00  0.00    +0.024 C 
ATOM     14  C   UNL     1      -3.330  -9.515   9.672  0.00  0.00    -0.023 C 
ATOM     15  C   UNL     1      -2.713  -9.627  10.863  0.00  0.00    -0.073 C 
ATOM     21  C   UNL     1      -1.392  -8.946  11.100  0.00  0.00    +0.039 C 
ENDROOT
BRANCH   8  12
ATOM     12  C   UNL     1      -6.142  -9.232  11.263  0.00  0.00    -0.013 C 
ATOM     17  C   UNL     1      -7.307  -8.747  10.407  0.00  0.00    +0.007 C 
ATOM     18  C   UNL     1      -6.608  -9.553  12.680  0.00  0.00    +0.007 C 
ENDBRANCH   8  12
BRANCH   9  13
ATOM     13  C   UNL     1      -4.527 -11.278   8.409  0.00  0.00    +0.092 C 
BRANCH  13   3
ATOM      2  O   UNL     1      -7.091 -11.272   2.687  0.00  0.00    -0.276 OA
ATOM      3  N   UNL     1      -5.641 -11.342   7.462  0.00  0.00    -0.299 NA
ATOM      4  N   UNL     1      -6.969 -10.862   4.970  0.00  0.00    -0.299 N 
ATOM     19  C   UNL     1      -6.099  -9.989   7.112  0.00  0.00    +0.103 C 
ATOM     20  C   UNL     1      -5.249 -12.081   6.253  0.00  0.00    +0.103 C 
ATOM     22  C   UNL     1      -7.284 -10.046   6.146  0.00  0.00    +0.123 C 
ATOM     23  C   UNL     1      -6.419 -12.182   5.277  0.00  0.00    +0.123 C 
ATOM     25  C   UNL     1      -7.263 -10.522   3.650  0.00  0.00    +0.213 C 
ATOM     27  C   UNL     1      -7.823  -9.140   3.419  0.00  0.00    +0.109 C 
ENDBRANCH  13   3
ENDBRANCH   9  13
BRANCH  11  16
ATOM     16  C   UNL     1      -2.340 -11.322  12.726  0.00  0.00    +0.105 C 
BRANCH  16  24
ATOM      1  O   UNL     1      -3.568 -11.120  14.826  0.00  0.00    -0.420 OA
ATOM      5  N   UNL     1      -1.348 -10.951  15.043  0.00  0.00    -0.112 NA
ATOM      6  N   UNL     1      -1.911 -10.820  16.298  0.00  0.00    -0.107 NA
ATOM     24  C   UNL     1      -2.352 -11.125  14.215  0.00  0.00    +0.218 A 
ATOM     26  C   UNL     1      -3.207 -10.925  16.124  0.00  0.00    +0.248 A 
BRANCH  26  28
ATOM      7  N   UNL     1      -6.376 -10.753  18.920  0.00  0.00    -0.263 NA
ATOM     28  C   UNL     1      -4.282 -10.867  17.072  0.00  0.00    +0.041 A 
ATOM     29  C   UNL     1      -4.168 -11.515  18.297  0.00  0.00    +0.033 A 
ATOM     30  C   UNL     1      -5.441 -10.162  16.770  0.00  0.00    +0.033 A 
ATOM     31  C   UNL     1      -5.234 -11.428  19.178  0.00  0.00    +0.111 A 
ATOM     32  C   UNL     1      -6.450 -10.136  17.721  0.00  0.00    +0.111 A 
ENDBRANCH  26  28
ENDBRANCH  16  24
ENDBRANCH  11  16
TORSDOF 6
ENDMDL
MODEL 5
REMARK VINA RESULT:      -7.1      3.381      9.199
REMARK  Name = 45783910
REMARK  10 active torsions:
REMARK  status: ('A' for Active; 'I' for Inactive)
REMARK    1  A    between atoms: N_3  and  C_13
REMARK    2  A    between atoms: C_8  and  C_12
REMARK    3  A    between atoms: C_9  and  C_13
REMARK    4  A    between atoms: C_11  and  C_16
REMARK    5  A    between atoms: C_12  and  C_17
REMARK    6  A    between atoms: C_12  and  C_18
REMARK    7  A    between atoms: C_15  and  C_21
REMARK    8  A    between atoms: C_16  and  C_24
REMARK    9  A    between atoms: C_25  and  C_27
REMARK   10  A    between atoms: C_26  and  C_28
REMARK                            x       y       z     vdW  Elec       q    Type
REMARK                         _______ _______ _______ _____ _____    ______ ____
ROOT
ATOM      8  C   UNL     1      -3.951 -11.884  12.103  0.00  0.00    +0.000 C 
ATOM      9  C   UNL     1      -3.076 -11.330  13.250  0.00  0.00    +0.029 C 
ATOM     10  C   UNL     1      -4.275 -10.778  11.089  0.00  0.00    +0.012 C 
ATOM     11  C   UNL     1      -3.018 -10.105  10.496  0.00  0.00    +0.024 C 
ATOM     14  C   UNL     1      -1.966 -10.438  12.753  0.00  0.00    -0.023 C 
ATOM     15  C   UNL     1      -1.916  -9.892  11.523  0.00  0.00    -0.073 C 
ATOM     21  C   UNL     1      -0.718  -9.086  11.100  0.00  0.00    +0.039 C 
ENDROOT
BRANCH   8  12
ATOM     12  C   UNL     1      -3.283 -13.084  11.419  0.00  0.00    -0.013 C 
ATOM     17  C   UNL     1      -2.860 -14.119  12.456  0.00  0.00    +0.007 C 
ATOM     18  C   UNL     1      -4.225 -13.703  10.390  0.00  0.00    +0.007 C 
ENDBRANCH   8  12
BRANCH   9  13
ATOM     13  C   UNL     1      -3.912 -10.565  14.281  0.00  0.00    +0.092 C 
BRANCH  13   3
ATOM      2  O   UNL     1      -7.387 -12.900  18.949  0.00  0.00    -0.276 OA
ATOM      3  N   UNL     1      -4.145 -11.387  15.469  0.00  0.00    -0.299 NA
ATOM      4  N   UNL     1      -5.461 -12.130  17.902  0.00  0.00    -0.299 N 
ATOM     19  C   UNL     1      -3.953 -10.592  16.691  0.00  0.00    +0.103 C 
ATOM     20  C   UNL     1      -5.494 -11.968  15.439  0.00  0.00    +0.103 C 
ATOM     22  C   UNL     1      -4.164 -11.450  17.940  0.00  0.00    +0.123 C 
ATOM     23  C   UNL     1      -5.729 -12.855  16.660  0.00  0.00    +0.123 C 
ATOM     25  C   UNL     1      -6.353 -12.228  18.969  0.00  0.00    +0.213 C 
ATOM     27  C   UNL     1      -6.005 -11.446  20.212  0.00  0.00    +0.109 C 
ENDBRANCH  13   3
ENDBRANCH   9  13
BRANCH  11  16
ATOM     16  C   UNL     1      -3.440  -8.806   9.797  0.00  0.00    +0.105 C 
BRANCH  16  24
ATOM      1  O   UNL     1      -5.751  -8.112   9.425  0.00  0.00    -0.420 OA
ATOM      5  N   UNL     1      -5.094  -9.832   8.154  0.00  0.00    -0.112 NA
ATOM      6  N   UNL     1      -6.410  -9.548   7.842  0.00  0.00    -0.107 NA
ATOM     24  C   UNL     1      -4.750  -8.970   9.082  0.00  0.00    +0.218 A 
ATOM     26  C   UNL     1      -6.752  -8.538   8.607  0.00  0.00    +0.248 A 
BRANCH  26  28
ATOM      7  N   UNL     1     -10.413  -6.443   8.916  0.00  0.00    -0.263 NA
ATOM     28  C   UNL     1      -7.993  -7.827   8.713  0.00  0.00    +0.041 A 
ATOM     29  C   UNL     1      -8.109  -6.545   8.187  0.00  0.00    +0.033 A 
ATOM     30  C   UNL     1      -9.085  -8.418   9.338  0.00  0.00    +0.033 A 
ATOM     31  C   UNL     1      -9.330  -5.901   8.314  0.00  0.00    +0.111 A 
ATOM     32  C   UNL     1     -10.262  -7.690   9.413  0.00  0.00    +0.111 A 
ENDBRANCH  26  28
ENDBRANCH  16  24
ENDBRANCH  11  16
TORSDOF 6
ENDMDL
MODEL 6
REMARK VINA RESULT:      -7.0      2.276     10.007
REMARK  Name = 45783910
REMARK  10 active torsions:
REMARK  status: ('A' for Active; 'I' for Inactive)
REMARK    1  A    between atoms: N_3  and  C_13
REMARK    2  A    between atoms: C_8  and  C_12
REMARK    3  A    between atoms: C_9  and  C_13
REMARK    4  A    between atoms: C_11  and  C_16
REMARK    5  A    between atoms: C_12  and  C_17
REMARK    6  A    between atoms: C_12  and  C_18
REMARK    7  A    between atoms: C_15  and  C_21
REMARK    8  A    between atoms: C_16  and  C_24
REMARK    9  A    between atoms: C_25  and  C_27
REMARK   10  A    between atoms: C_26  and  C_28
REMARK                            x       y       z     vdW  Elec       q    Type
REMARK                         _______ _______ _______ _____ _____    ______ ____
ROOT
ATOM      8  C   UNL     1      -3.910 -11.976  12.169  0.00  0.00    +0.000 C 
ATOM      9  C   UNL     1      -3.053 -11.315  13.273  0.00  0.00    +0.029 C 
ATOM     10  C   UNL     1      -4.333 -10.938  11.121  0.00  0.00    +0.012 C 
ATOM     11  C   UNL     1      -3.140 -10.203  10.472  0.00  0.00    +0.024 C 
ATOM     14  C   UNL     1      -2.021 -10.367  12.715  0.00  0.00    -0.023 C 
ATOM     15  C   UNL     1      -2.035  -9.870  11.464  0.00  0.00    -0.073 C 
ATOM     21  C   UNL     1      -0.907  -9.000  10.982  0.00  0.00    +0.039 C 
ENDROOT
BRANCH   8  12
ATOM     12  C   UNL     1      -3.172 -13.154  11.518  0.00  0.00    -0.013 C 
ATOM     17  C   UNL     1      -2.661 -14.117  12.585  0.00  0.00    +0.007 C 
ATOM     18  C   UNL     1      -4.085 -13.874  10.531  0.00  0.00    +0.007 C 
ENDBRANCH   8  12
BRANCH   9  13
ATOM     13  C   UNL     1      -3.920 -10.570  14.293  0.00  0.00    +0.092 C 
BRANCH  13   3
ATOM      2  O   UNL     1      -7.352 -12.914  18.987  0.00  0.00    -0.276 OA
ATOM      3  N   UNL     1      -4.142 -11.392  15.482  0.00  0.00    -0.299 NA
ATOM      4  N   UNL     1      -5.437 -12.140  17.925  0.00  0.00    -0.299 N 
ATOM     19  C   UNL     1      -3.942 -10.598  16.703  0.00  0.00    +0.103 C 
ATOM     20  C   UNL     1      -5.491 -11.976  15.463  0.00  0.00    +0.103 C 
ATOM     22  C   UNL     1      -4.140 -11.457  17.953  0.00  0.00    +0.123 C 
ATOM     23  C   UNL     1      -5.714 -12.864  16.685  0.00  0.00    +0.123 C 
ATOM     25  C   UNL     1      -6.320 -12.240  19.000  0.00  0.00    +0.213 C 
ATOM     27  C   UNL     1      -5.963 -11.457  20.240  0.00  0.00    +0.109 C 
ENDBRANCH  13   3
ENDBRANCH   9  13
BRANCH  11  16
ATOM     16  C   UNL     1      -3.669  -8.968   9.732  0.00  0.00    +0.105 C 
BRANCH  16  24
ATOM      1  O   UNL     1      -4.564  -9.880   7.653  0.00  0.00    -0.420 OA
ATOM      5  N   UNL     1      -6.124  -9.146   9.078  0.00  0.00    -0.112 NA
ATOM      6  N   UNL     1      -6.766  -9.632   7.955  0.00  0.00    -0.107 NA
ATOM     24  C   UNL     1      -4.840  -9.312   8.859  0.00  0.00    +0.218 A 
ATOM     26  C   UNL     1      -5.817 -10.049   7.150  0.00  0.00    +0.248 A 
BRANCH  26  28
ATOM      7  N   UNL     1      -6.050 -11.809   3.311  0.00  0.00    -0.263 NA
ATOM     28  C   UNL     1      -5.895 -10.646   5.848  0.00  0.00    +0.041 A 
ATOM     29  C   UNL     1      -4.912 -11.534   5.427  0.00  0.00    +0.033 A 
ATOM     30  C   UNL     1      -6.956 -10.339   5.003  0.00  0.00    +0.033 A 
ATOM     31  C   UNL     1      -5.034 -12.083   4.161  0.00  0.00    +0.111 A 
ATOM     32  C   UNL     1      -6.986 -10.942   3.755  0.00  0.00    +0.111 A 
ENDBRANCH  26  28
ENDBRANCH  16  24
ENDBRANCH  11  16
TORSDOF 6
ENDMDL
MODEL 7
REMARK VINA RESULT:      -6.8      3.004      6.031
REMARK  Name = 45783910
REMARK  10 active torsions:
REMARK  status: ('A' for Active; 'I' for Inactive)
REMARK    1  A    between atoms: N_3  and  C_13
REMARK    2  A    between atoms: C_8  and  C_12
REMARK    3  A    between atoms: C_9  and  C_13
REMARK    4  A    between atoms: C_11  and  C_16
REMARK    5  A    between atoms: C_12  and  C_17
REMARK    6  A    between atoms: C_12  and  C_18
REMARK    7  A    between atoms: C_15  and  C_21
REMARK    8  A    between atoms: C_16  and  C_24
REMARK    9  A    between atoms: C_25  and  C_27
REMARK   10  A    between atoms: C_26  and  C_28
REMARK                            x       y       z     vdW  Elec       q    Type
REMARK                         _______ _______ _______ _____ _____    ______ ____
ROOT
ATOM      8  C   UNL     1      -3.539 -10.564  15.383  0.00  0.00    +0.000 C 
ATOM      9  C   UNL     1      -4.534 -11.490  14.646  0.00  0.00    +0.029 C 
ATOM     10  C   UNL     1      -4.011 -10.300  16.819  0.00  0.00    +0.012 C 
ATOM     11  C   UNL     1      -4.216 -11.591  17.642  0.00  0.00    +0.024 C 
ATOM     14  C   UNL     1      -4.986 -12.649  15.498  0.00  0.00    -0.023 C 
ATOM     15  C   UNL     1      -4.842 -12.719  16.835  0.00  0.00    -0.073 C 
ATOM     21  C   UNL     1      -5.250 -13.961  17.578  0.00  0.00    +0.039 C 
ENDROOT
BRANCH   8  12
ATOM     12  C   UNL     1      -2.117 -11.142  15.363  0.00  0.00    -0.013 C 
ATOM     17  C   UNL     1      -1.841 -11.829  14.030  0.00  0.00    +0.007 C 
ATOM     18  C   UNL     1      -1.093 -10.043  15.628  0.00  0.00    +0.007 C 
ENDBRANCH   8  12
BRANCH   9  13
ATOM     13  C   UNL     1      -5.763 -10.721  14.151  0.00  0.00    +0.092 C 
BRANCH  13   3
ATOM      2  O   UNL     1      -6.842  -8.788   8.285  0.00  0.00    -0.276 OA
ATOM      3  N   UNL     1      -5.452  -9.983  12.927  0.00  0.00    -0.299 NA
ATOM      4  N   UNL     1      -5.570  -9.433  10.118  0.00  0.00    -0.299 N 
ATOM     19  C   UNL     1      -4.745 -10.847  11.969  0.00  0.00    +0.103 C 
ATOM     20  C   UNL     1      -6.678  -9.442  12.324  0.00  0.00    +0.103 C 
ATOM     22  C   UNL     1      -4.387 -10.076  10.698  0.00  0.00    +0.123 C 
ATOM     23  C   UNL     1      -6.354  -8.640  11.065  0.00  0.00    +0.123 C 
ATOM     25  C   UNL     1      -5.904  -9.429   8.765  0.00  0.00    +0.213 C 
ATOM     27  C   UNL     1      -5.048 -10.277   7.857  0.00  0.00    +0.109 C 
ENDBRANCH  13   3
ENDBRANCH   9  13
BRANCH  11  16
ATOM     16  C   UNL     1      -5.017 -11.245  18.904  0.00  0.00    +0.105 C 
BRANCH  16  24
ATOM      1  O   UNL     1      -6.855 -10.139  17.742  0.00  0.00    -0.420 OA
ATOM      5  N   UNL     1      -7.491 -11.831  19.059  0.00  0.00    -0.112 NA
ATOM      6  N   UNL     1      -8.622 -11.302  18.468  0.00  0.00    -0.107 NA
ATOM     24  C   UNL     1      -6.483 -11.122  18.606  0.00  0.00    +0.218 A 
ATOM     26  C   UNL     1      -8.205 -10.317  17.709  0.00  0.00    +0.248 A 
BRANCH  26  28
ATOM      7  N   UNL     1     -10.358  -7.661  15.218  0.00  0.00    -0.263 NA
ATOM     28  C   UNL     1      -8.936  -9.416  16.864  0.00  0.00    +0.041 A 
ATOM     29  C   UNL     1      -9.522  -8.277  17.402  0.00  0.00    +0.033 A 
ATOM     30  C   UNL     1      -9.058  -9.679  15.505  0.00  0.00    +0.033 A 
ATOM     31  C   UNL     1     -10.216  -7.438  16.545  0.00  0.00    +0.111 A 
ATOM     32  C   UNL     1      -9.773  -8.778  14.732  0.00  0.00    +0.111 A 
ENDBRANCH  26  28
ENDBRANCH  16  24
ENDBRANCH  11  16
TORSDOF 6
ENDMDL
MODEL 8
REMARK VINA RESULT:      -6.7     27.735     31.456
REMARK  Name = 45783910
REMARK  10 active torsions:
REMARK  status: ('A' for Active; 'I' for Inactive)
REMARK    1  A    between atoms: N_3  and  C_13
REMARK    2  A    between atoms: C_8  and  C_12
REMARK    3  A    between atoms: C_9  and  C_13
REMARK    4  A    between atoms: C_11  and  C_16
REMARK    5  A    between atoms: C_12  and  C_17
REMARK    6  A    between atoms: C_12  and  C_18
REMARK    7  A    between atoms: C_15  and  C_21
REMARK    8  A    between atoms: C_16  and  C_24
REMARK    9  A    between atoms: C_25  and  C_27
REMARK   10  A    between atoms: C_26  and  C_28
REMARK                            x       y       z     vdW  Elec       q    Type
REMARK                         _______ _______ _______ _____ _____    ______ ____
ROOT
ATOM      8  C   UNL     1      17.806   6.590  21.108  0.00  0.00    +0.000 C 
ATOM      9  C   UNL     1      19.154   7.237  21.502  0.00  0.00    +0.029 C 
ATOM     10  C   UNL     1      16.632   7.442  21.610  0.00  0.00    +0.012 C 
ATOM     11  C   UNL     1      16.671   8.899  21.098  0.00  0.00    +0.024 C 
ATOM     14  C   UNL     1      19.171   8.727  21.268  0.00  0.00    -0.023 C 
ATOM     15  C   UNL     1      18.075   9.484  21.073  0.00  0.00    -0.073 C 
ATOM     21  C   UNL     1      18.212  10.949  20.762  0.00  0.00    +0.039 C 
ENDROOT
BRANCH   8  12
ATOM     12  C   UNL     1      17.717   6.361  19.593  0.00  0.00    -0.013 C 
ATOM     17  C   UNL     1      18.513   5.122  19.195  0.00  0.00    +0.007 C 
ATOM     18  C   UNL     1      16.260   6.230  19.160  0.00  0.00    +0.007 C 
ENDBRANCH   8  12
BRANCH   9  13
ATOM     13  C   UNL     1      19.512   6.953  22.964  0.00  0.00    +0.092 C 
BRANCH  13   3
ATOM      2  O   UNL     1      25.498   5.090  23.056  0.00  0.00    -0.276 OA
ATOM      3  N   UNL     1      20.584   5.961  23.050  0.00  0.00    -0.299 NA
ATOM      4  N   UNL     1      23.223   4.936  22.613  0.00  0.00    -0.299 N 
ATOM     19  C   UNL     1      21.005   5.540  21.705  0.00  0.00    +0.103 C 
ATOM     20  C   UNL     1      21.726   6.499  23.802  0.00  0.00    +0.103 C 
ATOM     22  C   UNL     1      22.104   4.479  21.784  0.00  0.00    +0.123 C 
ATOM     23  C   UNL     1      22.834   5.453  23.925  0.00  0.00    +0.123 C 
ATOM     25  C   UNL     1      24.573   4.799  22.294  0.00  0.00    +0.213 C 
ATOM     27  C   UNL     1      24.889   4.263  20.919  0.00  0.00    +0.109 C 
ENDBRANCH  13   3
ENDBRANCH   9  13
BRANCH  11  16
ATOM     16  C   UNL     1      15.690   9.737  21.929  0.00  0.00    +0.105 C 
BRANCH  16  24
ATOM      1  O   UNL     1      14.286   9.506  19.945  0.00  0.00    -0.420 OA
ATOM      5  N   UNL     1      13.182  10.154  21.779  0.00  0.00    -0.112 NA
ATOM      6  N   UNL     1      12.273  10.064  20.743  0.00  0.00    -0.107 NA
ATOM     24  C   UNL     1      14.344   9.819  21.269  0.00  0.00    +0.218 A 
ATOM     26  C   UNL     1      12.961   9.684  19.692  0.00  0.00    +0.248 A 
BRANCH  26  28
ATOM      7  N   UNL     1      11.721   8.933  15.718  0.00  0.00    -0.263 NA
ATOM     28  C   UNL     1      12.540   9.430  18.345  0.00  0.00    +0.041 A 
ATOM     29  C   UNL     1      13.307   9.883  17.277  0.00  0.00    +0.033 A 
ATOM     30  C   UNL     1      11.365   8.729  18.101  0.00  0.00    +0.033 A 
ATOM     31  C   UNL     1      12.858   9.611  15.995  0.00  0.00    +0.111 A 
ATOM     32  C   UNL     1      11.002   8.509  16.781  0.00  0.00    +0.111 A 
ENDBRANCH  26  28
ENDBRANCH  16  24
ENDBRANCH  11  16
TORSDOF 6
ENDMDL
MODEL 9
REMARK VINA RESULT:      -6.7     22.237     24.534
REMARK  Name = 45783910
REMARK  10 active torsions:
REMARK  status: ('A' for Active; 'I' for Inactive)
REMARK    1  A    between atoms: N_3  and  C_13
REMARK    2  A    between atoms: C_8  and  C_12
REMARK    3  A    between atoms: C_9  and  C_13
REMARK    4  A    between atoms: C_11  and  C_16
REMARK    5  A    between atoms: C_12  and  C_17
REMARK    6  A    between atoms: C_12  and  C_18
REMARK    7  A    between atoms: C_15  and  C_21
REMARK    8  A    between atoms: C_16  and  C_24
REMARK    9  A    between atoms: C_25  and  C_27
REMARK   10  A    between atoms: C_26  and  C_28
REMARK                            x       y       z     vdW  Elec       q    Type
REMARK                         _______ _______ _______ _____ _____    ______ ____
ROOT
ATOM      8  C   UNL     1      10.948   4.878  -1.198  0.00  0.00    +0.000 C 
ATOM      9  C   UNL     1      11.941   3.805  -1.701  0.00  0.00    +0.029 C 
ATOM     10  C   UNL     1      10.508   4.574   0.240  0.00  0.00    +0.012 C 
ATOM     11  C   UNL     1      11.688   4.462   1.230  0.00  0.00    +0.024 C 
ATOM     14  C   UNL     1      12.983   3.452  -0.670  0.00  0.00    -0.023 C 
ATOM     15  C   UNL     1      12.895   3.747   0.640  0.00  0.00    -0.073 C 
ATOM     21  C   UNL     1      14.033   3.424   1.568  0.00  0.00    +0.039 C 
ENDROOT
BRANCH   8  12
ATOM     12  C   UNL     1      11.545   6.288  -1.309  0.00  0.00    -0.013 C 
ATOM     17  C   UNL     1      11.969   6.575  -2.745  0.00  0.00    +0.007 C 
ATOM     18  C   UNL     1      10.543   7.330  -0.821  0.00  0.00    +0.007 C 
ENDBRANCH   8  12
BRANCH   9  13
ATOM     13  C   UNL     1      11.218   2.529  -2.144  0.00  0.00    +0.092 C 
BRANCH  13   3
ATOM      2  O   UNL     1      11.816   4.802  -7.957  0.00  0.00    -0.276 OA
ATOM      3  N   UNL     1      11.148   2.454  -3.603  0.00  0.00    -0.299 NA
ATOM      4  N   UNL     1      10.904   3.512  -6.254  0.00  0.00    -0.299 N 
ATOM     19  C   UNL     1       9.856   2.966  -4.084  0.00  0.00    +0.103 C 
ATOM     20  C   UNL     1      12.257   3.202  -4.212  0.00  0.00    +0.103 C 
ATOM     22  C   UNL     1       9.759   2.864  -5.607  0.00  0.00    +0.123 C 
ATOM     23  C   UNL     1      12.207   3.098  -5.736  0.00  0.00    +0.123 C 
ATOM     25  C   UNL     1      10.833   4.358  -7.360  0.00  0.00    +0.213 C 
ATOM     27  C   UNL     1       9.450   4.740  -7.828  0.00  0.00    +0.109 C 
ENDBRANCH  13   3
ENDBRANCH   9  13
BRANCH  11  16
ATOM     16  C   UNL     1      11.182   3.810   2.524  0.00  0.00    +0.105 C 
BRANCH  16  24
ATOM      1  O   UNL     1      10.502   4.382   4.797  0.00  0.00    -0.420 OA
ATOM      5  N   UNL     1      10.857   6.150   3.474  0.00  0.00    -0.112 NA
ATOM      6  N   UNL     1      10.482   6.617   4.720  0.00  0.00    -0.107 NA
ATOM     24  C   UNL     1      10.856   4.841   3.565  0.00  0.00    +0.218 A 
ATOM     26  C   UNL     1      10.285   5.551   5.459  0.00  0.00    +0.248 A 
BRANCH  26  28
ATOM      7  N   UNL     1       9.105   5.193   9.505  0.00  0.00    -0.263 NA
ATOM     28  C   UNL     1       9.884   5.429   6.831  0.00  0.00    +0.041 A 
ATOM     29  C   UNL     1       9.956   4.198   7.473  0.00  0.00    +0.033 A 
ATOM     30  C   UNL     1       9.424   6.543   7.525  0.00  0.00    +0.033 A 
ATOM     31  C   UNL     1       9.558   4.134   8.798  0.00  0.00    +0.111 A 
ATOM     32  C   UNL     1       9.050   6.373   8.849  0.00  0.00    +0.111 A 
ENDBRANCH  26  28
ENDBRANCH  16  24
ENDBRANCH  11  16
TORSDOF 6
ENDMDL
MODEL 10
REMARK VINA RESULT:      -6.7      3.875      9.257
REMARK  Name = 45783910
REMARK  10 active torsions:
REMARK  status: ('A' for Active; 'I' for Inactive)
REMARK    1  A    between atoms: N_3  and  C_13
REMARK    2  A    between atoms: C_8  and  C_12
REMARK    3  A    between atoms: C_9  and  C_13
REMARK    4  A    between atoms: C_11  and  C_16
REMARK    5  A    between atoms: C_12  and  C_17
REMARK    6  A    between atoms: C_12  and  C_18
REMARK    7  A    between atoms: C_15  and  C_21
REMARK    8  A    between atoms: C_16  and  C_24
REMARK    9  A    between atoms: C_25  and  C_27
REMARK   10  A    between atoms: C_26  and  C_28
REMARK                            x       y       z     vdW  Elec       q    Type
REMARK                         _______ _______ _______ _____ _____    ______ ____
ROOT
ATOM      8  C   UNL     1      -7.091 -12.394  17.045  0.00  0.00    +0.000 C 
ATOM      9  C   UNL     1      -7.229 -12.006  18.535  0.00  0.00    +0.029 C 
ATOM     10  C   UNL     1      -5.864 -11.714  16.422  0.00  0.00    +0.012 C 
ATOM     11  C   UNL     1      -4.547 -12.038  17.160  0.00  0.00    +0.024 C 
ATOM     14  C   UNL     1      -5.912 -12.048  19.268  0.00  0.00    -0.023 C 
ATOM     15  C   UNL     1      -4.705 -12.075  18.673  0.00  0.00    -0.073 C 
ATOM     21  C   UNL     1      -3.455 -12.204  19.500  0.00  0.00    +0.039 C 
ENDROOT
BRANCH   8  12
ATOM     12  C   UNL     1      -7.032 -13.917  16.866  0.00  0.00    -0.013 C 
ATOM     17  C   UNL     1      -8.257 -14.574  17.494  0.00  0.00    +0.007 C 
ATOM     18  C   UNL     1      -6.924 -14.276  15.387  0.00  0.00    +0.007 C 
ENDBRANCH   8  12
BRANCH   9  13
ATOM     13  C   UNL     1      -7.854 -10.618  18.703  0.00  0.00    +0.092 C 
BRANCH  13   3
ATOM      2  O   UNL     1     -11.545  -6.925  15.232  0.00  0.00    -0.276 OA
ATOM      3  N   UNL     1      -8.788 -10.337  17.613  0.00  0.00    -0.299 NA
ATOM      4  N   UNL     1     -10.864  -8.886  16.273  0.00  0.00    -0.299 N 
ATOM     19  C   UNL     1     -10.177 -10.413  18.091  0.00  0.00    +0.103 C 
ATOM     20  C   UNL     1      -8.517  -9.016  17.029  0.00  0.00    +0.103 C 
ATOM     22  C   UNL     1     -11.163 -10.151  16.951  0.00  0.00    +0.123 C 
ATOM     23  C   UNL     1      -9.467  -8.732  15.866  0.00  0.00    +0.123 C 
ATOM     25  C   UNL     1     -11.805  -7.928  15.901  0.00  0.00    +0.213 C 
ATOM     27  C   UNL     1     -13.222  -8.159  16.365  0.00  0.00    +0.109 C 
ENDBRANCH  13   3
ENDBRANCH   9  13
BRANCH  11  16
ATOM     16  C   UNL     1      -3.470 -11.046  16.698  0.00  0.00    +0.105 C 
BRANCH  16  24
ATOM      1  O   UNL     1      -3.799 -10.401  14.368  0.00  0.00    -0.420 OA
ATOM      5  N   UNL     1      -2.331 -12.063  14.659  0.00  0.00    -0.112 NA
ATOM      6  N   UNL     1      -2.418 -11.803  13.305  0.00  0.00    -0.107 NA
ATOM     24  C   UNL     1      -3.154 -11.221  15.241  0.00  0.00    +0.218 A 
ATOM     26  C   UNL     1      -3.286 -10.826  13.181  0.00  0.00    +0.248 A 
BRANCH  26  28
ATOM      7  N   UNL     1      -4.707  -8.837   9.729  0.00  0.00    -0.263 NA
ATOM     28  C   UNL     1      -3.768 -10.151  12.011  0.00  0.00    +0.041 A 
ATOM     29  C   UNL     1      -2.916  -9.923  10.936  0.00  0.00    +0.033 A 
ATOM     30  C   UNL     1      -5.089  -9.723  11.946  0.00  0.00    +0.033 A 
ATOM     31  C   UNL     1      -3.430  -9.268   9.829  0.00  0.00    +0.111 A 
ATOM     32  C   UNL     1      -5.506  -9.077  10.793  0.00  0.00    +0.111 A 
ENDBRANCH  26  28
ENDBRANCH  16  24
ENDBRANCH  11  16
TORSDOF 6
ENDMDL
