MODEL 1
REMARK VINA RESULT:      -6.3      0.000      0.000
REMARK  Name = 75536632
REMARK  7 active torsions:
REMARK  status: ('A' for Active; 'I' for Inactive)
REMARK    1  A    between atoms: O_3  and  C_8
REMARK    2  A    between atoms: N_5  and  C_7
REMARK    3  A    between atoms: N_5  and  C_12
REMARK    4  A    between atoms: N_6  and  C_11
REMARK    5  A    between atoms: C_9  and  C_11
REMARK    6  A    between atoms: C_12  and  C_13
REMARK    7  A    between atoms: C_14  and  C_17
REMARK                            x       y       z     vdW  Elec       q    Type
REMARK                         _______ _______ _______ _____ _____    ______ ____
ROOT
ATOM      2  O   UNL     1      11.368   6.702  20.694  0.00  0.00    -0.371 OA
ATOM      7  C   UNL     1      13.677   7.126  20.327  0.00  0.00    +0.111 C 
ATOM      8  C   UNL     1      13.140   8.140  21.319  0.00  0.00    +0.164 C 
ATOM      9  C   UNL     1      11.891   7.427  21.820  0.00  0.00    +0.165 C 
ATOM     10  C   UNL     1      12.393   6.622  19.687  0.00  0.00    +0.181 C 
ENDROOT
BRANCH   8   3
ATOM      3  O   UNL     1      14.048   8.411  22.369  0.00  0.00    -0.388 OA
ATOM     27  H   UNL     1      14.665   9.100  22.069  0.00  0.00    +0.210 HD
ENDBRANCH   8   3
BRANCH   7   5
ATOM      5  N   UNL     1      14.606   7.691  19.361  0.00  0.00    -0.305 NA
ATOM     26  H   UNL     1      15.424   7.085  19.292  0.00  0.00    +0.123 HD
BRANCH   5  12
ATOM     12  C   UNL     1      13.990   7.803  18.044  0.00  0.00    +0.119 C 
BRANCH  12  13
ATOM      1  F   UNL     1      14.255   8.334  15.274  0.00  0.00    -0.205 F 
ATOM     13  C   UNL     1      14.118   9.194  17.482  0.00  0.00    +0.002 A 
ATOM     15  C   UNL     1      14.245   9.384  16.106  0.00  0.00    +0.128 A 
ATOM     16  C   UNL     1      14.110  10.293  18.341  0.00  0.00    +0.008 A 
ATOM     18  C   UNL     1      14.365  10.674  15.589  0.00  0.00    +0.038 A 
ATOM     19  C   UNL     1      14.230  11.582  17.823  0.00  0.00    +0.000 A 
ATOM     20  C   UNL     1      14.357  11.773  16.448  0.00  0.00    +0.003 A 
ENDBRANCH  12  13
ENDBRANCH   5  12
ENDBRANCH   7   5
BRANCH   9  11
ATOM     11  C   UNL     1      10.832   8.374  22.356  0.00  0.00    +0.138 C 
BRANCH  11   6
ATOM      4  O   UNL     1      10.992  10.794  23.894  0.00  0.00    -0.270 OA
ATOM      6  N   UNL     1      11.013   9.703  21.847  0.00  0.00    -0.309 N 
ATOM     14  C   UNL     1      11.079  10.823  22.670  0.00  0.00    +0.244 C 
ATOM     28  H   UNL     1      11.021   9.805  20.837  0.00  0.00    +0.149 HD
BRANCH  14  17
ATOM     17  C   UNL     1      11.243  12.131  21.984  0.00  0.00    +0.037 A 
ATOM     21  C   UNL     1      10.508  13.238  22.409  0.00  0.00    +0.013 A 
ATOM     22  C   UNL     1      12.132  12.253  20.916  0.00  0.00    +0.013 A 
ATOM     23  C   UNL     1      10.662  14.467  21.767  0.00  0.00    +0.001 A 
ATOM     24  C   UNL     1      12.286  13.481  20.274  0.00  0.00    +0.001 A 
ATOM     25  C   UNL     1      11.552  14.588  20.700  0.00  0.00    +0.000 A 
ENDBRANCH  14  17
ENDBRANCH  11   6
ENDBRANCH   9  11
TORSDOF 7
ENDMDL
MODEL 2
REMARK VINA RESULT:      -6.3     27.245     29.748
REMARK  Name = 75536632
REMARK  7 active torsions:
REMARK  status: ('A' for Active; 'I' for Inactive)
REMARK    1  A    between atoms: O_3  and  C_8
REMARK    2  A    between atoms: N_5  and  C_7
REMARK    3  A    between atoms: N_5  and  C_12
REMARK    4  A    between atoms: N_6  and  C_11
REMARK    5  A    between atoms: C_9  and  C_11
REMARK    6  A    between atoms: C_12  and  C_13
REMARK    7  A    between atoms: C_14  and  C_17
REMARK                            x       y       z     vdW  Elec       q    Type
REMARK                         _______ _______ _______ _____ _____    ______ ____
ROOT
ATOM      2  O   UNL     1     -17.472   1.823  25.321  0.00  0.00    -0.371 OA
ATOM      7  C   UNL     1     -16.413   3.302  26.849  0.00  0.00    +0.111 C 
ATOM      8  C   UNL     1     -16.092   3.740  25.432  0.00  0.00    +0.164 C 
ATOM      9  C   UNL     1     -17.217   3.071  24.656  0.00  0.00    +0.165 C 
ATOM     10  C   UNL     1     -16.865   1.867  26.624  0.00  0.00    +0.181 C 
ENDROOT
BRANCH   8   3
ATOM      3  O   UNL     1     -16.108   5.146  25.279  0.00  0.00    -0.388 OA
ATOM     27  H   UNL     1     -16.947   5.483  25.638  0.00  0.00    +0.210 HD
ENDBRANCH   8   3
BRANCH   7   5
ATOM      5  N   UNL     1     -15.285   3.403  27.761  0.00  0.00    -0.305 NA
ATOM     26  H   UNL     1     -15.166   4.378  28.036  0.00  0.00    +0.123 HD
BRANCH   5  12
ATOM     12  C   UNL     1     -15.504   2.598  28.958  0.00  0.00    +0.119 C 
BRANCH  12  13
ATOM      1  F   UNL     1     -13.233   1.485  30.233  0.00  0.00    -0.205 F 
ATOM     13  C   UNL     1     -14.858   3.213  30.171  0.00  0.00    +0.002 A 
ATOM     15  C   UNL     1     -13.741   2.612  30.749  0.00  0.00    +0.128 A 
ATOM     16  C   UNL     1     -15.380   4.386  30.716  0.00  0.00    +0.008 A 
ATOM     18  C   UNL     1     -13.145   3.184  31.874  0.00  0.00    +0.038 A 
ATOM     19  C   UNL     1     -14.785   4.958  31.841  0.00  0.00    +0.000 A 
ATOM     20  C   UNL     1     -13.667   4.357  32.419  0.00  0.00    +0.003 A 
ENDBRANCH  12  13
ENDBRANCH   5  12
ENDBRANCH   7   5
BRANCH   9  11
ATOM     11  C   UNL     1     -16.873   2.815  23.199  0.00  0.00    +0.138 C 
BRANCH  11   6
ATOM      4  O   UNL     1     -17.142   5.196  21.617  0.00  0.00    -0.270 OA
ATOM      6  N   UNL     1     -15.813   3.672  22.754  0.00  0.00    -0.309 N 
ATOM     14  C   UNL     1     -16.036   4.811  21.986  0.00  0.00    +0.244 C 
ATOM     28  H   UNL     1     -14.867   3.371  22.965  0.00  0.00    +0.149 HD
BRANCH  14  17
ATOM     17  C   UNL     1     -14.828   5.577  21.584  0.00  0.00    +0.037 A 
ATOM     21  C   UNL     1     -14.951   6.680  20.740  0.00  0.00    +0.013 A 
ATOM     22  C   UNL     1     -13.571   5.194  22.052  0.00  0.00    +0.013 A 
ATOM     23  C   UNL     1     -13.818   7.401  20.362  0.00  0.00    +0.001 A 
ATOM     24  C   UNL     1     -12.438   5.914  21.674  0.00  0.00    +0.001 A 
ATOM     25  C   UNL     1     -12.561   7.017  20.830  0.00  0.00    +0.000 A 
ENDBRANCH  14  17
ENDBRANCH  11   6
ENDBRANCH   9  11
TORSDOF 7
ENDMDL
MODEL 3
REMARK VINA RESULT:      -6.2     27.271     29.496
REMARK  Name = 75536632
REMARK  7 active torsions:
REMARK  status: ('A' for Active; 'I' for Inactive)
REMARK    1  A    between atoms: O_3  and  C_8
REMARK    2  A    between atoms: N_5  and  C_7
REMARK    3  A    between atoms: N_5  and  C_12
REMARK    4  A    between atoms: N_6  and  C_11
REMARK    5  A    between atoms: C_9  and  C_11
REMARK    6  A    between atoms: C_12  and  C_13
REMARK    7  A    between atoms: C_14  and  C_17
REMARK                            x       y       z     vdW  Elec       q    Type
REMARK                         _______ _______ _______ _____ _____    ______ ____
ROOT
ATOM      2  O   UNL     1     -17.630   3.741  26.208  0.00  0.00    -0.371 OA
ATOM      7  C   UNL     1     -16.555   4.826  24.388  0.00  0.00    +0.111 C 
ATOM      8  C   UNL     1     -16.135   3.368  24.415  0.00  0.00    +0.164 C 
ATOM      9  C   UNL     1     -17.260   2.752  25.233  0.00  0.00    +0.165 C 
ATOM     10  C   UNL     1     -17.088   5.010  25.800  0.00  0.00    +0.181 C 
ENDROOT
BRANCH   8   3
ATOM      3  O   UNL     1     -16.051   2.801  23.122  0.00  0.00    -0.388 OA
ATOM     27  H   UNL     1     -16.879   2.991  22.650  0.00  0.00    +0.210 HD
ENDBRANCH   8   3
BRANCH   7   5
ATOM      5  N   UNL     1     -15.471   5.740  24.069  0.00  0.00    -0.305 NA
ATOM     26  H   UNL     1     -14.596   5.218  24.027  0.00  0.00    +0.123 HD
BRANCH   5  12
ATOM     12  C   UNL     1     -15.694   6.391  22.783  0.00  0.00    +0.119 C 
BRANCH  12  13
ATOM      1  F   UNL     1     -13.733   4.573  21.852  0.00  0.00    -0.205 F 
ATOM     13  C   UNL     1     -14.403   6.831  22.146  0.00  0.00    +0.002 A 
ATOM     15  C   UNL     1     -13.480   5.881  21.709  0.00  0.00    +0.128 A 
ATOM     16  C   UNL     1     -14.131   8.190  21.994  0.00  0.00    +0.008 A 
ATOM     18  C   UNL     1     -12.283   6.292  21.120  0.00  0.00    +0.038 A 
ATOM     19  C   UNL     1     -12.935   8.600  21.405  0.00  0.00    +0.000 A 
ATOM     20  C   UNL     1     -12.011   7.651  20.968  0.00  0.00    +0.003 A 
ENDBRANCH  12  13
ENDBRANCH   5  12
ENDBRANCH   7   5
BRANCH   9  11
ATOM     11  C   UNL     1     -16.860   1.466  25.934  0.00  0.00    +0.138 C 
BRANCH  11   6
ATOM      4  O   UNL     1     -17.343   0.323  28.524  0.00  0.00    -0.270 OA
ATOM      6  N   UNL     1     -16.128   1.733  27.138  0.00  0.00    -0.309 N 
ATOM     14  C   UNL     1     -16.433   1.131  28.355  0.00  0.00    +0.244 C 
ATOM     28  H   UNL     1     -15.408   2.446  27.083  0.00  0.00    +0.149 HD
BRANCH  14  17
ATOM     17  C   UNL     1     -15.596   1.535  29.514  0.00  0.00    +0.037 A 
ATOM     21  C   UNL     1     -15.472   0.686  30.614  0.00  0.00    +0.013 A 
ATOM     22  C   UNL     1     -14.933   2.761  29.502  0.00  0.00    +0.013 A 
ATOM     23  C   UNL     1     -14.685   1.063  31.702  0.00  0.00    +0.001 A 
ATOM     24  C   UNL     1     -14.146   3.139  30.590  0.00  0.00    +0.001 A 
ATOM     25  C   UNL     1     -14.022   2.290  31.689  0.00  0.00    +0.000 A 
ENDBRANCH  14  17
ENDBRANCH  11   6
ENDBRANCH   9  11
TORSDOF 7
ENDMDL
MODEL 4
REMARK VINA RESULT:      -6.2     27.063     29.547
REMARK  Name = 75536632
REMARK  7 active torsions:
REMARK  status: ('A' for Active; 'I' for Inactive)
REMARK    1  A    between atoms: O_3  and  C_8
REMARK    2  A    between atoms: N_5  and  C_7
REMARK    3  A    between atoms: N_5  and  C_12
REMARK    4  A    between atoms: N_6  and  C_11
REMARK    5  A    between atoms: C_9  and  C_11
REMARK    6  A    between atoms: C_12  and  C_13
REMARK    7  A    between atoms: C_14  and  C_17
REMARK                            x       y       z     vdW  Elec       q    Type
REMARK                         _______ _______ _______ _____ _____    ______ ____
ROOT
ATOM      2  O   UNL     1     -17.150   5.721  25.502  0.00  0.00    -0.371 OA
ATOM      7  C   UNL     1     -16.440   3.615  26.343  0.00  0.00    +0.111 C 
ATOM      8  C   UNL     1     -16.328   3.607  24.830  0.00  0.00    +0.164 C 
ATOM      9  C   UNL     1     -16.292   5.099  24.530  0.00  0.00    +0.165 C 
ATOM     10  C   UNL     1     -17.386   4.784  26.568  0.00  0.00    +0.181 C 
ENDROOT
BRANCH   8   3
ATOM      3  O   UNL     1     -15.163   2.949  24.372  0.00  0.00    -0.388 OA
ATOM     27  H   UNL     1     -15.399   2.416  23.593  0.00  0.00    +0.210 HD
ENDBRANCH   8   3
BRANCH   7   5
ATOM      5  N   UNL     1     -16.941   2.367  26.897  0.00  0.00    -0.305 NA
ATOM     26  H   UNL     1     -16.257   1.630  26.727  0.00  0.00    +0.123 HD
BRANCH   5  12
ATOM     12  C   UNL     1     -17.162   2.483  28.334  0.00  0.00    +0.119 C 
BRANCH  12  13
ATOM      1  F   UNL     1     -15.099   4.162  29.307  0.00  0.00    -0.205 F 
ATOM     13  C   UNL     1     -15.989   1.969  29.125  0.00  0.00    +0.002 A 
ATOM     15  C   UNL     1     -15.008   2.852  29.574  0.00  0.00    +0.128 A 
ATOM     16  C   UNL     1     -15.885   0.607  29.408  0.00  0.00    +0.008 A 
ATOM     18  C   UNL     1     -13.921   2.372  30.307  0.00  0.00    +0.038 A 
ATOM     19  C   UNL     1     -14.799   0.128  30.140  0.00  0.00    +0.000 A 
ATOM     20  C   UNL     1     -13.817   1.011  30.590  0.00  0.00    +0.003 A 
ENDBRANCH  12  13
ENDBRANCH   5  12
ENDBRANCH   7   5
BRANCH   9  11
ATOM     11  C   UNL     1     -16.770   5.443  23.131  0.00  0.00    +0.138 C 
BRANCH  11   6
ATOM      4  O   UNL     1     -14.380   4.452  21.886  0.00  0.00    -0.270 OA
ATOM      6  N   UNL     1     -15.792   6.214  22.419  0.00  0.00    -0.309 N 
ATOM     14  C   UNL     1     -14.658   5.648  21.845  0.00  0.00    +0.244 C 
ATOM     28  H   UNL     1     -15.925   7.220  22.410  0.00  0.00    +0.149 HD
BRANCH  14  17
ATOM     17  C   UNL     1     -13.729   6.587  21.165  0.00  0.00    +0.037 A 
ATOM     21  C   UNL     1     -14.230   7.713  20.513  0.00  0.00    +0.013 A 
ATOM     22  C   UNL     1     -12.355   6.343  21.181  0.00  0.00    +0.013 A 
ATOM     23  C   UNL     1     -13.357   8.597  19.876  0.00  0.00    +0.001 A 
ATOM     24  C   UNL     1     -11.484   7.225  20.544  0.00  0.00    +0.001 A 
ATOM     25  C   UNL     1     -11.984   8.352  19.892  0.00  0.00    +0.000 A 
ENDBRANCH  14  17
ENDBRANCH  11   6
ENDBRANCH   9  11
TORSDOF 7
ENDMDL
MODEL 5
REMARK VINA RESULT:      -6.2      6.638      9.872
REMARK  Name = 75536632
REMARK  7 active torsions:
REMARK  status: ('A' for Active; 'I' for Inactive)
REMARK    1  A    between atoms: O_3  and  C_8
REMARK    2  A    between atoms: N_5  and  C_7
REMARK    3  A    between atoms: N_5  and  C_12
REMARK    4  A    between atoms: N_6  and  C_11
REMARK    5  A    between atoms: C_9  and  C_11
REMARK    6  A    between atoms: C_12  and  C_13
REMARK    7  A    between atoms: C_14  and  C_17
REMARK                            x       y       z     vdW  Elec       q    Type
REMARK                         _______ _______ _______ _____ _____    ______ ____
ROOT
ATOM      2  O   UNL     1      18.868   5.841  19.710  0.00  0.00    -0.371 OA
ATOM      7  C   UNL     1      16.698   6.786  19.924  0.00  0.00    +0.111 C 
ATOM      8  C   UNL     1      17.419   6.893  21.255  0.00  0.00    +0.164 C 
ATOM      9  C   UNL     1      18.870   6.760  20.816  0.00  0.00    +0.165 C 
ATOM     10  C   UNL     1      17.519   5.715  19.224  0.00  0.00    +0.181 C 
ENDROOT
BRANCH   8   3
ATOM      3  O   UNL     1      17.177   8.124  21.909  0.00  0.00    -0.388 OA
ATOM     27  H   UNL     1      17.652   8.118  22.758  0.00  0.00    +0.210 HD
ENDBRANCH   8   3
BRANCH   7   5
ATOM      5  N   UNL     1      15.294   6.431  20.048  0.00  0.00    -0.305 NA
ATOM     26  H   UNL     1      15.026   6.472  21.031  0.00  0.00    +0.123 HD
BRANCH   5  12
ATOM     12  C   UNL     1      14.451   7.350  19.291  0.00  0.00    +0.119 C 
BRANCH  12  13
ATOM      1  F   UNL     1      12.560   9.262  18.402  0.00  0.00    -0.205 F 
ATOM     13  C   UNL     1      13.102   7.533  19.934  0.00  0.00    +0.002 A 
ATOM     15  C   UNL     1      12.218   8.494  19.445  0.00  0.00    +0.128 A 
ATOM     16  C   UNL     1      12.738   6.738  21.021  0.00  0.00    +0.008 A 
ATOM     18  C   UNL     1      10.969   8.661  20.044  0.00  0.00    +0.038 A 
ATOM     19  C   UNL     1      11.490   6.905  21.619  0.00  0.00    +0.000 A 
ATOM     20  C   UNL     1      10.605   7.866  21.131  0.00  0.00    +0.003 A 
ENDBRANCH  12  13
ENDBRANCH   5  12
ENDBRANCH   7   5
BRANCH   9  11
ATOM     11  C   UNL     1      19.785   6.242  21.911  0.00  0.00    +0.138 C 
BRANCH  11   6
ATOM      4  O   UNL     1      21.768   4.792  23.398  0.00  0.00    -0.270 OA
ATOM      6  N   UNL     1      20.842   5.437  21.371  0.00  0.00    -0.309 N 
ATOM     14  C   UNL     1      21.763   4.767  22.170  0.00  0.00    +0.244 C 
ATOM     28  H   UNL     1      20.938   5.432  20.361  0.00  0.00    +0.149 HD
BRANCH  14  17
ATOM     17  C   UNL     1      22.814   3.997  21.456  0.00  0.00    +0.037 A 
ATOM     21  C   UNL     1      23.603   4.623  20.491  0.00  0.00    +0.013 A 
ATOM     22  C   UNL     1      23.013   2.648  21.751  0.00  0.00    +0.013 A 
ATOM     23  C   UNL     1      24.591   3.901  19.820  0.00  0.00    +0.001 A 
ATOM     24  C   UNL     1      24.000   1.926  21.081  0.00  0.00    +0.001 A 
ATOM     25  C   UNL     1      24.789   2.552  20.116  0.00  0.00    +0.000 A 
ENDBRANCH  14  17
ENDBRANCH  11   6
ENDBRANCH   9  11
TORSDOF 7
ENDMDL
MODEL 6
REMARK VINA RESULT:      -6.1      3.682      4.882
REMARK  Name = 75536632
REMARK  7 active torsions:
REMARK  status: ('A' for Active; 'I' for Inactive)
REMARK    1  A    between atoms: O_3  and  C_8
REMARK    2  A    between atoms: N_5  and  C_7
REMARK    3  A    between atoms: N_5  and  C_12
REMARK    4  A    between atoms: N_6  and  C_11
REMARK    5  A    between atoms: C_9  and  C_11
REMARK    6  A    between atoms: C_12  and  C_13
REMARK    7  A    between atoms: C_14  and  C_17
REMARK                            x       y       z     vdW  Elec       q    Type
REMARK                         _______ _______ _______ _____ _____    ______ ____
ROOT
ATOM      2  O   UNL     1      13.858   7.668  18.284  0.00  0.00    -0.371 OA
ATOM      7  C   UNL     1      14.648   6.578  20.241  0.00  0.00    +0.111 C 
ATOM      8  C   UNL     1      13.231   7.064  20.482  0.00  0.00    +0.164 C 
ATOM      9  C   UNL     1      12.729   7.225  19.055  0.00  0.00    +0.165 C 
ATOM     10  C   UNL     1      15.055   7.422  19.043  0.00  0.00    +0.181 C 
ENDROOT
BRANCH   8   3
ATOM      3  O   UNL     1      12.453   6.135  21.213  0.00  0.00    -0.388 OA
ATOM     27  H   UNL     1      12.341   5.336  20.671  0.00  0.00    +0.210 HD
ENDBRANCH   8   3
BRANCH   7   5
ATOM      5  N   UNL     1      15.529   6.758  21.384  0.00  0.00    -0.305 NA
ATOM     26  H   UNL     1      16.078   5.909  21.517  0.00  0.00    +0.123 HD
BRANCH   5  12
ATOM     12  C   UNL     1      16.438   7.879  21.176  0.00  0.00    +0.119 C 
BRANCH  12  13
ATOM      1  F   UNL     1      18.557   9.378  22.309  0.00  0.00    -0.205 F 
ATOM     13  C   UNL     1      17.876   7.434  21.130  0.00  0.00    +0.002 A 
ATOM     15  C   UNL     1      18.870   8.222  21.709  0.00  0.00    +0.128 A 
ATOM     16  C   UNL     1      18.211   6.232  20.507  0.00  0.00    +0.008 A 
ATOM     18  C   UNL     1      20.202   7.806  21.665  0.00  0.00    +0.038 A 
ATOM     19  C   UNL     1      19.542   5.817  20.463  0.00  0.00    +0.000 A 
ATOM     20  C   UNL     1      20.537   6.604  21.042  0.00  0.00    +0.003 A 
ENDBRANCH  12  13
ENDBRANCH   5  12
ENDBRANCH   7   5
BRANCH   9  11
ATOM     11  C   UNL     1      11.595   8.227  18.926  0.00  0.00    +0.138 C 
BRANCH  11   6
ATOM      4  O   UNL     1      12.793  10.757  19.566  0.00  0.00    -0.270 OA
ATOM      6  N   UNL     1      11.420   8.976  20.136  0.00  0.00    -0.309 N 
ATOM     14  C   UNL     1      12.042  10.200  20.363  0.00  0.00    +0.244 C 
ATOM     28  H   UNL     1      10.868   8.537  20.866  0.00  0.00    +0.149 HD
BRANCH  14  17
ATOM     17  C   UNL     1      11.778  10.836  21.679  0.00  0.00    +0.037 A 
ATOM     21  C   UNL     1      12.140  12.166  21.896  0.00  0.00    +0.013 A 
ATOM     22  C   UNL     1      11.166  10.105  22.697  0.00  0.00    +0.013 A 
ATOM     23  C   UNL     1      11.891  12.765  23.131  0.00  0.00    +0.001 A 
ATOM     24  C   UNL     1      10.917  10.703  23.932  0.00  0.00    +0.001 A 
ATOM     25  C   UNL     1      11.279  12.033  24.149  0.00  0.00    +0.000 A 
ENDBRANCH  14  17
ENDBRANCH  11   6
ENDBRANCH   9  11
TORSDOF 7
ENDMDL
MODEL 7
REMARK VINA RESULT:      -6.1     15.742     18.076
REMARK  Name = 75536632
REMARK  7 active torsions:
REMARK  status: ('A' for Active; 'I' for Inactive)
REMARK    1  A    between atoms: O_3  and  C_8
REMARK    2  A    between atoms: N_5  and  C_7
REMARK    3  A    between atoms: N_5  and  C_12
REMARK    4  A    between atoms: N_6  and  C_11
REMARK    5  A    between atoms: C_9  and  C_11
REMARK    6  A    between atoms: C_12  and  C_13
REMARK    7  A    between atoms: C_14  and  C_17
REMARK                            x       y       z     vdW  Elec       q    Type
REMARK                         _______ _______ _______ _____ _____    ______ ____
ROOT
ATOM      2  O   UNL     1      13.192   4.669   0.005  0.00  0.00    -0.371 OA
ATOM      7  C   UNL     1      15.285   5.306   0.932  0.00  0.00    +0.111 C 
ATOM      8  C   UNL     1      14.676   4.212   1.789  0.00  0.00    +0.164 C 
ATOM      9  C   UNL     1      13.689   3.589   0.812  0.00  0.00    +0.165 C 
ATOM     10  C   UNL     1      14.068   5.800   0.165  0.00  0.00    +0.181 C 
ENDROOT
BRANCH   8   3
ATOM      3  O   UNL     1      15.634   3.275   2.241  0.00  0.00    -0.388 OA
ATOM     27  H   UNL     1      15.954   3.561   3.113  0.00  0.00    +0.210 HD
ENDBRANCH   8   3
BRANCH   7   5
ATOM      5  N   UNL     1      15.933   6.357   1.700  0.00  0.00    -0.305 NA
ATOM     26  H   UNL     1      16.706   6.739   1.155  0.00  0.00    +0.123 HD
BRANCH   5  12
ATOM     12  C   UNL     1      14.999   7.432   2.011  0.00  0.00    +0.119 C 
BRANCH  12  13
ATOM      1  F   UNL     1      16.847   7.762   4.131  0.00  0.00    -0.205 F 
ATOM     13  C   UNL     1      14.596   7.422   3.462  0.00  0.00    +0.002 A 
ATOM     15  C   UNL     1      15.559   7.591   4.456  0.00  0.00    +0.128 A 
ATOM     16  C   UNL     1      13.257   7.244   3.810  0.00  0.00    +0.008 A 
ATOM     18  C   UNL     1      15.182   7.580   5.800  0.00  0.00    +0.038 A 
ATOM     19  C   UNL     1      12.881   7.233   5.153  0.00  0.00    +0.000 A 
ATOM     20  C   UNL     1      13.844   7.402   6.148  0.00  0.00    +0.003 A 
ENDBRANCH  12  13
ENDBRANCH   5  12
ENDBRANCH   7   5
BRANCH   9  11
ATOM     11  C   UNL     1      12.530   2.885   1.495  0.00  0.00    +0.138 C 
BRANCH  11   6
ATOM      4  O   UNL     1       9.972   4.163   1.233  0.00  0.00    -0.270 OA
ATOM      6  N   UNL     1      11.896   3.737   2.458  0.00  0.00    -0.309 N 
ATOM     14  C   UNL     1      10.649   4.317   2.247  0.00  0.00    +0.244 C 
ATOM     28  H   UNL     1      12.433   3.963   3.289  0.00  0.00    +0.149 HD
BRANCH  14  17
ATOM     17  C   UNL     1      10.142   5.196   3.332  0.00  0.00    +0.037 A 
ATOM     21  C   UNL     1       9.717   6.492   3.038  0.00  0.00    +0.013 A 
ATOM     22  C   UNL     1      10.088   4.725   4.643  0.00  0.00    +0.013 A 
ATOM     23  C   UNL     1       9.239   7.317   4.056  0.00  0.00    +0.001 A 
ATOM     24  C   UNL     1       9.611   5.550   5.661  0.00  0.00    +0.001 A 
ATOM     25  C   UNL     1       9.186   6.846   5.368  0.00  0.00    +0.000 A 
ENDBRANCH  14  17
ENDBRANCH  11   6
ENDBRANCH   9  11
TORSDOF 7
ENDMDL
MODEL 8
REMARK VINA RESULT:      -6.0     24.531     26.346
REMARK  Name = 75536632
REMARK  7 active torsions:
REMARK  status: ('A' for Active; 'I' for Inactive)
REMARK    1  A    between atoms: O_3  and  C_8
REMARK    2  A    between atoms: N_5  and  C_7
REMARK    3  A    between atoms: N_5  and  C_12
REMARK    4  A    between atoms: N_6  and  C_11
REMARK    5  A    between atoms: C_9  and  C_11
REMARK    6  A    between atoms: C_12  and  C_13
REMARK    7  A    between atoms: C_14  and  C_17
REMARK                            x       y       z     vdW  Elec       q    Type
REMARK                         _______ _______ _______ _____ _____    ______ ____
ROOT
ATOM      2  O   UNL     1     -11.070  10.500  15.086  0.00  0.00    -0.371 OA
ATOM      7  C   UNL     1      -9.887   9.582  16.931  0.00  0.00    +0.111 C 
ATOM      8  C   UNL     1     -10.767   8.507  16.322  0.00  0.00    +0.164 C 
ATOM      9  C   UNL     1     -11.003   9.072  14.929  0.00  0.00    +0.165 C 
ATOM     10  C   UNL     1     -10.526  10.844  16.372  0.00  0.00    +0.181 C 
ENDROOT
BRANCH   8   3
ATOM      3  O   UNL     1     -10.134   7.243  16.278  0.00  0.00    -0.388 OA
ATOM     27  H   UNL     1     -10.629   6.632  16.851  0.00  0.00    +0.210 HD
ENDBRANCH   8   3
BRANCH   7   5
ATOM      5  N   UNL     1      -9.857   9.559  18.384  0.00  0.00    -0.305 NA
ATOM     26  H   UNL     1      -9.091  10.148  18.710  0.00  0.00    +0.123 HD
BRANCH   5  12
ATOM     12  C   UNL     1     -11.108  10.060  18.943  0.00  0.00    +0.119 C 
BRANCH  12  13
ATOM      1  F   UNL     1     -13.024  10.777  20.901  0.00  0.00    -0.205 F 
ATOM     13  C   UNL     1     -11.744   9.063  19.875  0.00  0.00    +0.002 A 
ATOM     15  C   UNL     1     -12.681   9.485  20.817  0.00  0.00    +0.128 A 
ATOM     16  C   UNL     1     -11.393   7.715  19.794  0.00  0.00    +0.008 A 
ATOM     18  C   UNL     1     -13.268   8.558  21.679  0.00  0.00    +0.038 A 
ATOM     19  C   UNL     1     -11.980   6.789  20.656  0.00  0.00    +0.000 A 
ATOM     20  C   UNL     1     -12.917   7.210  21.599  0.00  0.00    +0.003 A 
ENDBRANCH  12  13
ENDBRANCH   5  12
ENDBRANCH   7   5
BRANCH   9  11
ATOM     11  C   UNL     1     -12.280   8.567  14.283  0.00  0.00    +0.138 C 
BRANCH  11   6
ATOM      4  O   UNL     1     -14.663   9.840  15.258  0.00  0.00    -0.270 OA
ATOM      6  N   UNL     1     -13.191   8.047  15.261  0.00  0.00    -0.309 N 
ATOM     14  C   UNL     1     -14.326   8.736  15.677  0.00  0.00    +0.244 C 
ATOM     28  H   UNL     1     -12.932   7.169  15.700  0.00  0.00    +0.149 HD
BRANCH  14  17
ATOM     17  C   UNL     1     -15.152   8.071  16.718  0.00  0.00    +0.037 A 
ATOM     21  C   UNL     1     -16.295   7.360  16.352  0.00  0.00    +0.013 A 
ATOM     22  C   UNL     1     -14.783   8.156  18.060  0.00  0.00    +0.013 A 
ATOM     23  C   UNL     1     -17.071   6.734  17.329  0.00  0.00    +0.001 A 
ATOM     24  C   UNL     1     -15.558   7.530  19.037  0.00  0.00    +0.001 A 
ATOM     25  C   UNL     1     -16.701   6.820  18.671  0.00  0.00    +0.000 A 
ENDBRANCH  14  17
ENDBRANCH  11   6
ENDBRANCH   9  11
TORSDOF 7
ENDMDL
MODEL 9
REMARK VINA RESULT:      -6.0     26.398     27.918
REMARK  Name = 75536632
REMARK  7 active torsions:
REMARK  status: ('A' for Active; 'I' for Inactive)
REMARK    1  A    between atoms: O_3  and  C_8
REMARK    2  A    between atoms: N_5  and  C_7
REMARK    3  A    between atoms: N_5  and  C_12
REMARK    4  A    between atoms: N_6  and  C_11
REMARK    5  A    between atoms: C_9  and  C_11
REMARK    6  A    between atoms: C_12  and  C_13
REMARK    7  A    between atoms: C_14  and  C_17
REMARK                            x       y       z     vdW  Elec       q    Type
REMARK                         _______ _______ _______ _____ _____    ______ ____
ROOT
ATOM      2  O   UNL     1      -4.982 -11.505  15.588  0.00  0.00    -0.371 OA
ATOM      7  C   UNL     1      -2.930 -11.058  14.477  0.00  0.00    +0.111 C 
ATOM      8  C   UNL     1      -2.765 -10.769  15.957  0.00  0.00    +0.164 C 
ATOM      9  C   UNL     1      -3.912 -11.580  16.545  0.00  0.00    +0.165 C 
ATOM     10  C   UNL     1      -4.444 -11.044  14.335  0.00  0.00    +0.181 C 
ENDROOT
BRANCH   8   3
ATOM      3  O   UNL     1      -1.511 -11.190  16.459  0.00  0.00    -0.388 OA
ATOM     27  H   UNL     1      -1.519 -11.087  17.426  0.00  0.00    +0.210 HD
ENDBRANCH   8   3
BRANCH   7   5
ATOM      5  N   UNL     1      -2.273 -10.088  13.616  0.00  0.00    -0.305 NA
ATOM     26  H   UNL     1      -1.506  -9.653  14.130  0.00  0.00    +0.123 HD
BRANCH   5  12
ATOM     12  C   UNL     1      -1.738 -10.725  12.419  0.00  0.00    +0.119 C 
BRANCH  12  13
ATOM      1  F   UNL     1      -3.172 -12.887  11.282  0.00  0.00    -0.205 F 
ATOM     13  C   UNL     1      -2.662 -10.570  11.241  0.00  0.00    +0.002 A 
ATOM     15  C   UNL     1      -3.338 -11.677  10.731  0.00  0.00    +0.128 A 
ATOM     16  C   UNL     1      -2.840  -9.314  10.659  0.00  0.00    +0.008 A 
ATOM     18  C   UNL     1      -4.194 -11.529   9.638  0.00  0.00    +0.038 A 
ATOM     19  C   UNL     1      -3.695  -9.167   9.568  0.00  0.00    +0.000 A 
ATOM     20  C   UNL     1      -4.372 -10.274   9.057  0.00  0.00    +0.003 A 
ENDBRANCH  12  13
ENDBRANCH   5  12
ENDBRANCH   7   5
BRANCH   9  11
ATOM     11  C   UNL     1      -4.389 -11.060  17.889  0.00  0.00    +0.138 C 
BRANCH  11   6
ATOM      4  O   UNL     1      -6.779 -11.951  19.208  0.00  0.00    -0.270 OA
ATOM      6  N   UNL     1      -5.694 -10.472  17.789  0.00  0.00    -0.309 N 
ATOM     14  C   UNL     1      -6.801 -10.973  18.467  0.00  0.00    +0.244 C 
ATOM     28  H   UNL     1      -5.796  -9.702  17.135  0.00  0.00    +0.149 HD
BRANCH  14  17
ATOM     17  C   UNL     1      -8.087 -10.265  18.236  0.00  0.00    +0.037 A 
ATOM     21  C   UNL     1      -8.136  -9.175  17.367  0.00  0.00    +0.013 A 
ATOM     22  C   UNL     1      -9.245 -10.693  18.885  0.00  0.00    +0.013 A 
ATOM     23  C   UNL     1      -9.344  -8.511  17.148  0.00  0.00    +0.001 A 
ATOM     24  C   UNL     1     -10.452 -10.029  18.666  0.00  0.00    +0.001 A 
ATOM     25  C   UNL     1     -10.501  -8.939  17.798  0.00  0.00    +0.000 A 
ENDBRANCH  14  17
ENDBRANCH  11   6
ENDBRANCH   9  11
TORSDOF 7
ENDMDL
MODEL 10
REMARK VINA RESULT:      -6.0     13.270     15.404
REMARK  Name = 75536632
REMARK  7 active torsions:
REMARK  status: ('A' for Active; 'I' for Inactive)
REMARK    1  A    between atoms: O_3  and  C_8
REMARK    2  A    between atoms: N_5  and  C_7
REMARK    3  A    between atoms: N_5  and  C_12
REMARK    4  A    between atoms: N_6  and  C_11
REMARK    5  A    between atoms: C_9  and  C_11
REMARK    6  A    between atoms: C_12  and  C_13
REMARK    7  A    between atoms: C_14  and  C_17
REMARK                            x       y       z     vdW  Elec       q    Type
REMARK                         _______ _______ _______ _____ _____    ______ ____
ROOT
ATOM      2  O   UNL     1      14.017   8.257   3.342  0.00  0.00    -0.371 OA
ATOM      7  C   UNL     1      15.505   7.866   5.152  0.00  0.00    +0.111 C 
ATOM      8  C   UNL     1      14.095   7.513   5.585  0.00  0.00    +0.164 C 
ATOM      9  C   UNL     1      13.416   7.308   4.239  0.00  0.00    +0.165 C 
ATOM     10  C   UNL     1      15.236   8.738   3.936  0.00  0.00    +0.181 C 
ENDROOT
BRANCH   8   3
ATOM      3  O   UNL     1      14.045   6.346   6.384  0.00  0.00    -0.388 OA
ATOM     27  H   UNL     1      13.142   5.987   6.344  0.00  0.00    +0.210 HD
ENDBRANCH   8   3
BRANCH   7   5
ATOM      5  N   UNL     1      16.277   8.549   6.178  0.00  0.00    -0.305 NA
ATOM     26  H   UNL     1      16.706   7.854   6.789  0.00  0.00    +0.123 HD
BRANCH   5  12
ATOM     12  C   UNL     1      17.328   9.369   5.586  0.00  0.00    +0.119 C 
BRANCH  12  13
ATOM      1  F   UNL     1      18.399   7.976   3.365  0.00  0.00    -0.205 F 
ATOM     13  C   UNL     1      18.664   8.676   5.617  0.00  0.00    +0.002 A 
ATOM     15  C   UNL     1      19.132   8.008   4.486  0.00  0.00    +0.128 A 
ATOM     16  C   UNL     1      19.433   8.703   6.780  0.00  0.00    +0.008 A 
ATOM     18  C   UNL     1      20.371   7.366   4.519  0.00  0.00    +0.038 A 
ATOM     19  C   UNL     1      20.671   8.062   6.812  0.00  0.00    +0.000 A 
ATOM     20  C   UNL     1      21.140   7.393   5.681  0.00  0.00    +0.003 A 
ENDBRANCH  12  13
ENDBRANCH   5  12
ENDBRANCH   7   5
BRANCH   9  11
ATOM     11  C   UNL     1      11.914   7.525   4.283  0.00  0.00    +0.138 C 
BRANCH  11   6
ATOM      4  O   UNL     1      10.208   5.249   4.680  0.00  0.00    -0.270 OA
ATOM      6  N   UNL     1      11.357   7.077   5.527  0.00  0.00    -0.309 N 
ATOM     14  C   UNL     1      10.536   5.958   5.627  0.00  0.00    +0.244 C 
ATOM     28  H   UNL     1      11.532   7.662   6.338  0.00  0.00    +0.149 HD
BRANCH  14  17
ATOM     17  C   UNL     1      10.020   5.644   6.983  0.00  0.00    +0.037 A 
ATOM     21  C   UNL     1      10.086   4.338   7.469  0.00  0.00    +0.013 A 
ATOM     22  C   UNL     1       9.470   6.654   7.772  0.00  0.00    +0.013 A 
ATOM     23  C   UNL     1       9.603   4.042   8.744  0.00  0.00    +0.001 A 
ATOM     24  C   UNL     1       8.986   6.358   9.046  0.00  0.00    +0.001 A 
ATOM     25  C   UNL     1       9.053   5.053   9.532  0.00  0.00    +0.000 A 
ENDBRANCH  14  17
ENDBRANCH  11   6
ENDBRANCH   9  11
TORSDOF 7
ENDMDL
