REMARK  Name = 56774638
REMARK  8 active torsions:
REMARK  status: ('A' for Active; 'I' for Inactive)
REMARK    1  A    between atoms: O_2  and  C_16
REMARK    2  A    between atoms: N_5  and  C_11
REMARK    3  A    between atoms: N_6  and  C_25
REMARK    4  A    between atoms: N_7  and  C_27
REMARK    5  A    between atoms: C_8  and  C_11
REMARK    6  A    between atoms: C_15  and  C_16
REMARK    7  A    between atoms: C_16  and  C_20
REMARK    8  A    between atoms: C_27  and  C_28
REMARK                            x       y       z     vdW  Elec       q    Type
REMARK                         _______ _______ _______ _____ _____    ______ ____
ROOT
ATOM     16  C   UNL     1      -0.418   0.526  -1.103  0.00  0.00    +0.167 C 
ENDROOT
BRANCH  16  15
ATOM      1  O   UNL     1      -0.930   2.521   0.987  0.00  0.00    -0.369 OA
ATOM      3  O   UNL     1      -4.239   2.487  -0.458  0.00  0.00    -0.273 OA
ATOM      5  N   UNL     1      -2.717   0.740  -0.235  0.00  0.00    -0.291 N 
ATOM     15  C   UNL     1      -1.346   0.340   0.102  0.00  0.00    +0.135 C 
ATOM     17  C   UNL     1      -0.851   1.136   1.303  0.00  0.00    +0.185 C 
ATOM     18  C   UNL     1      -3.167   2.045  -0.042  0.00  0.00    +0.242 C 
ATOM     19  C   UNL     1      -2.271   2.925   0.822  0.00  0.00    +0.255 C 
BRANCH   5  11
ATOM     11  C   UNL     1      -3.543  -0.224  -0.951  0.00  0.00    +0.112 C 
BRANCH  11   8
ATOM      8  C   UNL     1      -4.873  -0.444  -0.233  0.00  0.00    +0.006 C 
ATOM      9  C   UNL     1      -5.739  -1.456  -0.995  0.00  0.00    +0.005 C 
ATOM     10  C   UNL     1      -4.640  -0.902   1.212  0.00  0.00    +0.005 C 
ATOM     12  C   UNL     1      -7.053  -1.734  -0.269  0.00  0.00    +0.000 C 
ATOM     13  C   UNL     1      -5.957  -1.181   1.935  0.00  0.00    +0.000 C 
ATOM     14  C   UNL     1      -6.818  -2.181   1.170  0.00  0.00    +0.000 C 
ENDBRANCH  11   8
ENDBRANCH   5  11
ENDBRANCH  16  15
BRANCH  16  20
ATOM     20  C   UNL     1       0.991   0.084  -0.798  0.00  0.00    -0.017 A 
ATOM     21  C   UNL     1       1.239  -1.230  -0.401  0.00  0.00    +0.008 A 
ATOM     22  C   UNL     1       2.046   0.989  -0.915  0.00  0.00    +0.008 A 
ATOM     23  C   UNL     1       2.543  -1.639  -0.120  0.00  0.00    +0.024 A 
ATOM     24  C   UNL     1       3.349   0.580  -0.634  0.00  0.00    +0.024 A 
ATOM     25  C   UNL     1       3.598  -0.734  -0.237  0.00  0.00    +0.035 A 
BRANCH  25   6
ATOM      4  O   UNL     1       6.178   0.796  -0.330  0.00  0.00    -0.253 OA
ATOM      6  N   UNL     1       4.902  -1.144   0.044  0.00  0.00    -0.269 N 
ATOM      7  N   UNL     1       7.195  -1.167   0.345  0.00  0.00    -0.299 N 
ATOM     26  C   UNL     1       6.090  -0.388  -0.013  0.00  0.00    +0.304 C 
ATOM     30  H   UNL     1       5.006  -2.115   0.327  0.00  0.00    +0.156 HD
ATOM     31  H   UNL     1       7.043  -2.137   0.605  0.00  0.00    +0.150 HD
BRANCH   7  27
ATOM     27  C   UNL     1       8.545  -0.654   0.376  0.00  0.00    +0.102 C 
ATOM     28  C   UNL     1       8.811   0.130   1.644  0.00  0.00    +0.024 C 
ENDBRANCH   7  27
ENDBRANCH  25   6
ENDBRANCH  16  20
BRANCH  16   2
ATOM      2  O   UNL     1      -0.923  -0.220  -2.205  0.00  0.00    -0.385 OA
ATOM     29  H   UNL     1      -0.236  -0.250  -2.893  0.00  0.00    +0.210 HD
ENDBRANCH  16   2
TORSDOF 7
