REMARK  Name = 45783565
REMARK  10 active torsions:
REMARK  status: ('A' for Active; 'I' for Inactive)
REMARK    1  A    between atoms: O_2  and  C_26
REMARK    2  A    between atoms: O_2  and  C_27
REMARK    3  A    between atoms: O_3  and  C_28
REMARK    4  A    between atoms: O_3  and  C_29
REMARK    5  A    between atoms: N_4  and  C_12
REMARK    6  A    between atoms: C_8  and  C_13
REMARK    7  A    between atoms: C_12  and  C_14
REMARK    8  A    between atoms: C_15  and  C_19
REMARK    9  A    between atoms: C_17  and  C_22
REMARK   10  A    between atoms: C_27  and  C_28
REMARK                            x       y       z     vdW  Elec       q    Type
REMARK                         _______ _______ _______ _____ _____    ______ ____
ROOT
ATOM      1  O   UNL     1      -2.108   1.549   1.140  0.00  0.00    -0.336 OA
ATOM      5  N   UNL     1      -1.128   0.980  -0.792  0.00  0.00    -0.190 NA
ATOM      6  N   UNL     1      -0.734   1.488   1.404  0.00  0.00    -0.056 NA
ATOM     13  C   UNL     1      -2.254   1.236  -0.174  0.00  0.00    +0.245 A 
ATOM     17  C   UNL     1      -0.224   1.147   0.216  0.00  0.00    +0.204 A 
ENDROOT
BRANCH  17  22
ATOM      7  N   UNL     1       3.427   0.984   0.903  0.00  0.00    -0.221 NA
ATOM     22  C   UNL     1       1.183   0.965   0.005  0.00  0.00    +0.041 A 
ATOM     23  C   UNL     1       1.678   0.608  -1.245  0.00  0.00    +0.018 A 
ATOM     24  C   UNL     1       2.091   1.139   1.037  0.00  0.00    +0.126 A 
ATOM     25  C   UNL     1       3.047   0.439  -1.421  0.00  0.00    +0.068 A 
ATOM     26  C   UNL     1       3.872   0.637  -0.325  0.00  0.00    +0.215 A 
BRANCH  26   2
ATOM      2  O   UNL     1       5.224   0.476  -0.473  0.00  0.00    -0.474 OA
BRANCH   2  27
ATOM     27  C   UNL     1       6.025   0.692   0.683  0.00  0.00    +0.258 C 
BRANCH  27  28
ATOM     28  C   UNL     1       7.479   0.446   0.331  0.00  0.00    +0.200 C 
BRANCH  28   3
ATOM      3  O   UNL     1       7.632  -0.901  -0.099  0.00  0.00    -0.380 OA
ATOM     29  C   UNL     1       8.976  -1.182  -0.464  0.00  0.00    +0.194 C 
ENDBRANCH  28   3
ENDBRANCH  27  28
ENDBRANCH   2  27
ENDBRANCH  26   2
ENDBRANCH  17  22
BRANCH  13   8
ATOM      4  N   UNL     1      -4.555   0.310   0.022  0.00  0.00    -0.287 NA
ATOM      8  C   UNL     1      -3.668   1.233  -0.714  0.00  0.00    +0.146 C 
ATOM      9  C   UNL     1      -4.352   2.607  -0.599  0.00  0.00    +0.030 C 
ATOM     10  C   UNL     1      -5.643   2.347   0.164  0.00  0.00    +0.017 C 
ATOM     11  C   UNL     1      -5.903   0.872  -0.067  0.00  0.00    +0.085 C 
BRANCH   4  12
ATOM     12  C   UNL     1      -4.498  -1.059  -0.473  0.00  0.00    +0.120 C 
BRANCH  12  14
ATOM     14  C   UNL     1      -3.289  -1.793   0.043  0.00  0.00    -0.030 A 
ATOM     15  C   UNL     1      -2.350  -2.335  -0.835  0.00  0.00    -0.046 A 
ATOM     16  C   UNL     1      -3.114  -1.926   1.420  0.00  0.00    +0.005 A 
ATOM     18  C   UNL     1      -1.236  -3.011  -0.335  0.00  0.00    +0.003 A 
ATOM     19  C   UNL     1      -2.515  -2.206  -2.313  0.00  0.00    +0.044 C 
ATOM     20  C   UNL     1      -2.001  -2.601   1.920  0.00  0.00    +0.000 A 
ATOM     21  C   UNL     1      -1.062  -3.143   1.043  0.00  0.00    +0.000 A 
ENDBRANCH  12  14
ENDBRANCH   4  12
ENDBRANCH  13   8
TORSDOF 8
