MODEL 1
REMARK VINA RESULT:      -7.7      0.000      0.000
REMARK  Name = 40533457
REMARK  2 active torsions:
REMARK  status: ('A' for Active; 'I' for Inactive)
REMARK    1  A    between atoms: C_13  and  C_14
REMARK    2  A    between atoms: C_22  and  C_24
REMARK                            x       y       z     vdW  Elec       q    Type
REMARK                         _______ _______ _______ _____ _____    ______ ____
ROOT
ATOM      1  O   UNL     1      14.660   6.250  20.386  0.00  0.00    -0.275 OA
ATOM      2  O   UNL     1      10.839   9.643  21.969  0.00  0.00    -0.267 OA
ATOM      3  N   UNL     1      14.176   7.784  18.711  0.00  0.00    -0.300 N 
ATOM      4  N   UNL     1      12.012   9.773  19.957  0.00  0.00    -0.311 N 
ATOM      6  C   UNL     1      11.766   8.023  18.103  0.00  0.00    +0.027 C 
ATOM      7  C   UNL     1      13.296   9.924  17.795  0.00  0.00    +0.054 C 
ATOM      8  C   UNL     1      12.127   9.169  17.166  0.00  0.00    +0.018 C 
ATOM      9  C   UNL     1      12.965   7.078  18.286  0.00  0.00    +0.113 C 
ATOM     10  C   UNL     1      14.509   8.982  17.924  0.00  0.00    +0.117 C 
ATOM     11  C   UNL     1      11.283   8.607  19.436  0.00  0.00    +0.130 C 
ATOM     12  C   UNL     1      12.922  10.470  19.160  0.00  0.00    +0.027 A 
ATOM     14  C   UNL     1      14.958   7.256  19.738  0.00  0.00    +0.219 C 
ATOM     19  C   UNL     1      13.485  11.602  19.612  0.00  0.00    +0.022 A 
ATOM     20  C   UNL     1      11.662  10.211  21.250  0.00  0.00    +0.259 A 
ATOM     22  C   UNL     1      12.337  11.462  21.744  0.00  0.00    +0.048 A 
ATOM     23  C   UNL     1      13.189  12.099  20.926  0.00  0.00    +0.015 A 
ENDROOT
BRANCH  22  24
ATOM      5  N   UNL     1      12.649  11.995  25.447  0.00  0.00    -0.263 NA
ATOM     24  C   UNL     1      12.081  11.983  23.097  0.00  0.00    +0.005 A 
ATOM     25  C   UNL     1      11.076  12.916  23.328  0.00  0.00    +0.011 A 
ATOM     26  C   UNL     1      12.832  11.558  24.182  0.00  0.00    +0.119 A 
ATOM     27  C   UNL     1      10.857  13.390  24.617  0.00  0.00    +0.020 A 
ATOM     28  C   UNL     1      11.663  12.902  25.633  0.00  0.00    +0.111 A 
ENDBRANCH  22  24
BRANCH  14  13
ATOM     13  C   UNL     1      16.227   7.985  20.059  0.00  0.00    +0.075 C 
ATOM     15  C   UNL     1      17.307   6.971  20.442  0.00  0.00    +0.013 C 
ATOM     16  C   UNL     1      15.979   8.992  21.182  0.00  0.00    +0.013 C 
ATOM     17  C   UNL     1      18.597   7.662  20.874  0.00  0.00    +0.001 C 
ATOM     18  C   UNL     1      17.272   9.683  21.609  0.00  0.00    +0.001 C 
ATOM     21  C   UNL     1      18.350   8.671  21.991  0.00  0.00    +0.000 C 
ENDBRANCH  14  13
TORSDOF 2
ENDMDL
MODEL 2
REMARK VINA RESULT:      -6.8      2.499      6.374
REMARK  Name = 40533457
REMARK  2 active torsions:
REMARK  status: ('A' for Active; 'I' for Inactive)
REMARK    1  A    between atoms: C_13  and  C_14
REMARK    2  A    between atoms: C_22  and  C_24
REMARK                            x       y       z     vdW  Elec       q    Type
REMARK                         _______ _______ _______ _____ _____    ______ ____
ROOT
ATOM      1  O   UNL     1      10.940   8.585  21.542  0.00  0.00    -0.275 OA
ATOM      2  O   UNL     1      13.551   8.849  16.879  0.00  0.00    -0.267 OA
ATOM      3  N   UNL     1      13.231   8.385  21.868  0.00  0.00    -0.300 N 
ATOM      4  N   UNL     1      14.552   8.739  18.983  0.00  0.00    -0.311 N 
ATOM      6  C   UNL     1      14.393   6.666  20.478  0.00  0.00    +0.027 C 
ATOM      7  C   UNL     1      15.630   8.643  21.258  0.00  0.00    +0.054 C 
ATOM      8  C   UNL     1      15.731   7.136  21.034  0.00  0.00    +0.018 C 
ATOM      9  C   UNL     1      13.258   6.976  21.469  0.00  0.00    +0.113 C 
ATOM     10  C   UNL     1      14.526   8.938  22.293  0.00  0.00    +0.117 C 
ATOM     11  C   UNL     1      14.163   7.327  19.114  0.00  0.00    +0.130 C 
ATOM     12  C   UNL     1      15.325   9.369  19.961  0.00  0.00    +0.027 A 
ATOM     14  C   UNL     1      12.016   9.068  21.902  0.00  0.00    +0.219 C 
ATOM     19  C   UNL     1      15.771  10.620  19.765  0.00  0.00    +0.022 A 
ATOM     20  C   UNL     1      14.201   9.382  17.779  0.00  0.00    +0.259 A 
ATOM     22  C   UNL     1      14.683  10.796  17.604  0.00  0.00    +0.048 A 
ATOM     23  C   UNL     1      15.439  11.343  18.570  0.00  0.00    +0.015 A 
ENDROOT
BRANCH  22  24
ATOM      5  N   UNL     1      13.721  11.610  14.067  0.00  0.00    -0.263 NA
ATOM     24  C   UNL     1      14.336  11.578  16.405  0.00  0.00    +0.005 A 
ATOM     25  C   UNL     1      14.290  12.968  16.443  0.00  0.00    +0.011 A 
ATOM     26  C   UNL     1      14.046  10.953  15.203  0.00  0.00    +0.119 A 
ATOM     27  C   UNL     1      13.959  13.679  15.295  0.00  0.00    +0.020 A 
ATOM     28  C   UNL     1      13.687  12.959  14.143  0.00  0.00    +0.111 A 
ENDBRANCH  22  24
BRANCH  14  13
ATOM     13  C   UNL     1      12.053  10.479  22.404  0.00  0.00    +0.075 C 
ATOM     15  C   UNL     1      10.883  10.704  23.364  0.00  0.00    +0.013 C 
ATOM     16  C   UNL     1      12.008  11.452  21.226  0.00  0.00    +0.013 C 
ATOM     17  C   UNL     1      10.813  12.155  23.833  0.00  0.00    +0.001 C 
ATOM     18  C   UNL     1      11.940  12.902  21.700  0.00  0.00    +0.001 C 
ATOM     21  C   UNL     1      10.771  13.126  22.657  0.00  0.00    +0.000 C 
ENDBRANCH  14  13
TORSDOF 2
ENDMDL
MODEL 3
REMARK VINA RESULT:      -6.7     24.983     27.804
REMARK  Name = 40533457
REMARK  2 active torsions:
REMARK  status: ('A' for Active; 'I' for Inactive)
REMARK    1  A    between atoms: C_13  and  C_14
REMARK    2  A    between atoms: C_22  and  C_24
REMARK                            x       y       z     vdW  Elec       q    Type
REMARK                         _______ _______ _______ _____ _____    ______ ____
ROOT
ATOM      1  O   UNL     1     -16.471  10.003  22.697  0.00  0.00    -0.275 OA
ATOM      2  O   UNL     1     -14.120   8.837  18.036  0.00  0.00    -0.267 OA
ATOM      3  N   UNL     1     -15.740   7.799  22.673  0.00  0.00    -0.300 N 
ATOM      4  N   UNL     1     -14.243   7.413  19.879  0.00  0.00    -0.311 N 
ATOM      6  C   UNL     1     -16.455   6.427  20.712  0.00  0.00    +0.027 C 
ATOM      7  C   UNL     1     -14.358   5.887  21.879  0.00  0.00    +0.054 C 
ATOM      8  C   UNL     1     -15.591   5.277  21.215  0.00  0.00    +0.018 C 
ATOM      9  C   UNL     1     -16.880   7.333  21.879  0.00  0.00    +0.113 C 
ATOM     10  C   UNL     1     -14.793   6.749  23.080  0.00  0.00    +0.117 C 
ATOM     11  C   UNL     1     -15.677   7.197  19.638  0.00  0.00    +0.130 C 
ATOM     12  C   UNL     1     -13.571   6.734  20.897  0.00  0.00    +0.027 A 
ATOM     14  C   UNL     1     -15.665   9.139  23.051  0.00  0.00    +0.219 C 
ATOM     19  C   UNL     1     -12.240   6.853  21.023  0.00  0.00    +0.022 A 
ATOM     20  C   UNL     1     -13.568   8.249  18.966  0.00  0.00    +0.259 A 
ATOM     22  C   UNL     1     -12.082   8.392  19.155  0.00  0.00    +0.048 A 
ATOM     23  C   UNL     1     -11.489   7.699  20.140  0.00  0.00    +0.015 A 
ENDROOT
BRANCH  22  24
ATOM      5  N   UNL     1     -10.153   9.627  16.180  0.00  0.00    -0.263 NA
ATOM     24  C   UNL     1     -11.285   9.275  18.287  0.00  0.00    +0.005 A 
ATOM     25  C   UNL     1     -10.908  10.546  18.709  0.00  0.00    +0.011 A 
ATOM     26  C   UNL     1     -10.885   8.867  17.025  0.00  0.00    +0.119 A 
ATOM     27  C   UNL     1     -10.155  11.357  17.868  0.00  0.00    +0.020 A 
ATOM     28  C   UNL     1      -9.805  10.855  16.625  0.00  0.00    +0.111 A 
ENDBRANCH  22  24
BRANCH  14  13
ATOM     13  C   UNL     1     -14.518   9.524  23.934  0.00  0.00    +0.075 C 
ATOM     15  C   UNL     1     -15.044  10.346  25.113  0.00  0.00    +0.013 C 
ATOM     16  C   UNL     1     -13.478  10.301  23.128  0.00  0.00    +0.013 C 
ATOM     17  C   UNL     1     -13.906  10.850  25.997  0.00  0.00    +0.001 C 
ATOM     18  C   UNL     1     -12.341  10.802  24.015  0.00  0.00    +0.001 C 
ATOM     21  C   UNL     1     -12.866  11.622  25.192  0.00  0.00    +0.000 C 
ENDBRANCH  14  13
TORSDOF 2
ENDMDL
MODEL 4
REMARK VINA RESULT:      -6.6     17.437     20.958
REMARK  Name = 40533457
REMARK  2 active torsions:
REMARK  status: ('A' for Active; 'I' for Inactive)
REMARK    1  A    between atoms: C_13  and  C_14
REMARK    2  A    between atoms: C_22  and  C_24
REMARK                            x       y       z     vdW  Elec       q    Type
REMARK                         _______ _______ _______ _____ _____    ______ ____
ROOT
ATOM      1  O   UNL     1      12.902   6.280  -2.182  0.00  0.00    -0.275 OA
ATOM      2  O   UNL     1      12.357   7.661   2.958  0.00  0.00    -0.267 OA
ATOM      3  N   UNL     1      13.440   4.501  -0.790  0.00  0.00    -0.300 N 
ATOM      4  N   UNL     1      12.877   5.524   2.182  0.00  0.00    -0.311 N 
ATOM      6  C   UNL     1      15.094   4.982   1.019  0.00  0.00    +0.027 C 
ATOM      7  C   UNL     1      13.416   3.212   1.339  0.00  0.00    +0.054 C 
ATOM      8  C   UNL     1      14.880   3.578   1.573  0.00  0.00    +0.018 C 
ATOM      9  C   UNL     1      14.774   5.022  -0.485  0.00  0.00    +0.113 C 
ATOM     10  C   UNL     1      13.122   3.203  -0.174  0.00  0.00    +0.117 C 
ATOM     11  C   UNL     1      14.231   5.966   1.818  0.00  0.00    +0.130 C 
ATOM     12  C   UNL     1      12.489   4.190   2.037  0.00  0.00    +0.027 A 
ATOM     14  C   UNL     1      12.615   5.193  -1.676  0.00  0.00    +0.219 C 
ATOM     19  C   UNL     1      11.292   3.783   2.487  0.00  0.00    +0.022 A 
ATOM     20  C   UNL     1      12.038   6.485   2.781  0.00  0.00    +0.259 A 
ATOM     22  C   UNL     1      10.688   6.007   3.243  0.00  0.00    +0.048 A 
ATOM     23  C   UNL     1      10.379   4.710   3.094  0.00  0.00    +0.015 A 
ENDROOT
BRANCH  22  24
ATOM      5  N   UNL     1       8.777   7.948   5.827  0.00  0.00    -0.263 NA
ATOM     24  C   UNL     1       9.714   6.936   3.842  0.00  0.00    +0.005 A 
ATOM     25  C   UNL     1       8.833   7.662   3.047  0.00  0.00    +0.011 A 
ATOM     26  C   UNL     1       9.646   7.114   5.214  0.00  0.00    +0.119 A 
ATOM     27  C   UNL     1       7.925   8.531   3.641  0.00  0.00    +0.020 A 
ATOM     28  C   UNL     1       7.936   8.636   5.022  0.00  0.00    +0.111 A 
ENDBRANCH  22  24
BRANCH  14  13
ATOM     13  C   UNL     1      11.301   4.554  -2.008  0.00  0.00    +0.075 C 
ATOM     15  C   UNL     1      11.494   3.581  -3.173  0.00  0.00    +0.013 C 
ATOM     16  C   UNL     1      10.269   5.631  -2.341  0.00  0.00    +0.013 C 
ATOM     17  C   UNL     1      10.168   2.972  -3.620  0.00  0.00    +0.001 C 
ATOM     18  C   UNL     1       8.944   5.017  -2.786  0.00  0.00    +0.001 C 
ATOM     21  C   UNL     1       9.136   4.046  -3.949  0.00  0.00    +0.000 C 
ENDBRANCH  14  13
TORSDOF 2
ENDMDL
MODEL 5
REMARK VINA RESULT:      -6.5     28.471     30.975
REMARK  Name = 40533457
REMARK  2 active torsions:
REMARK  status: ('A' for Active; 'I' for Inactive)
REMARK    1  A    between atoms: C_13  and  C_14
REMARK    2  A    between atoms: C_22  and  C_24
REMARK                            x       y       z     vdW  Elec       q    Type
REMARK                         _______ _______ _______ _____ _____    ______ ____
ROOT
ATOM      1  O   UNL     1      -6.603 -11.327  20.378  0.00  0.00    -0.275 OA
ATOM      2  O   UNL     1     -11.412  -9.450  18.975  0.00  0.00    -0.267 OA
ATOM      3  N   UNL     1      -7.829 -12.955  19.266  0.00  0.00    -0.300 N 
ATOM      4  N   UNL     1     -10.560 -11.544  18.401  0.00  0.00    -0.311 N 
ATOM      6  C   UNL     1     -10.132 -13.380  20.134  0.00  0.00    +0.027 C 
ATOM      7  C   UNL     1      -9.627 -13.795  17.764  0.00  0.00    +0.054 C 
ATOM      8  C   UNL     1     -10.381 -14.337  18.976  0.00  0.00    +0.018 C 
ATOM      9  C   UNL     1      -8.629 -13.290  20.447  0.00  0.00    +0.113 C 
ATOM     10  C   UNL     1      -8.117 -13.761  18.069  0.00  0.00    +0.117 C 
ATOM     11  C   UNL     1     -10.731 -12.012  19.784  0.00  0.00    +0.130 C 
ATOM     12  C   UNL     1     -10.109 -12.404  17.397  0.00  0.00    +0.027 A 
ATOM     14  C   UNL     1      -6.826 -11.991  19.364  0.00  0.00    +0.219 C 
ATOM     19  C   UNL     1     -10.075 -11.991  16.121  0.00  0.00    +0.022 A 
ATOM     20  C   UNL     1     -10.976 -10.226  18.124  0.00  0.00    +0.259 A 
ATOM     22  C   UNL     1     -10.893  -9.780  16.689  0.00  0.00    +0.048 A 
ATOM     23  C   UNL     1     -10.469 -10.657  15.766  0.00  0.00    +0.015 A 
ENDROOT
BRANCH  22  24
ATOM      5  N   UNL     1     -10.556  -6.191  15.638  0.00  0.00    -0.263 NA
ATOM     24  C   UNL     1     -11.259  -8.409  16.295  0.00  0.00    +0.005 A 
ATOM     25  C   UNL     1     -12.592  -8.022  16.201  0.00  0.00    +0.011 A 
ATOM     26  C   UNL     1     -10.288  -7.464  16.005  0.00  0.00    +0.119 A 
ATOM     27  C   UNL     1     -12.907  -6.720  15.826  0.00  0.00    +0.020 A 
ATOM     28  C   UNL     1     -11.862  -5.851  15.559  0.00  0.00    +0.111 A 
ENDBRANCH  22  24
BRANCH  14  13
ATOM     13  C   UNL     1      -5.992 -11.764  18.140  0.00  0.00    +0.075 C 
ATOM     15  C   UNL     1      -4.525 -11.624  18.550  0.00  0.00    +0.013 C 
ATOM     16  C   UNL     1      -6.488 -10.525  17.395  0.00  0.00    +0.013 C 
ATOM     17  C   UNL     1      -3.637 -11.294  17.353  0.00  0.00    +0.001 C 
ATOM     18  C   UNL     1      -5.598 -10.199  16.198  0.00  0.00    +0.001 C 
ATOM     21  C   UNL     1      -4.134 -10.059  16.607  0.00  0.00    +0.000 C 
ENDBRANCH  14  13
TORSDOF 2
ENDMDL
MODEL 6
REMARK VINA RESULT:      -6.4      3.159      6.234
REMARK  Name = 40533457
REMARK  2 active torsions:
REMARK  status: ('A' for Active; 'I' for Inactive)
REMARK    1  A    between atoms: C_13  and  C_14
REMARK    2  A    between atoms: C_22  and  C_24
REMARK                            x       y       z     vdW  Elec       q    Type
REMARK                         _______ _______ _______ _____ _____    ______ ____
ROOT
ATOM      1  O   UNL     1      14.441  10.582  16.096  0.00  0.00    -0.275 OA
ATOM      2  O   UNL     1      15.912   6.181  18.758  0.00  0.00    -0.267 OA
ATOM      3  N   UNL     1      13.154  10.310  18.010  0.00  0.00    -0.300 N 
ATOM      4  N   UNL     1      14.332   7.735  19.486  0.00  0.00    -0.311 N 
ATOM      6  C   UNL     1      12.085   8.072  18.305  0.00  0.00    +0.027 C 
ATOM      7  C   UNL     1      12.643   9.427  20.280  0.00  0.00    +0.054 C 
ATOM      8  C   UNL     1      11.586   8.503  19.678  0.00  0.00    +0.018 C 
ATOM      9  C   UNL     1      12.292   9.296  17.398  0.00  0.00    +0.113 C 
ATOM     10  C   UNL     1      12.803  10.675  19.391  0.00  0.00    +0.117 C 
ATOM     11  C   UNL     1      13.374   7.259  18.479  0.00  0.00    +0.130 C 
ATOM     12  C   UNL     1      13.978   8.717  20.414  0.00  0.00    +0.027 A 
ATOM     14  C   UNL     1      14.163  10.905  17.254  0.00  0.00    +0.219 C 
ATOM     19  C   UNL     1      14.824   9.050  21.400  0.00  0.00    +0.022 A 
ATOM     20  C   UNL     1      15.577   7.075  19.536  0.00  0.00    +0.259 A 
ATOM     22  C   UNL     1      16.520   7.496  20.630  0.00  0.00    +0.048 A 
ATOM     23  C   UNL     1      16.116   8.432  21.504  0.00  0.00    +0.015 A 
ENDROOT
BRANCH  22  24
ATOM      5  N   UNL     1      20.037   6.911  21.808  0.00  0.00    -0.263 NA
ATOM     24  C   UNL     1      17.864   6.905  20.748  0.00  0.00    +0.005 A 
ATOM     25  C   UNL     1      18.246   5.828  19.955  0.00  0.00    +0.011 A 
ATOM     26  C   UNL     1      18.789   7.406  21.651  0.00  0.00    +0.119 A 
ATOM     27  C   UNL     1      19.522   5.292  20.089  0.00  0.00    +0.020 A 
ATOM     28  C   UNL     1      20.372   5.865  21.020  0.00  0.00    +0.111 A 
ENDBRANCH  22  24
BRANCH  14  13
ATOM     13  C   UNL     1      14.947  11.994  17.919  0.00  0.00    +0.075 C 
ATOM     15  C   UNL     1      15.555  12.903  16.849  0.00  0.00    +0.013 C 
ATOM     16  C   UNL     1      16.025  11.386  18.817  0.00  0.00    +0.013 C 
ATOM     17  C   UNL     1      16.447  13.977  17.466  0.00  0.00    +0.001 C 
ATOM     18  C   UNL     1      16.913  12.464  19.433  0.00  0.00    +0.001 C 
ATOM     21  C   UNL     1      17.520  13.371  18.365  0.00  0.00    +0.000 C 
ENDBRANCH  14  13
TORSDOF 2
ENDMDL
MODEL 7
REMARK VINA RESULT:      -6.4     27.053     29.251
REMARK  Name = 40533457
REMARK  2 active torsions:
REMARK  status: ('A' for Active; 'I' for Inactive)
REMARK    1  A    between atoms: C_13  and  C_14
REMARK    2  A    between atoms: C_22  and  C_24
REMARK                            x       y       z     vdW  Elec       q    Type
REMARK                         _______ _______ _______ _____ _____    ______ ____
ROOT
ATOM      1  O   UNL     1      -4.047 -14.677  12.576  0.00  0.00    -0.275 OA
ATOM      2  O   UNL     1      -6.751 -10.284  13.991  0.00  0.00    -0.267 OA
ATOM      3  N   UNL     1      -2.590 -12.982  13.207  0.00  0.00    -0.300 N 
ATOM      4  N   UNL     1      -4.440 -10.558  14.153  0.00  0.00    -0.311 N 
ATOM      6  C   UNL     1      -2.930 -10.772  12.096  0.00  0.00    +0.027 C 
ATOM      7  C   UNL     1      -1.948 -10.866  14.348  0.00  0.00    +0.054 C 
ATOM      8  C   UNL     1      -1.858 -10.167  12.994  0.00  0.00    +0.018 C 
ATOM      9  C   UNL     1      -2.702 -12.283  11.925  0.00  0.00    +0.113 C 
ATOM     10  C   UNL     1      -1.664 -12.371  14.173  0.00  0.00    +0.117 C 
ATOM     11  C   UNL     1      -4.308 -10.461  12.693  0.00  0.00    +0.130 C 
ATOM     12  C   UNL     1      -3.316 -10.671  14.974  0.00  0.00    +0.027 A 
ATOM     14  C   UNL     1      -3.274 -14.182  13.400  0.00  0.00    +0.219 C 
ATOM     19  C   UNL     1      -3.450 -10.636  16.309  0.00  0.00    +0.022 A 
ATOM     20  C   UNL     1      -5.740 -10.420  14.681  0.00  0.00    +0.259 A 
ATOM     22  C   UNL     1      -5.863 -10.421  16.181  0.00  0.00    +0.048 A 
ATOM     23  C   UNL     1      -4.744 -10.514  16.918  0.00  0.00    +0.015 A 
ENDROOT
BRANCH  22  24
ATOM      5  N   UNL     1      -8.991 -11.435  17.993  0.00  0.00    -0.263 NA
ATOM     24  C   UNL     1      -7.177 -10.329  16.839  0.00  0.00    +0.005 A 
ATOM     25  C   UNL     1      -7.846  -9.114  16.938  0.00  0.00    +0.011 A 
ATOM     26  C   UNL     1      -7.787 -11.451  17.378  0.00  0.00    +0.119 A 
ATOM     27  C   UNL     1      -9.086  -9.058  17.564  0.00  0.00    +0.020 A 
ATOM     28  C   UNL     1      -9.611 -10.236  18.070  0.00  0.00    +0.111 A 
ENDBRANCH  22  24
BRANCH  14  13
ATOM     13  C   UNL     1      -3.043 -14.885  14.703  0.00  0.00    +0.075 C 
ATOM     15  C   UNL     1      -2.198 -16.136  14.457  0.00  0.00    +0.013 C 
ATOM     16  C   UNL     1      -4.383 -15.231  15.353  0.00  0.00    +0.013 C 
ATOM     17  C   UNL     1      -2.011 -16.947  15.736  0.00  0.00    +0.001 C 
ATOM     18  C   UNL     1      -4.191 -16.040  16.633  0.00  0.00    +0.001 C 
ATOM     21  C   UNL     1      -3.348 -17.290  16.387  0.00  0.00    +0.000 C 
ENDBRANCH  14  13
TORSDOF 2
ENDMDL
MODEL 8
REMARK VINA RESULT:      -6.3     12.266     15.731
REMARK  Name = 40533457
REMARK  2 active torsions:
REMARK  status: ('A' for Active; 'I' for Inactive)
REMARK    1  A    between atoms: C_13  and  C_14
REMARK    2  A    between atoms: C_22  and  C_24
REMARK                            x       y       z     vdW  Elec       q    Type
REMARK                         _______ _______ _______ _____ _____    ______ ____
ROOT
ATOM      1  O   UNL     1       9.057  11.069   6.499  0.00  0.00    -0.275 OA
ATOM      2  O   UNL     1      12.679   8.220   3.782  0.00  0.00    -0.267 OA
ATOM      3  N   UNL     1       8.865   8.808   6.994  0.00  0.00    -0.300 N 
ATOM      4  N   UNL     1      11.220   7.368   5.391  0.00  0.00    -0.311 N 
ATOM      6  C   UNL     1       8.686   7.267   5.038  0.00  0.00    +0.027 C 
ATOM      7  C   UNL     1       9.660   6.455   7.145  0.00  0.00    +0.054 C 
ATOM      8  C   UNL     1       8.742   6.075   5.985  0.00  0.00    +0.018 C 
ATOM      9  C   UNL     1       8.134   8.506   5.762  0.00  0.00    +0.113 C 
ATOM     10  C   UNL     1       9.068   7.664   7.896  0.00  0.00    +0.117 C 
ATOM     11  C   UNL     1      10.088   7.511   4.466  0.00  0.00    +0.130 C 
ATOM     12  C   UNL     1      11.055   6.789   6.651  0.00  0.00    +0.027 A 
ATOM     14  C   UNL     1       9.237  10.124   7.270  0.00  0.00    +0.219 C 
ATOM     19  C   UNL     1      12.122   6.557   7.432  0.00  0.00    +0.022 A 
ATOM     20  C   UNL     1      12.489   7.739   4.900  0.00  0.00    +0.259 A 
ATOM     22  C   UNL     1      13.661   7.501   5.813  0.00  0.00    +0.048 A 
ATOM     23  C   UNL     1      13.442   6.924   7.005  0.00  0.00    +0.015 A 
ENDROOT
BRANCH  22  24
ATOM      5  N   UNL     1      16.898   7.627   3.914  0.00  0.00    -0.263 NA
ATOM     24  C   UNL     1      15.025   7.893   5.420  0.00  0.00    +0.005 A 
ATOM     25  C   UNL     1      15.728   8.858   6.134  0.00  0.00    +0.011 A 
ATOM     26  C   UNL     1      15.650   7.313   4.327  0.00  0.00    +0.119 A 
ATOM     27  C   UNL     1      17.015   9.208   5.739  0.00  0.00    +0.020 A 
ATOM     28  C   UNL     1      17.550   8.568   4.634  0.00  0.00    +0.111 A 
ENDBRANCH  22  24
BRANCH  14  13
ATOM     13  C   UNL     1       9.904  10.370   8.589  0.00  0.00    +0.075 C 
ATOM     15  C   UNL     1       8.980  11.212   9.471  0.00  0.00    +0.013 C 
ATOM     16  C   UNL     1      11.251  11.059   8.370  0.00  0.00    +0.013 C 
ATOM     17  C   UNL     1       9.647  11.578  10.794  0.00  0.00    +0.001 C 
ATOM     18  C   UNL     1      11.916  11.421   9.696  0.00  0.00    +0.001 C 
ATOM     21  C   UNL     1      10.994  12.262  10.576  0.00  0.00    +0.000 C 
ENDBRANCH  14  13
TORSDOF 2
ENDMDL
MODEL 9
REMARK VINA RESULT:      -6.2     27.085     28.869
REMARK  Name = 40533457
REMARK  2 active torsions:
REMARK  status: ('A' for Active; 'I' for Inactive)
REMARK    1  A    between atoms: C_13  and  C_14
REMARK    2  A    between atoms: C_22  and  C_24
REMARK                            x       y       z     vdW  Elec       q    Type
REMARK                         _______ _______ _______ _____ _____    ______ ____
ROOT
ATOM      1  O   UNL     1      -4.435 -14.588  11.879  0.00  0.00    -0.275 OA
ATOM      2  O   UNL     1      -6.289 -10.506  14.798  0.00  0.00    -0.267 OA
ATOM      3  N   UNL     1      -2.958 -12.797  11.821  0.00  0.00    -0.300 N 
ATOM      4  N   UNL     1      -4.204 -10.583  13.754  0.00  0.00    -0.311 N 
ATOM      6  C   UNL     1      -3.938 -10.584  11.207  0.00  0.00    +0.027 C 
ATOM      7  C   UNL     1      -1.945 -10.678  12.644  0.00  0.00    +0.054 C 
ATOM      8  C   UNL     1      -2.595  -9.923  11.487  0.00  0.00    +0.018 C 
ATOM      9  C   UNL     1      -3.744 -12.062  10.828  0.00  0.00    +0.113 C 
ATOM     10  C   UNL     1      -1.706 -12.144  12.234  0.00  0.00    +0.117 C 
ATOM     11  C   UNL     1      -4.838 -10.419  12.438  0.00  0.00    +0.130 C 
ATOM     12  C   UNL     1      -2.815 -10.628  13.887  0.00  0.00    +0.027 A 
ATOM     14  C   UNL     1      -3.380 -14.059  12.238  0.00  0.00    +0.219 C 
ATOM     19  C   UNL     1      -2.254 -10.656  15.106  0.00  0.00    +0.022 A 
ATOM     20  C   UNL     1      -5.062 -10.580  14.873  0.00  0.00    +0.259 A 
ATOM     22  C   UNL     1      -4.406 -10.649  16.225  0.00  0.00    +0.048 A 
ATOM     23  C   UNL     1      -3.065 -10.672  16.290  0.00  0.00    +0.015 A 
ENDROOT
BRANCH  22  24
ATOM      5  N   UNL     1      -7.212 -10.053  18.648  0.00  0.00    -0.263 NA
ATOM     24  C   UNL     1      -5.207 -10.698  17.460  0.00  0.00    +0.005 A 
ATOM     25  C   UNL     1      -4.762 -11.397  18.577  0.00  0.00    +0.011 A 
ATOM     26  C   UNL     1      -6.429 -10.049  17.546  0.00  0.00    +0.119 A 
ATOM     27  C   UNL     1      -5.541 -11.425  19.729  0.00  0.00    +0.020 A 
ATOM     28  C   UNL     1      -6.746 -10.742  19.713  0.00  0.00    +0.111 A 
ENDBRANCH  22  24
BRANCH  14  13
ATOM     13  C   UNL     1      -2.481 -14.788  13.189  0.00  0.00    +0.075 C 
ATOM     15  C   UNL     1      -1.649 -15.811  12.411  0.00  0.00    +0.013 C 
ATOM     16  C   UNL     1      -3.312 -15.457  14.283  0.00  0.00    +0.013 C 
ATOM     17  C   UNL     1      -0.782 -16.653  13.343  0.00  0.00    +0.001 C 
ATOM     18  C   UNL     1      -2.441 -16.297  15.214  0.00  0.00    +0.001 C 
ATOM     21  C   UNL     1      -1.611 -17.317  14.438  0.00  0.00    +0.000 C 
ENDBRANCH  14  13
TORSDOF 2
ENDMDL
MODEL 10
REMARK VINA RESULT:      -6.1     27.691     29.599
REMARK  Name = 40533457
REMARK  2 active torsions:
REMARK  status: ('A' for Active; 'I' for Inactive)
REMARK    1  A    between atoms: C_13  and  C_14
REMARK    2  A    between atoms: C_22  and  C_24
REMARK                            x       y       z     vdW  Elec       q    Type
REMARK                         _______ _______ _______ _____ _____    ______ ____
ROOT
ATOM      1  O   UNL     1      -6.646 -12.984   9.670  0.00  0.00    -0.275 OA
ATOM      2  O   UNL     1      -6.573 -10.312  14.304  0.00  0.00    -0.267 OA
ATOM      3  N   UNL     1      -5.127 -11.231   9.584  0.00  0.00    -0.300 N 
ATOM      4  N   UNL     1      -5.155  -9.917  12.495  0.00  0.00    -0.311 N 
ATOM      6  C   UNL     1      -5.997  -8.990  10.261  0.00  0.00    +0.027 C 
ATOM      7  C   UNL     1      -3.610  -9.509  10.548  0.00  0.00    +0.054 C 
ATOM      8  C   UNL     1      -4.591  -8.416  10.129  0.00  0.00    +0.018 C 
ATOM      9  C   UNL     1      -6.163 -10.222   9.356  0.00  0.00    +0.113 C 
ATOM     10  C   UNL     1      -3.748 -10.717   9.601  0.00  0.00    +0.117 C 
ATOM     11  C   UNL     1      -6.261  -9.317  11.735  0.00  0.00    +0.130 C 
ATOM     12  C   UNL     1      -3.858  -9.947  11.979  0.00  0.00    +0.027 A 
ATOM     14  C   UNL     1      -5.483 -12.575   9.686  0.00  0.00    +0.219 C 
ATOM     19  C   UNL     1      -2.841 -10.387  12.736  0.00  0.00    +0.022 A 
ATOM     20  C   UNL     1      -5.449 -10.354  13.802  0.00  0.00    +0.259 A 
ATOM     22  C   UNL     1      -4.296 -10.877  14.614  0.00  0.00    +0.048 A 
ATOM     23  C   UNL     1      -3.068 -10.864  14.071  0.00  0.00    +0.015 A 
ENDROOT
BRANCH  22  24
ATOM      5  N   UNL     1      -4.928 -13.296  17.416  0.00  0.00    -0.263 NA
ATOM     24  C   UNL     1      -4.498 -11.402  15.975  0.00  0.00    +0.005 A 
ATOM     25  C   UNL     1      -4.458 -10.560  17.082  0.00  0.00    +0.011 A 
ATOM     26  C   UNL     1      -4.734 -12.750  16.194  0.00  0.00    +0.119 A 
ATOM     27  C   UNL     1      -4.652 -11.085  18.355  0.00  0.00    +0.020 A 
ATOM     28  C   UNL     1      -4.882 -12.446  18.467  0.00  0.00    +0.111 A 
ENDBRANCH  22  24
BRANCH  14  13
ATOM     13  C   UNL     1      -4.362 -13.558   9.832  0.00  0.00    +0.075 C 
ATOM     15  C   UNL     1      -4.758 -14.876   9.163  0.00  0.00    +0.013 C 
ATOM     16  C   UNL     1      -4.033 -13.756  11.311  0.00  0.00    +0.013 C 
ATOM     17  C   UNL     1      -3.691 -15.949   9.364  0.00  0.00    +0.001 C 
ATOM     18  C   UNL     1      -2.965 -14.829  11.508  0.00  0.00    +0.001 C 
ATOM     21  C   UNL     1      -3.359 -16.144  10.841  0.00  0.00    +0.000 C 
ENDBRANCH  14  13
TORSDOF 2
ENDMDL
