MODEL 1
REMARK VINA RESULT:      -6.7      0.000      0.000
REMARK  Name = 44716903
REMARK  13 active torsions:
REMARK  status: ('A' for Active; 'I' for Inactive)
REMARK    1  A    between atoms: O_1  and  C_16
REMARK    2  A    between atoms: O_1  and  C_25
REMARK    3  A    between atoms: O_2  and  C_17
REMARK    4  A    between atoms: O_3  and  C_21
REMARK    5  A    between atoms: O_6  and  C_28
REMARK    6  A    between atoms: O_7  and  C_35
REMARK    7  A    between atoms: O_7  and  C_36
REMARK    8  A    between atoms: N_9  and  C_30
REMARK    9  A    between atoms: C_10  and  C_20
REMARK   10  A    between atoms: C_12  and  C_21
REMARK   11  A    between atoms: C_12  and  C_23
REMARK   12  A    between atoms: C_13  and  C_22
REMARK   13  A    between atoms: C_22  and  C_24
REMARK                            x       y       z     vdW  Elec       q    Type
REMARK                         _______ _______ _______ _____ _____    ______ ____
ROOT
ATOM     10  C   UNL     1      -4.336 -11.796  14.766  0.00  0.00    -0.023 C 
ATOM     11  C   UNL     1      -4.366 -11.097  16.180  0.00  0.00    +0.007 C 
ATOM     12  C   UNL     1      -5.583 -11.451  17.119  0.00  0.00    +0.031 C 
ATOM     13  C   UNL     1      -3.231 -11.054  13.907  0.00  0.00    +0.032 C 
ATOM     14  C   UNL     1      -5.722 -11.603  14.093  0.00  0.00    +0.011 C 
ATOM     15  C   UNL     1      -2.982 -11.173  16.862  0.00  0.00    +0.007 C 
ATOM     16  C   UNL     1      -6.906 -11.297  16.309  0.00  0.00    +0.186 C 
ATOM     17  C   UNL     1      -1.842 -11.021  14.585  0.00  0.00    +0.119 C 
ATOM     18  C   UNL     1      -6.895 -12.025  14.969  0.00  0.00    +0.046 C 
ATOM     19  C   UNL     1      -1.908 -10.491  16.014  0.00  0.00    +0.032 C 
ATOM     20  C   UNL     1      -4.044 -13.315  14.832  0.00  0.00    +0.012 C 
ATOM     23  C   UNL     1      -5.634 -10.431  18.293  0.00  0.00    +0.017 C 
ENDROOT
BRANCH  17   2
ATOM      2  O   UNL     1      -1.242 -12.313  14.578  0.00  0.00    -0.391 OA
ATOM     37  H   UNL     1      -0.839 -12.448  13.705  0.00  0.00    +0.210 HD
ENDBRANCH  17   2
BRANCH  16   1
ATOM      1  O   UNL     1      -8.034 -11.780  17.040  0.00  0.00    -0.446 OA
BRANCH   1  25
ATOM      5  O   UNL     1     -10.309 -11.561  17.124  0.00  0.00    -0.226 OA
ATOM      9  N   UNL     1      -8.919  -9.836  16.368  0.00  0.00    -0.251 N 
ATOM     25  C   UNL     1      -9.207 -11.092  16.866  0.00  0.00    +0.405 C 
ATOM     39  H   UNL     1      -7.936  -9.628  16.215  0.00  0.00    +0.158 HD
BRANCH   9  30
ATOM     30  C   UNL     1      -9.824  -8.801  16.040  0.00  0.00    +0.037 A 
ATOM     31  C   UNL     1     -10.470  -8.805  14.804  0.00  0.00    +0.027 A 
ATOM     32  C   UNL     1     -10.071  -7.774  16.953  0.00  0.00    +0.027 A 
ATOM     33  C   UNL     1     -11.363  -7.783  14.480  0.00  0.00    +0.047 A 
ATOM     34  C   UNL     1     -10.964  -6.753  16.628  0.00  0.00    +0.047 A 
ATOM     35  C   UNL     1     -11.610  -6.757  15.393  0.00  0.00    +0.120 A 
BRANCH  35   7
ATOM      7  O   UNL     1     -12.481  -5.761  15.076  0.00  0.00    -0.495 OA
ATOM     36  C   UNL     1     -12.313  -5.132  13.806  0.00  0.00    +0.277 C 
ENDBRANCH  35   7
ENDBRANCH   9  30
ENDBRANCH   1  25
ENDBRANCH  16   1
BRANCH  12  21
ATOM     21  C   UNL     1      -5.485 -12.842  17.779  0.00  0.00    +0.166 C 
BRANCH  21   3
ATOM      3  O   UNL     1      -6.359 -12.859  18.886  0.00  0.00    -0.394 OA
ATOM     38  H   UNL     1      -6.797 -13.728  18.896  0.00  0.00    +0.209 HD
ENDBRANCH  21   3
ENDBRANCH  12  21
BRANCH  13  22
ATOM     22  C   UNL     1      -3.094 -11.553  12.459  0.00  0.00    +0.102 C 
BRANCH  22  24
ATOM      4  O   UNL     1      -1.720  -9.859  11.503  0.00  0.00    -0.276 OA
ATOM      8  N   UNL     1      -3.908  -9.983  10.768  0.00  0.00    -0.299 N 
ATOM     24  C   UNL     1      -2.833 -10.387  11.540  0.00  0.00    +0.216 C 
ATOM     26  C   UNL     1      -5.248 -10.569  10.764  0.00  0.00    +0.139 C 
ATOM     27  C   UNL     1      -3.813  -8.876   9.829  0.00  0.00    +0.110 C 
ATOM     28  C   UNL     1      -5.945  -9.916   9.575  0.00  0.00    +0.133 C 
ATOM     29  C   UNL     1      -5.257  -8.561   9.460  0.00  0.00    +0.052 C 
BRANCH  28   6
ATOM      6  O   UNL     1      -5.700 -10.669   8.392  0.00  0.00    -0.390 OA
ATOM     40  H   UNL     1      -4.838 -10.389   8.042  0.00  0.00    +0.210 HD
ENDBRANCH  28   6
ENDBRANCH  22  24
ENDBRANCH  13  22
TORSDOF 10
ENDMDL
MODEL 2
REMARK VINA RESULT:      -6.5      1.930      7.680
REMARK  Name = 44716903
REMARK  13 active torsions:
REMARK  status: ('A' for Active; 'I' for Inactive)
REMARK    1  A    between atoms: O_1  and  C_16
REMARK    2  A    between atoms: O_1  and  C_25
REMARK    3  A    between atoms: O_2  and  C_17
REMARK    4  A    between atoms: O_3  and  C_21
REMARK    5  A    between atoms: O_6  and  C_28
REMARK    6  A    between atoms: O_7  and  C_35
REMARK    7  A    between atoms: O_7  and  C_36
REMARK    8  A    between atoms: N_9  and  C_30
REMARK    9  A    between atoms: C_10  and  C_20
REMARK   10  A    between atoms: C_12  and  C_21
REMARK   11  A    between atoms: C_12  and  C_23
REMARK   12  A    between atoms: C_13  and  C_22
REMARK   13  A    between atoms: C_22  and  C_24
REMARK                            x       y       z     vdW  Elec       q    Type
REMARK                         _______ _______ _______ _____ _____    ______ ____
ROOT
ATOM     10  C   UNL     1      -7.636 -11.028  18.001  0.00  0.00    -0.023 C 
ATOM     11  C   UNL     1      -7.200 -12.379  17.311  0.00  0.00    +0.007 C 
ATOM     12  C   UNL     1      -5.674 -12.522  16.939  0.00  0.00    +0.031 C 
ATOM     13  C   UNL     1      -9.220 -10.989  17.979  0.00  0.00    +0.032 C 
ATOM     14  C   UNL     1      -7.084  -9.846  17.160  0.00  0.00    +0.011 C 
ATOM     15  C   UNL     1      -7.800 -13.595  18.050  0.00  0.00    +0.007 C 
ATOM     16  C   UNL     1      -5.220 -11.244  16.171  0.00  0.00    +0.186 C 
ATOM     17  C   UNL     1      -9.875 -12.229  18.629  0.00  0.00    +0.119 C 
ATOM     18  C   UNL     1      -5.590  -9.941  16.871  0.00  0.00    +0.046 C 
ATOM     19  C   UNL     1      -9.328 -13.537  18.064  0.00  0.00    +0.032 C 
ATOM     20  C   UNL     1      -7.108 -10.873  19.448  0.00  0.00    +0.012 C 
ATOM     23  C   UNL     1      -5.496 -13.732  15.976  0.00  0.00    +0.017 C 
ENDROOT
BRANCH  17   2
ATOM      2  O   UNL     1      -9.711 -12.209  20.043  0.00  0.00    -0.391 OA
ATOM     37  H   UNL     1      -8.885 -11.737  20.239  0.00  0.00    +0.210 HD
ENDBRANCH  17   2
BRANCH  16   1
ATOM      1  O   UNL     1      -3.806 -11.223  15.966  0.00  0.00    -0.446 OA
BRANCH   1  25
ATOM      5  O   UNL     1      -2.230 -10.365  14.548  0.00  0.00    -0.226 OA
ATOM      9  N   UNL     1      -4.437 -10.750  13.870  0.00  0.00    -0.251 N 
ATOM     25  C   UNL     1      -3.378 -10.738  14.757  0.00  0.00    +0.405 C 
ATOM     39  H   UNL     1      -5.322 -11.097  14.231  0.00  0.00    +0.158 HD
BRANCH   9  30
ATOM     30  C   UNL     1      -4.445 -10.337  12.518  0.00  0.00    +0.037 A 
ATOM     31  C   UNL     1      -5.432  -9.463  12.062  0.00  0.00    +0.027 A 
ATOM     32  C   UNL     1      -3.466 -10.803  11.639  0.00  0.00    +0.027 A 
ATOM     33  C   UNL     1      -5.441  -9.055  10.728  0.00  0.00    +0.047 A 
ATOM     34  C   UNL     1      -3.476 -10.395  10.306  0.00  0.00    +0.047 A 
ATOM     35  C   UNL     1      -4.462  -9.521   9.850  0.00  0.00    +0.120 A 
BRANCH  35   7
ATOM      7  O   UNL     1      -4.471  -9.123   8.548  0.00  0.00    -0.495 OA
ATOM     36  C   UNL     1      -5.257  -9.894   7.640  0.00  0.00    +0.277 C 
ENDBRANCH  35   7
ENDBRANCH   9  30
ENDBRANCH   1  25
ENDBRANCH  16   1
BRANCH  12  21
ATOM     21  C   UNL     1      -4.756 -12.810  18.145  0.00  0.00    +0.166 C 
BRANCH  21   3
ATOM      3  O   UNL     1      -4.338 -14.155  18.060  0.00  0.00    -0.394 OA
ATOM     38  H   UNL     1      -3.992 -14.295  17.162  0.00  0.00    +0.209 HD
ENDBRANCH  21   3
ENDBRANCH  12  21
BRANCH  13  22
ATOM     22  C   UNL     1      -9.843  -9.706  18.555  0.00  0.00    +0.102 C 
BRANCH  22  24
ATOM      4  O   UNL     1     -12.186 -10.030  18.277  0.00  0.00    -0.276 OA
ATOM      8  N   UNL     1     -11.155  -8.521  16.864  0.00  0.00    -0.299 N 
ATOM     24  C   UNL     1     -11.172  -9.444  17.894  0.00  0.00    +0.216 C 
ATOM     26  C   UNL     1      -9.989  -7.791  16.366  0.00  0.00    +0.139 C 
ATOM     27  C   UNL     1     -12.358  -8.155  16.131  0.00  0.00    +0.110 C 
ATOM     28  C   UNL     1     -10.569  -6.746  15.418  0.00  0.00    +0.133 C 
ATOM     29  C   UNL     1     -11.850  -7.401  14.910  0.00  0.00    +0.052 C 
BRANCH  28   6
ATOM      6  O   UNL     1     -10.900  -5.564  16.139  0.00  0.00    -0.390 OA
ATOM     40  H   UNL     1     -11.163  -5.834  17.035  0.00  0.00    +0.210 HD
ENDBRANCH  28   6
ENDBRANCH  22  24
ENDBRANCH  13  22
TORSDOF 10
ENDMDL
MODEL 3
REMARK VINA RESULT:      -6.4      2.239      7.439
REMARK  Name = 44716903
REMARK  13 active torsions:
REMARK  status: ('A' for Active; 'I' for Inactive)
REMARK    1  A    between atoms: O_1  and  C_16
REMARK    2  A    between atoms: O_1  and  C_25
REMARK    3  A    between atoms: O_2  and  C_17
REMARK    4  A    between atoms: O_3  and  C_21
REMARK    5  A    between atoms: O_6  and  C_28
REMARK    6  A    between atoms: O_7  and  C_35
REMARK    7  A    between atoms: O_7  and  C_36
REMARK    8  A    between atoms: N_9  and  C_30
REMARK    9  A    between atoms: C_10  and  C_20
REMARK   10  A    between atoms: C_12  and  C_21
REMARK   11  A    between atoms: C_12  and  C_23
REMARK   12  A    between atoms: C_13  and  C_22
REMARK   13  A    between atoms: C_22  and  C_24
REMARK                            x       y       z     vdW  Elec       q    Type
REMARK                         _______ _______ _______ _____ _____    ______ ____
ROOT
ATOM     10  C   UNL     1      -4.357 -11.732  15.858  0.00  0.00    -0.023 C 
ATOM     11  C   UNL     1      -4.416 -13.009  14.933  0.00  0.00    +0.007 C 
ATOM     12  C   UNL     1      -3.550 -12.968  13.615  0.00  0.00    +0.031 C 
ATOM     13  C   UNL     1      -5.527 -11.875  16.917  0.00  0.00    +0.032 C 
ATOM     14  C   UNL     1      -4.613 -10.477  14.980  0.00  0.00    +0.011 C 
ATOM     15  C   UNL     1      -4.263 -14.301  15.765  0.00  0.00    +0.007 C 
ATOM     16  C   UNL     1      -3.833 -11.631  12.867  0.00  0.00    +0.186 C 
ATOM     17  C   UNL     1      -5.474 -13.196  17.719  0.00  0.00    +0.119 C 
ATOM     18  C   UNL     1      -3.717 -10.393  13.751  0.00  0.00    +0.046 C 
ATOM     19  C   UNL     1      -5.369 -14.419  16.814  0.00  0.00    +0.032 C 
ATOM     20  C   UNL     1      -2.997 -11.547  16.573  0.00  0.00    +0.012 C 
ATOM     23  C   UNL     1      -3.993 -14.129  12.678  0.00  0.00    +0.017 C 
ENDROOT
BRANCH  17   2
ATOM      2  O   UNL     1      -4.390 -13.186  18.643  0.00  0.00    -0.391 OA
ATOM     37  H   UNL     1      -3.575 -13.015  18.143  0.00  0.00    +0.210 HD
ENDBRANCH  17   2
BRANCH  16   1
ATOM      1  O   UNL     1      -2.947 -11.443  11.762  0.00  0.00    -0.446 OA
BRANCH   1  25
ATOM      5  O   UNL     1      -2.694  -9.541  10.519  0.00  0.00    -0.226 OA
ATOM      9  N   UNL     1      -4.557 -10.939  10.290  0.00  0.00    -0.251 N 
ATOM     25  C   UNL     1      -3.345 -10.535  10.815  0.00  0.00    +0.405 C 
ATOM     39  H   UNL     1      -4.946 -11.800  10.666  0.00  0.00    +0.158 HD
BRANCH   9  30
ATOM     30  C   UNL     1      -5.329 -10.303   9.291  0.00  0.00    +0.037 A 
ATOM     31  C   UNL     1      -5.040 -10.519   7.944  0.00  0.00    +0.027 A 
ATOM     32  C   UNL     1      -6.379  -9.458   9.653  0.00  0.00    +0.027 A 
ATOM     33  C   UNL     1      -5.801  -9.891   6.958  0.00  0.00    +0.047 A 
ATOM     34  C   UNL     1      -7.140  -8.831   8.667  0.00  0.00    +0.047 A 
ATOM     35  C   UNL     1      -6.852  -9.046   7.320  0.00  0.00    +0.120 A 
BRANCH  35   7
ATOM      7  O   UNL     1      -7.594  -8.434   6.357  0.00  0.00    -0.495 OA
ATOM     36  C   UNL     1      -8.215  -7.197   6.707  0.00  0.00    +0.277 C 
ENDBRANCH  35   7
ENDBRANCH   9  30
ENDBRANCH   1  25
ENDBRANCH  16   1
BRANCH  12  21
ATOM     21  C   UNL     1      -2.039 -13.174  13.848  0.00  0.00    +0.166 C 
BRANCH  21   3
ATOM      3  O   UNL     1      -1.522 -13.884  12.744  0.00  0.00    -0.394 OA
ATOM     38  H   UNL     1      -1.359 -13.238  12.035  0.00  0.00    +0.209 HD
ENDBRANCH  21   3
ENDBRANCH  12  21
BRANCH  13  22
ATOM     22  C   UNL     1      -5.677 -10.685  17.879  0.00  0.00    +0.102 C 
BRANCH  22  24
ATOM      4  O   UNL     1      -6.856 -11.501  19.781  0.00  0.00    -0.276 OA
ATOM      8  N   UNL     1      -8.063 -10.278  18.237  0.00  0.00    -0.299 N 
ATOM     24  C   UNL     1      -6.911 -10.867  18.726  0.00  0.00    +0.216 C 
ATOM     26  C   UNL     1      -8.193  -9.512  16.997  0.00  0.00    +0.139 C 
ATOM     27  C   UNL     1      -9.334 -10.359  18.942  0.00  0.00    +0.110 C 
ATOM     28  C   UNL     1      -9.587  -8.897  17.074  0.00  0.00    +0.133 C 
ATOM     29  C   UNL     1     -10.367  -9.891  17.926  0.00  0.00    +0.052 C 
BRANCH  28   6
ATOM      6  O   UNL     1      -9.531  -7.644  17.747  0.00  0.00    -0.390 OA
ATOM     40  H   UNL     1      -8.659  -7.581  18.173  0.00  0.00    +0.210 HD
ENDBRANCH  28   6
ENDBRANCH  22  24
ENDBRANCH  13  22
TORSDOF 10
ENDMDL
MODEL 4
REMARK VINA RESULT:      -6.1     24.184     28.833
REMARK  Name = 44716903
REMARK  13 active torsions:
REMARK  status: ('A' for Active; 'I' for Inactive)
REMARK    1  A    between atoms: O_1  and  C_16
REMARK    2  A    between atoms: O_1  and  C_25
REMARK    3  A    between atoms: O_2  and  C_17
REMARK    4  A    between atoms: O_3  and  C_21
REMARK    5  A    between atoms: O_6  and  C_28
REMARK    6  A    between atoms: O_7  and  C_35
REMARK    7  A    between atoms: O_7  and  C_36
REMARK    8  A    between atoms: N_9  and  C_30
REMARK    9  A    between atoms: C_10  and  C_20
REMARK   10  A    between atoms: C_12  and  C_21
REMARK   11  A    between atoms: C_12  and  C_23
REMARK   12  A    between atoms: C_13  and  C_22
REMARK   13  A    between atoms: C_22  and  C_24
REMARK                            x       y       z     vdW  Elec       q    Type
REMARK                         _______ _______ _______ _____ _____    ______ ____
ROOT
ATOM     10  C   UNL     1     -11.315   9.587  35.588  0.00  0.00    -0.023 C 
ATOM     11  C   UNL     1     -10.808   9.416  34.104  0.00  0.00    +0.007 C 
ATOM     12  C   UNL     1     -11.915   9.229  32.995  0.00  0.00    +0.031 C 
ATOM     13  C   UNL     1     -10.050   9.433  36.529  0.00  0.00    +0.032 C 
ATOM     14  C   UNL     1     -12.324   8.449  35.898  0.00  0.00    +0.011 C 
ATOM     15  C   UNL     1      -9.727  10.465  33.765  0.00  0.00    +0.007 C 
ATOM     16  C   UNL     1     -12.909   8.121  33.457  0.00  0.00    +0.186 C 
ATOM     17  C   UNL     1      -8.898  10.402  36.176  0.00  0.00    +0.119 C 
ATOM     18  C   UNL     1     -13.443   8.323  34.871  0.00  0.00    +0.046 C 
ATOM     19  C   UNL     1      -8.522  10.342  34.699  0.00  0.00    +0.032 C 
ATOM     20  C   UNL     1     -12.024  10.938  35.849  0.00  0.00    +0.012 C 
ATOM     23  C   UNL     1     -11.242   8.735  31.682  0.00  0.00    +0.017 C 
ENDROOT
BRANCH  17   2
ATOM      2  O   UNL     1      -9.230  11.739  36.535  0.00  0.00    -0.391 OA
ATOM     37  H   UNL     1      -8.473  12.304  36.308  0.00  0.00    +0.210 HD
ENDBRANCH  17   2
BRANCH  16   1
ATOM      1  O   UNL     1     -14.040   8.029  32.590  0.00  0.00    -0.446 OA
BRANCH   1  25
ATOM      5  O   UNL     1     -15.946   6.781  32.795  0.00  0.00    -0.226 OA
ATOM      9  N   UNL     1     -13.849   5.803  32.441  0.00  0.00    -0.251 N 
ATOM     25  C   UNL     1     -14.734   6.847  32.625  0.00  0.00    +0.405 C 
ATOM     39  H   UNL     1     -12.872   6.058  32.316  0.00  0.00    +0.158 HD
BRANCH   9  30
ATOM     30  C   UNL     1     -14.130   4.418  32.407  0.00  0.00    +0.037 A 
ATOM     31  C   UNL     1     -14.349   3.722  33.595  0.00  0.00    +0.027 A 
ATOM     32  C   UNL     1     -14.189   3.747  31.184  0.00  0.00    +0.027 A 
ATOM     33  C   UNL     1     -14.626   2.355  33.562  0.00  0.00    +0.047 A 
ATOM     34  C   UNL     1     -14.467   2.381  31.151  0.00  0.00    +0.047 A 
ATOM     35  C   UNL     1     -14.685   1.684  32.339  0.00  0.00    +0.120 A 
BRANCH  35   7
ATOM      7  O   UNL     1     -14.956   0.351  32.308  0.00  0.00    -0.495 OA
ATOM     36  C   UNL     1     -14.942  -0.283  31.028  0.00  0.00    +0.277 C 
ENDBRANCH  35   7
ENDBRANCH   9  30
ENDBRANCH   1  25
ENDBRANCH  16   1
BRANCH  12  21
ATOM     21  C   UNL     1     -12.656  10.529  32.620  0.00  0.00    +0.166 C 
BRANCH  21   3
ATOM      3  O   UNL     1     -13.047  10.431  31.269  0.00  0.00    -0.394 OA
ATOM     38  H   UNL     1     -12.422  10.963  30.747  0.00  0.00    +0.209 HD
ENDBRANCH  21   3
ENDBRANCH  12  21
BRANCH  13  22
ATOM     22  C   UNL     1     -10.351   9.505  38.035  0.00  0.00    +0.102 C 
BRANCH  22  24
ATOM      4  O   UNL     1      -9.811   7.186  37.974  0.00  0.00    -0.276 OA
ATOM      8  N   UNL     1     -10.208   8.122  40.049  0.00  0.00    -0.299 N 
ATOM     24  C   UNL     1     -10.099   8.161  38.670  0.00  0.00    +0.216 C 
ATOM     26  C   UNL     1     -10.542   9.242  40.929  0.00  0.00    +0.139 C 
ATOM     27  C   UNL     1      -9.989   6.901  40.809  0.00  0.00    +0.110 C 
ATOM     28  C   UNL     1     -10.283   8.711  42.336  0.00  0.00    +0.133 C 
ATOM     29  C   UNL     1     -10.527   7.212  42.199  0.00  0.00    +0.052 C 
BRANCH  28   6
ATOM      6  O   UNL     1      -8.925   8.934  42.699  0.00  0.00    -0.390 OA
ATOM     40  H   UNL     1      -8.608   9.694  42.184  0.00  0.00    +0.210 HD
ENDBRANCH  28   6
ENDBRANCH  22  24
ENDBRANCH  13  22
TORSDOF 10
ENDMDL
MODEL 5
REMARK VINA RESULT:      -6.1     24.787     27.822
REMARK  Name = 44716903
REMARK  13 active torsions:
REMARK  status: ('A' for Active; 'I' for Inactive)
REMARK    1  A    between atoms: O_1  and  C_16
REMARK    2  A    between atoms: O_1  and  C_25
REMARK    3  A    between atoms: O_2  and  C_17
REMARK    4  A    between atoms: O_3  and  C_21
REMARK    5  A    between atoms: O_6  and  C_28
REMARK    6  A    between atoms: O_7  and  C_35
REMARK    7  A    between atoms: O_7  and  C_36
REMARK    8  A    between atoms: N_9  and  C_30
REMARK    9  A    between atoms: C_10  and  C_20
REMARK   10  A    between atoms: C_12  and  C_21
REMARK   11  A    between atoms: C_12  and  C_23
REMARK   12  A    between atoms: C_13  and  C_22
REMARK   13  A    between atoms: C_22  and  C_24
REMARK                            x       y       z     vdW  Elec       q    Type
REMARK                         _______ _______ _______ _____ _____    ______ ____
ROOT
ATOM     10  C   UNL     1      11.648   5.533   0.412  0.00  0.00    -0.023 C 
ATOM     11  C   UNL     1      11.773   4.301  -0.565  0.00  0.00    +0.007 C 
ATOM     12  C   UNL     1      11.370   4.547  -2.070  0.00  0.00    +0.031 C 
ATOM     13  C   UNL     1      11.789   4.971   1.886  0.00  0.00    +0.032 C 
ATOM     14  C   UNL     1      10.238   6.158   0.237  0.00  0.00    +0.011 C 
ATOM     15  C   UNL     1      13.122   3.576  -0.370  0.00  0.00    +0.007 C 
ATOM     16  C   UNL     1       9.979   5.249  -2.111  0.00  0.00    +0.186 C 
ATOM     17  C   UNL     1      13.085   4.158   2.114  0.00  0.00    +0.119 C 
ATOM     18  C   UNL     1       9.881   6.476  -1.210  0.00  0.00    +0.046 C 
ATOM     19  C   UNL     1      13.277   3.067   1.064  0.00  0.00    +0.032 C 
ATOM     20  C   UNL     1      12.698   6.640   0.150  0.00  0.00    +0.012 C 
ATOM     23  C   UNL     1      11.221   3.175  -2.788  0.00  0.00    +0.017 C 
ENDROOT
BRANCH  17   2
ATOM      2  O   UNL     1      14.224   5.012   2.134  0.00  0.00    -0.391 OA
ATOM     37  H   UNL     1      14.672   4.929   1.276  0.00  0.00    +0.210 HD
ENDBRANCH  17   2
BRANCH  16   1
ATOM      1  O   UNL     1       9.636   5.670  -3.432  0.00  0.00    -0.446 OA
BRANCH   1  25
ATOM      5  O   UNL     1       8.345   3.984  -4.284  0.00  0.00    -0.226 OA
ATOM      9  N   UNL     1       7.529   6.161  -4.012  0.00  0.00    -0.251 N 
ATOM     25  C   UNL     1       8.474   5.155  -3.948  0.00  0.00    +0.405 C 
ATOM     39  H   UNL     1       7.826   7.078  -3.685  0.00  0.00    +0.158 HD
BRANCH   9  30
ATOM     30  C   UNL     1       6.198   6.077  -4.478  0.00  0.00    +0.037 A 
ATOM     31  C   UNL     1       5.137   6.310  -3.603  0.00  0.00    +0.027 A 
ATOM     32  C   UNL     1       5.944   5.762  -5.814  0.00  0.00    +0.027 A 
ATOM     33  C   UNL     1       3.822   6.226  -4.063  0.00  0.00    +0.047 A 
ATOM     34  C   UNL     1       4.630   5.679  -6.273  0.00  0.00    +0.047 A 
ATOM     35  C   UNL     1       3.569   5.911  -5.399  0.00  0.00    +0.120 A 
BRANCH  35   7
ATOM      7  O   UNL     1       2.286   5.830  -5.846  0.00  0.00    -0.495 OA
ATOM     36  C   UNL     1       1.286   5.482  -4.889  0.00  0.00    +0.277 C 
ENDBRANCH  35   7
ENDBRANCH   9  30
ENDBRANCH   1  25
ENDBRANCH  16   1
BRANCH  12  21
ATOM     21  C   UNL     1      12.420   5.332  -2.883  0.00  0.00    +0.166 C 
BRANCH  21   3
ATOM      3  O   UNL     1      12.320   4.924  -4.229  0.00  0.00    -0.394 OA
ATOM     38  H   UNL     1      12.111   5.714  -4.757  0.00  0.00    +0.209 HD
ENDBRANCH  21   3
ENDBRANCH  12  21
BRANCH  13  22
ATOM     22  C   UNL     1      11.629   6.021   2.998  0.00  0.00    +0.102 C 
BRANCH  22  24
ATOM      4  O   UNL     1       9.882   4.645   3.851  0.00  0.00    -0.276 OA
ATOM      8  N   UNL     1      11.045   5.937   5.373  0.00  0.00    -0.299 N 
ATOM     24  C   UNL     1      10.766   5.467   4.102  0.00  0.00    +0.216 C 
ATOM     26  C   UNL     1      12.079   6.906   5.736  0.00  0.00    +0.139 C 
ATOM     27  C   UNL     1      10.304   5.494   6.544  0.00  0.00    +0.110 C 
ATOM     28  C   UNL     1      12.114   6.874   7.260  0.00  0.00    +0.133 C 
ATOM     29  C   UNL     1      10.690   6.479   7.639  0.00  0.00    +0.052 C 
BRANCH  28   6
ATOM      6  O   UNL     1      13.015   5.866   7.706  0.00  0.00    -0.390 OA
ATOM     40  H   UNL     1      12.708   5.020   7.341  0.00  0.00    +0.210 HD
ENDBRANCH  28   6
ENDBRANCH  22  24
ENDBRANCH  13  22
TORSDOF 10
ENDMDL
MODEL 6
REMARK VINA RESULT:      -6.0      2.594      8.555
REMARK  Name = 44716903
REMARK  13 active torsions:
REMARK  status: ('A' for Active; 'I' for Inactive)
REMARK    1  A    between atoms: O_1  and  C_16
REMARK    2  A    between atoms: O_1  and  C_25
REMARK    3  A    between atoms: O_2  and  C_17
REMARK    4  A    between atoms: O_3  and  C_21
REMARK    5  A    between atoms: O_6  and  C_28
REMARK    6  A    between atoms: O_7  and  C_35
REMARK    7  A    between atoms: O_7  and  C_36
REMARK    8  A    between atoms: N_9  and  C_30
REMARK    9  A    between atoms: C_10  and  C_20
REMARK   10  A    between atoms: C_12  and  C_21
REMARK   11  A    between atoms: C_12  and  C_23
REMARK   12  A    between atoms: C_13  and  C_22
REMARK   13  A    between atoms: C_22  and  C_24
REMARK                            x       y       z     vdW  Elec       q    Type
REMARK                         _______ _______ _______ _____ _____    ______ ____
ROOT
ATOM     10  C   UNL     1      -7.354 -10.745  17.835  0.00  0.00    -0.023 C 
ATOM     11  C   UNL     1      -6.783 -12.138  17.364  0.00  0.00    +0.007 C 
ATOM     12  C   UNL     1      -5.252 -12.184  16.987  0.00  0.00    +0.031 C 
ATOM     13  C   UNL     1      -8.934 -10.870  17.840  0.00  0.00    +0.032 C 
ATOM     14  C   UNL     1      -6.932  -9.665  16.802  0.00  0.00    +0.011 C 
ATOM     15  C   UNL     1      -7.251 -13.272  18.302  0.00  0.00    +0.007 C 
ATOM     16  C   UNL     1      -4.936 -11.009  16.014  0.00  0.00    +0.186 C 
ATOM     17  C   UNL     1      -9.455 -12.049  18.695  0.00  0.00    +0.119 C 
ATOM     18  C   UNL     1      -5.437  -9.653  16.502  0.00  0.00    +0.046 C 
ATOM     19  C   UNL     1      -8.777 -13.368  18.338  0.00  0.00    +0.032 C 
ATOM     20  C   UNL     1      -6.840 -10.303  19.226  0.00  0.00    +0.012 C 
ATOM     23  C   UNL     1      -4.954 -13.510  16.229  0.00  0.00    +0.017 C 
ENDROOT
BRANCH  17   2
ATOM      2  O   UNL     1      -9.288 -11.783  20.084  0.00  0.00    -0.391 OA
ATOM     37  H   UNL     1     -10.105 -11.367  20.406  0.00  0.00    +0.210 HD
ENDBRANCH  17   2
BRANCH  16   1
ATOM      1  O   UNL     1      -3.534 -10.878  15.778  0.00  0.00    -0.446 OA
BRANCH   1  25
ATOM      5  O   UNL     1      -2.034 -10.297  14.152  0.00  0.00    -0.226 OA
ATOM      9  N   UNL     1      -4.230 -10.931  13.651  0.00  0.00    -0.251 N 
ATOM     25  C   UNL     1      -3.156 -10.665  14.477  0.00  0.00    +0.405 C 
ATOM     39  H   UNL     1      -5.088 -11.227  14.110  0.00  0.00    +0.158 HD
BRANCH   9  30
ATOM     30  C   UNL     1      -4.288 -10.842  12.241  0.00  0.00    +0.037 A 
ATOM     31  C   UNL     1      -4.758  -9.677  11.635  0.00  0.00    +0.027 A 
ATOM     32  C   UNL     1      -3.874 -11.919  11.456  0.00  0.00    +0.027 A 
ATOM     33  C   UNL     1      -4.815  -9.589  10.244  0.00  0.00    +0.047 A 
ATOM     34  C   UNL     1      -3.932 -11.830  10.065  0.00  0.00    +0.047 A 
ATOM     35  C   UNL     1      -4.402 -10.666   9.459  0.00  0.00    +0.120 A 
BRANCH  35   7
ATOM      7  O   UNL     1      -4.457 -10.579   8.102  0.00  0.00    -0.495 OA
ATOM     36  C   UNL     1      -4.482 -11.807   7.374  0.00  0.00    +0.277 C 
ENDBRANCH  35   7
ENDBRANCH   9  30
ENDBRANCH   1  25
ENDBRANCH  16   1
BRANCH  12  21
ATOM     21  C   UNL     1      -4.304 -12.178  18.204  0.00  0.00    +0.166 C 
BRANCH  21   3
ATOM      3  O   UNL     1      -4.082 -13.516  18.589  0.00  0.00    -0.394 OA
ATOM     38  H   UNL     1      -4.510 -13.645  19.453  0.00  0.00    +0.209 HD
ENDBRANCH  21   3
ENDBRANCH  12  21
BRANCH  13  22
ATOM     22  C   UNL     1      -9.684  -9.582  18.214  0.00  0.00    +0.102 C 
BRANCH  22  24
ATOM      4  O   UNL     1     -11.266  -9.577  16.434  0.00  0.00    -0.276 OA
ATOM      8  N   UNL     1     -12.099  -9.723  18.584  0.00  0.00    -0.299 N 
ATOM     24  C   UNL     1     -11.082  -9.624  17.652  0.00  0.00    +0.216 C 
ATOM     26  C   UNL     1     -11.945  -9.786  20.038  0.00  0.00    +0.139 C 
ATOM     27  C   UNL     1     -13.501  -9.781  18.199  0.00  0.00    +0.110 C 
ATOM     28  C   UNL     1     -13.338 -10.135  20.553  0.00  0.00    +0.133 C 
ATOM     29  C   UNL     1     -14.265  -9.547  19.495  0.00  0.00    +0.052 C 
BRANCH  28   6
ATOM      6  O   UNL     1     -13.505 -11.548  20.590  0.00  0.00    -0.390 OA
ATOM     40  H   UNL     1     -14.371 -11.728  20.992  0.00  0.00    +0.210 HD
ENDBRANCH  28   6
ENDBRANCH  22  24
ENDBRANCH  13  22
TORSDOF 10
ENDMDL
MODEL 7
REMARK VINA RESULT:      -5.9     24.124     27.555
REMARK  Name = 44716903
REMARK  13 active torsions:
REMARK  status: ('A' for Active; 'I' for Inactive)
REMARK    1  A    between atoms: O_1  and  C_16
REMARK    2  A    between atoms: O_1  and  C_25
REMARK    3  A    between atoms: O_2  and  C_17
REMARK    4  A    between atoms: O_3  and  C_21
REMARK    5  A    between atoms: O_6  and  C_28
REMARK    6  A    between atoms: O_7  and  C_35
REMARK    7  A    between atoms: O_7  and  C_36
REMARK    8  A    between atoms: N_9  and  C_30
REMARK    9  A    between atoms: C_10  and  C_20
REMARK   10  A    between atoms: C_12  and  C_21
REMARK   11  A    between atoms: C_12  and  C_23
REMARK   12  A    between atoms: C_13  and  C_22
REMARK   13  A    between atoms: C_22  and  C_24
REMARK                            x       y       z     vdW  Elec       q    Type
REMARK                         _______ _______ _______ _____ _____    ______ ____
ROOT
ATOM     10  C   UNL     1      10.540   6.835   1.253  0.00  0.00    -0.023 C 
ATOM     11  C   UNL     1      10.357   5.620   0.263  0.00  0.00    +0.007 C 
ATOM     12  C   UNL     1      10.326   5.960  -1.277  0.00  0.00    +0.031 C 
ATOM     13  C   UNL     1      10.219   6.298   2.708  0.00  0.00    +0.032 C 
ATOM     14  C   UNL     1       9.512   7.936   0.876  0.00  0.00    +0.011 C 
ATOM     15  C   UNL     1      11.289   4.450   0.646  0.00  0.00    +0.007 C 
ATOM     16  C   UNL     1       9.322   7.128  -1.516  0.00  0.00    +0.186 C 
ATOM     17  C   UNL     1      11.064   5.067   3.111  0.00  0.00    +0.119 C 
ATOM     18  C   UNL     1       9.541   8.326  -0.597  0.00  0.00    +0.046 C 
ATOM     19  C   UNL     1      11.006   3.957   2.066  0.00  0.00    +0.032 C 
ATOM     20  C   UNL     1      11.954   7.464   1.205  0.00  0.00    +0.012 C 
ATOM     23  C   UNL     1       9.798   4.724  -2.061  0.00  0.00    +0.017 C 
ENDROOT
BRANCH  17   2
ATOM      2  O   UNL     1      12.419   5.436   3.347  0.00  0.00    -0.391 OA
ATOM     37  H   UNL     1      12.524   5.584   4.301  0.00  0.00    +0.210 HD
ENDBRANCH  17   2
BRANCH  16   1
ATOM      1  O   UNL     1       9.381   7.612  -2.858  0.00  0.00    -0.446 OA
BRANCH   1  25
ATOM      5  O   UNL     1       7.827   8.826  -4.017  0.00  0.00    -0.226 OA
ATOM      9  N   UNL     1       7.479   6.584  -3.439  0.00  0.00    -0.251 N 
ATOM     25  C   UNL     1       8.178   7.774  -3.496  0.00  0.00    +0.405 C 
ATOM     39  H   UNL     1       7.938   5.815  -2.959  0.00  0.00    +0.158 HD
BRANCH   9  30
ATOM     30  C   UNL     1       6.198   6.302  -3.966  0.00  0.00    +0.037 A 
ATOM     31  C   UNL     1       6.075   5.729  -5.232  0.00  0.00    +0.027 A 
ATOM     32  C   UNL     1       5.056   6.594  -3.219  0.00  0.00    +0.027 A 
ATOM     33  C   UNL     1       4.811   5.451  -5.752  0.00  0.00    +0.047 A 
ATOM     34  C   UNL     1       3.792   6.315  -3.739  0.00  0.00    +0.047 A 
ATOM     35  C   UNL     1       3.669   5.744  -5.005  0.00  0.00    +0.120 A 
BRANCH  35   7
ATOM      7  O   UNL     1       2.436   5.471  -5.513  0.00  0.00    -0.495 OA
ATOM     36  C   UNL     1       2.055   4.097  -5.585  0.00  0.00    +0.277 C 
ENDBRANCH  35   7
ENDBRANCH   9  30
ENDBRANCH   1  25
ENDBRANCH  16   1
BRANCH  12  21
ATOM     21  C   UNL     1      11.711   6.276  -1.880  0.00  0.00    +0.166 C 
BRANCH  21   3
ATOM      3  O   UNL     1      11.703   5.859  -3.227  0.00  0.00    -0.394 OA
ATOM     38  H   UNL     1      11.911   4.908  -3.237  0.00  0.00    +0.209 HD
ENDBRANCH  21   3
ENDBRANCH  12  21
BRANCH  13  22
ATOM     22  C   UNL     1      10.281   7.361   3.818  0.00  0.00    +0.102 C 
BRANCH  22  24
ATOM      4  O   UNL     1       7.989   7.263   4.459  0.00  0.00    -0.276 OA
ATOM      8  N   UNL     1       9.560   6.770   6.080  0.00  0.00    -0.299 N 
ATOM     24  C   UNL     1       9.165   7.132   4.805  0.00  0.00    +0.216 C 
ATOM     26  C   UNL     1      10.934   6.595   6.551  0.00  0.00    +0.139 C 
ATOM     27  C   UNL     1       8.601   6.509   7.144  0.00  0.00    +0.110 C 
ATOM     28  C   UNL     1      10.787   5.964   7.932  0.00  0.00    +0.133 C 
ATOM     29  C   UNL     1       9.437   6.483   8.416  0.00  0.00    +0.052 C 
BRANCH  28   6
ATOM      6  O   UNL     1      10.731   4.547   7.817  0.00  0.00    -0.390 OA
ATOM     40  H   UNL     1      10.123   4.223   8.502  0.00  0.00    +0.210 HD
ENDBRANCH  28   6
ENDBRANCH  22  24
ENDBRANCH  13  22
TORSDOF 10
ENDMDL
MODEL 8
REMARK VINA RESULT:      -5.9     24.950     27.915
REMARK  Name = 44716903
REMARK  13 active torsions:
REMARK  status: ('A' for Active; 'I' for Inactive)
REMARK    1  A    between atoms: O_1  and  C_16
REMARK    2  A    between atoms: O_1  and  C_25
REMARK    3  A    between atoms: O_2  and  C_17
REMARK    4  A    between atoms: O_3  and  C_21
REMARK    5  A    between atoms: O_6  and  C_28
REMARK    6  A    between atoms: O_7  and  C_35
REMARK    7  A    between atoms: O_7  and  C_36
REMARK    8  A    between atoms: N_9  and  C_30
REMARK    9  A    between atoms: C_10  and  C_20
REMARK   10  A    between atoms: C_12  and  C_21
REMARK   11  A    between atoms: C_12  and  C_23
REMARK   12  A    between atoms: C_13  and  C_22
REMARK   13  A    between atoms: C_22  and  C_24
REMARK                            x       y       z     vdW  Elec       q    Type
REMARK                         _______ _______ _______ _____ _____    ______ ____
ROOT
ATOM     10  C   UNL     1      12.067   4.219  -1.911  0.00  0.00    -0.023 C 
ATOM     11  C   UNL     1      13.328   4.760  -1.133  0.00  0.00    +0.007 C 
ATOM     12  C   UNL     1      13.328   4.571   0.433  0.00  0.00    +0.031 C 
ATOM     13  C   UNL     1      12.147   4.800  -3.383  0.00  0.00    +0.032 C 
ATOM     14  C   UNL     1      10.790   4.764  -1.216  0.00  0.00    +0.011 C 
ATOM     15  C   UNL     1      14.635   4.328  -1.834  0.00  0.00    +0.007 C 
ATOM     16  C   UNL     1      11.969   5.079   1.001  0.00  0.00    +0.186 C 
ATOM     17  C   UNL     1      13.477   4.473  -4.102  0.00  0.00    +0.119 C 
ATOM     18  C   UNL     1      10.749   4.507   0.286  0.00  0.00    +0.046 C 
ATOM     19  C   UNL     1      14.696   4.856  -3.268  0.00  0.00    +0.032 C 
ATOM     20  C   UNL     1      11.972   2.674  -1.941  0.00  0.00    +0.012 C 
ATOM     23  C   UNL     1      14.451   5.454   1.052  0.00  0.00    +0.017 C 
ENDROOT
BRANCH  17   2
ATOM      2  O   UNL     1      13.543   3.093  -4.446  0.00  0.00    -0.391 OA
ATOM     37  H   UNL     1      12.902   2.618  -3.891  0.00  0.00    +0.210 HD
ENDBRANCH  17   2
BRANCH  16   1
ATOM      1  O   UNL     1      11.825   4.769   2.388  0.00  0.00    -0.446 OA
BRANCH   1  25
ATOM      5  O   UNL     1      12.039   6.947   3.053  0.00  0.00    -0.226 OA
ATOM      9  N   UNL     1      10.728   5.408   4.233  0.00  0.00    -0.251 N 
ATOM     25  C   UNL     1      11.570   5.827   3.222  0.00  0.00    +0.405 C 
ATOM     39  H   UNL     1      10.443   4.432   4.205  0.00  0.00    +0.158 HD
BRANCH   9  30
ATOM     30  C   UNL     1      10.211   6.167   5.307  0.00  0.00    +0.037 A 
ATOM     31  C   UNL     1      11.009   6.433   6.420  0.00  0.00    +0.027 A 
ATOM     32  C   UNL     1       8.903   6.650   5.255  0.00  0.00    +0.027 A 
ATOM     33  C   UNL     1      10.498   7.182   7.481  0.00  0.00    +0.047 A 
ATOM     34  C   UNL     1       8.394   7.399   6.316  0.00  0.00    +0.047 A 
ATOM     35  C   UNL     1       9.190   7.665   7.429  0.00  0.00    +0.120 A 
BRANCH  35   7
ATOM      7  O   UNL     1       8.694   8.396   8.464  0.00  0.00    -0.495 OA
ATOM     36  C   UNL     1       9.297   9.667   8.707  0.00  0.00    +0.277 C 
ENDBRANCH  35   7
ENDBRANCH   9  30
ENDBRANCH   1  25
ENDBRANCH  16   1
BRANCH  12  21
ATOM     21  C   UNL     1      13.628   3.130   0.894  0.00  0.00    +0.166 C 
BRANCH  21   3
ATOM      3  O   UNL     1      14.375   3.204   2.088  0.00  0.00    -0.394 OA
ATOM     38  H   UNL     1      13.757   3.056   2.826  0.00  0.00    +0.209 HD
ENDBRANCH  21   3
ENDBRANCH  12  21
BRANCH  13  22
ATOM     22  C   UNL     1      10.960   4.435  -4.289  0.00  0.00    +0.102 C 
BRANCH  22  24
ATOM      4  O   UNL     1      11.170   6.391  -5.631  0.00  0.00    -0.276 OA
ATOM      8  N   UNL     1       9.082   5.932  -4.755  0.00  0.00    -0.299 N 
ATOM     24  C   UNL     1      10.426   5.677  -4.955  0.00  0.00    +0.216 C 
ATOM     26  C   UNL     1       8.148   5.125  -3.970  0.00  0.00    +0.139 C 
ATOM     27  C   UNL     1       8.417   7.089  -5.338  0.00  0.00    +0.110 C 
ATOM     28  C   UNL     1       6.776   5.712  -4.287  0.00  0.00    +0.133 C 
ATOM     29  C   UNL     1       7.081   7.170  -4.612  0.00  0.00    +0.052 C 
BRANCH  28   6
ATOM      6  O   UNL     1       6.229   5.078  -5.438  0.00  0.00    -0.390 OA
ATOM     40  H   UNL     1       5.333   5.432  -5.565  0.00  0.00    +0.210 HD
ENDBRANCH  28   6
ENDBRANCH  22  24
ENDBRANCH  13  22
TORSDOF 10
ENDMDL
MODEL 9
REMARK VINA RESULT:      -5.8     28.988     32.799
REMARK  Name = 44716903
REMARK  13 active torsions:
REMARK  status: ('A' for Active; 'I' for Inactive)
REMARK    1  A    between atoms: O_1  and  C_16
REMARK    2  A    between atoms: O_1  and  C_25
REMARK    3  A    between atoms: O_2  and  C_17
REMARK    4  A    between atoms: O_3  and  C_21
REMARK    5  A    between atoms: O_6  and  C_28
REMARK    6  A    between atoms: O_7  and  C_35
REMARK    7  A    between atoms: O_7  and  C_36
REMARK    8  A    between atoms: N_9  and  C_30
REMARK    9  A    between atoms: C_10  and  C_20
REMARK   10  A    between atoms: C_12  and  C_21
REMARK   11  A    between atoms: C_12  and  C_23
REMARK   12  A    between atoms: C_13  and  C_22
REMARK   13  A    between atoms: C_22  and  C_24
REMARK                            x       y       z     vdW  Elec       q    Type
REMARK                         _______ _______ _______ _____ _____    ______ ____
ROOT
ATOM     10  C   UNL     1      24.180   2.605  23.644  0.00  0.00    -0.023 C 
ATOM     11  C   UNL     1      23.709   2.838  22.156  0.00  0.00    +0.007 C 
ATOM     12  C   UNL     1      23.226   4.293  21.786  0.00  0.00    +0.031 C 
ATOM     13  C   UNL     1      24.302   1.039  23.851  0.00  0.00    +0.032 C 
ATOM     14  C   UNL     1      23.089   3.163  24.598  0.00  0.00    +0.011 C 
ATOM     15  C   UNL     1      24.710   2.218  21.157  0.00  0.00    +0.007 C 
ATOM     16  C   UNL     1      22.199   4.770  22.857  0.00  0.00    +0.186 C 
ATOM     17  C   UNL     1      25.225   0.352  22.819  0.00  0.00    +0.119 C 
ATOM     18  C   UNL     1      22.682   4.600  24.293  0.00  0.00    +0.046 C 
ATOM     19  C   UNL     1      24.859   0.712  21.382  0.00  0.00    +0.032 C 
ATOM     20  C   UNL     1      25.518   3.304  23.987  0.00  0.00    +0.012 C 
ATOM     23  C   UNL     1      22.486   4.251  20.418  0.00  0.00    +0.017 C 
ENDROOT
BRANCH  17   2
ATOM      2  O   UNL     1      26.591   0.675  23.063  0.00  0.00    -0.391 OA
ATOM     37  H   UNL     1      26.773   1.530  22.638  0.00  0.00    +0.210 HD
ENDBRANCH  17   2
BRANCH  16   1
ATOM      1  O   UNL     1      21.859   6.148  22.689  0.00  0.00    -0.446 OA
BRANCH   1  25
ATOM      5  O   UNL     1      19.837   6.532  23.685  0.00  0.00    -0.226 OA
ATOM      9  N   UNL     1      20.117   6.612  21.362  0.00  0.00    -0.251 N 
ATOM     25  C   UNL     1      20.521   6.443  22.672  0.00  0.00    +0.405 C 
ATOM     39  H   UNL     1      20.835   6.496  20.651  0.00  0.00    +0.158 HD
BRANCH   9  30
ATOM     30  C   UNL     1      18.824   6.924  20.882  0.00  0.00    +0.037 A 
ATOM     31  C   UNL     1      18.194   8.099  21.292  0.00  0.00    +0.027 A 
ATOM     32  C   UNL     1      18.179   6.057  19.999  0.00  0.00    +0.027 A 
ATOM     33  C   UNL     1      16.918   8.407  20.820  0.00  0.00    +0.047 A 
ATOM     34  C   UNL     1      16.903   6.366  19.527  0.00  0.00    +0.047 A 
ATOM     35  C   UNL     1      16.272   7.540  19.936  0.00  0.00    +0.120 A 
BRANCH  35   7
ATOM      7  O   UNL     1      15.028   7.842  19.476  0.00  0.00    -0.495 OA
ATOM     36  C   UNL     1      13.974   6.942  19.818  0.00  0.00    +0.277 C 
ENDBRANCH  35   7
ENDBRANCH   9  30
ENDBRANCH   1  25
ENDBRANCH  16   1
BRANCH  12  21
ATOM     21  C   UNL     1      24.371   5.311  21.611  0.00  0.00    +0.166 C 
BRANCH  21   3
ATOM      3  O   UNL     1      23.952   6.278  20.673  0.00  0.00    -0.394 OA
ATOM     38  H   UNL     1      23.875   7.125  21.144  0.00  0.00    +0.209 HD
ENDBRANCH  21   3
ENDBRANCH  12  21
BRANCH  13  22
ATOM     22  C   UNL     1      24.692   0.603  25.273  0.00  0.00    +0.102 C 
BRANCH  22  24
ATOM      4  O   UNL     1      25.162  -1.722  25.489  0.00  0.00    -0.276 OA
ATOM      8  N   UNL     1      22.954  -1.070  25.684  0.00  0.00    -0.299 N 
ATOM     24  C   UNL     1      24.304  -0.838  25.488  0.00  0.00    +0.216 C 
ATOM     26  C   UNL     1      21.889  -0.067  25.698  0.00  0.00    +0.139 C 
ATOM     27  C   UNL     1      22.423  -2.406  25.911  0.00  0.00    +0.110 C 
ATOM     28  C   UNL     1      20.661  -0.823  26.194  0.00  0.00    +0.133 C 
ATOM     29  C   UNL     1      20.918  -2.255  25.739  0.00  0.00    +0.052 C 
BRANCH  28   6
ATOM      6  O   UNL     1      20.605  -0.785  27.615  0.00  0.00    -0.390 OA
ATOM     40  H   UNL     1      21.477  -1.054  27.948  0.00  0.00    +0.210 HD
ENDBRANCH  28   6
ENDBRANCH  22  24
ENDBRANCH  13  22
TORSDOF 10
ENDMDL
MODEL 10
REMARK VINA RESULT:      -5.8     28.813     30.799
REMARK  Name = 44716903
REMARK  13 active torsions:
REMARK  status: ('A' for Active; 'I' for Inactive)
REMARK    1  A    between atoms: O_1  and  C_16
REMARK    2  A    between atoms: O_1  and  C_25
REMARK    3  A    between atoms: O_2  and  C_17
REMARK    4  A    between atoms: O_3  and  C_21
REMARK    5  A    between atoms: O_6  and  C_28
REMARK    6  A    between atoms: O_7  and  C_35
REMARK    7  A    between atoms: O_7  and  C_36
REMARK    8  A    between atoms: N_9  and  C_30
REMARK    9  A    between atoms: C_10  and  C_20
REMARK   10  A    between atoms: C_12  and  C_21
REMARK   11  A    between atoms: C_12  and  C_23
REMARK   12  A    between atoms: C_13  and  C_22
REMARK   13  A    between atoms: C_22  and  C_24
REMARK                            x       y       z     vdW  Elec       q    Type
REMARK                         _______ _______ _______ _____ _____    ______ ____
ROOT
ATOM     10  C   UNL     1      18.394  -5.455  -3.061  0.00  0.00    -0.023 C 
ATOM     11  C   UNL     1      18.621  -4.820  -1.635  0.00  0.00    +0.007 C 
ATOM     12  C   UNL     1      19.792  -5.427  -0.769  0.00  0.00    +0.031 C 
ATOM     13  C   UNL     1      16.999  -4.920  -3.589  0.00  0.00    +0.032 C 
ATOM     14  C   UNL     1      18.322  -6.999  -2.907  0.00  0.00    +0.011 C 
ATOM     15  C   UNL     1      18.607  -3.278  -1.709  0.00  0.00    +0.007 C 
ATOM     16  C   UNL     1      19.658  -6.980  -0.757  0.00  0.00    +0.186 C 
ATOM     17  C   UNL     1      16.897  -3.377  -3.600  0.00  0.00    +0.119 C 
ATOM     18  C   UNL     1      19.498  -7.596  -2.143  0.00  0.00    +0.046 C 
ATOM     19  C   UNL     1      17.275  -2.762  -2.256  0.00  0.00    +0.032 C 
ATOM     20  C   UNL     1      19.519  -5.128  -4.072  0.00  0.00    +0.012 C 
ATOM     23  C   UNL     1      19.647  -4.935   0.700  0.00  0.00    +0.017 C 
ENDROOT
BRANCH  17   2
ATOM      2  O   UNL     1      17.708  -2.820  -4.629  0.00  0.00    -0.391 OA
ATOM     37  H   UNL     1      18.334  -2.204  -4.213  0.00  0.00    +0.210 HD
ENDBRANCH  17   2
BRANCH  16   1
ATOM      1  O   UNL     1      20.788  -7.605  -0.147  0.00  0.00    -0.446 OA
BRANCH   1  25
ATOM      5  O   UNL     1      19.489  -9.026   1.088  0.00  0.00    -0.226 OA
ATOM      9  N   UNL     1      21.608  -8.334   1.805  0.00  0.00    -0.251 N 
ATOM     25  C   UNL     1      20.528  -8.392   0.945  0.00  0.00    +0.405 C 
ATOM     39  H   UNL     1      22.385  -7.748   1.512  0.00  0.00    +0.158 HD
BRANCH   9  30
ATOM     30  C   UNL     1      21.767  -8.989   3.048  0.00  0.00    +0.037 A 
ATOM     31  C   UNL     1      21.825 -10.381   3.100  0.00  0.00    +0.027 A 
ATOM     32  C   UNL     1      21.866  -8.242   4.223  0.00  0.00    +0.027 A 
ATOM     33  C   UNL     1      21.982 -11.027   4.326  0.00  0.00    +0.047 A 
ATOM     34  C   UNL     1      22.023  -8.888   5.448  0.00  0.00    +0.047 A 
ATOM     35  C   UNL     1      22.081 -10.281   5.501  0.00  0.00    +0.120 A 
BRANCH  35   7
ATOM      7  O   UNL     1      22.235 -10.912   6.697  0.00  0.00    -0.495 OA
ATOM     36  C   UNL     1      22.052 -12.328   6.710  0.00  0.00    +0.277 C 
ENDBRANCH  35   7
ENDBRANCH   9  30
ENDBRANCH   1  25
ENDBRANCH  16   1
BRANCH  12  21
ATOM     21  C   UNL     1      21.201  -4.987  -1.219  0.00  0.00    +0.166 C 
BRANCH  21   3
ATOM      3  O   UNL     1      21.958  -4.709  -0.063  0.00  0.00    -0.394 OA
ATOM     38  H   UNL     1      21.442  -4.088   0.480  0.00  0.00    +0.209 HD
ENDBRANCH  21   3
ENDBRANCH  12  21
BRANCH  13  22
ATOM     22  C   UNL     1      16.564  -5.482  -4.952  0.00  0.00    +0.102 C 
BRANCH  22  24
ATOM      4  O   UNL     1      14.853  -6.533  -3.670  0.00  0.00    -0.276 OA
ATOM      8  N   UNL     1      14.685  -6.674  -5.970  0.00  0.00    -0.299 N 
ATOM     24  C   UNL     1      15.293  -6.277  -4.793  0.00  0.00    +0.216 C 
ATOM     26  C   UNL     1      15.153  -6.400  -7.329  0.00  0.00    +0.139 C 
ATOM     27  C   UNL     1      13.449  -7.442  -5.984  0.00  0.00    +0.110 C 
ATOM     28  C   UNL     1      14.000  -6.839  -8.226  0.00  0.00    +0.133 C 
ATOM     29  C   UNL     1      13.322  -7.940  -7.417  0.00  0.00    +0.052 C 
BRANCH  28   6
ATOM      6  O   UNL     1      13.088  -5.762  -8.410  0.00  0.00    -0.390 OA
ATOM     40  H   UNL     1      13.482  -5.156  -9.060  0.00  0.00    +0.210 HD
ENDBRANCH  28   6
ENDBRANCH  22  24
ENDBRANCH  13  22
TORSDOF 10
ENDMDL
