MODEL 1
REMARK VINA RESULT:      -7.8      0.000      0.000
REMARK  Name = 51137673
REMARK  6 active torsions:
REMARK  status: ('A' for Active; 'I' for Inactive)
REMARK    1  A    between atoms: O_6  and  C_20
REMARK    2  A    between atoms: O_6  and  C_29
REMARK    3  A    between atoms: N_7  and  C_14
REMARK    4  A    between atoms: C_10  and  C_15
REMARK    5  A    between atoms: C_14  and  C_16
REMARK    6  A    between atoms: C_19  and  C_22
REMARK                            x       y       z     vdW  Elec       q    Type
REMARK                         _______ _______ _______ _____ _____    ______ ____
ROOT
ATOM      7  N   UNL     1      10.789   5.150   3.920  0.00  0.00    -0.297 NA
ATOM     10  C   UNL     1      12.383   4.681   2.265  0.00  0.00    +0.092 C 
ATOM     11  C   UNL     1      12.450   6.173   2.637  0.00  0.00    +0.029 C 
ATOM     12  C   UNL     1      11.043   4.198   2.836  0.00  0.00    +0.097 C 
ATOM     13  C   UNL     1      11.142   6.456   3.365  0.00  0.00    +0.085 C 
ENDROOT
BRANCH  10  15
ATOM      5  O   UNL     1      11.392   4.186   0.082  0.00  0.00    -0.420 OA
ATOM      8  N   UNL     1      13.627   4.290   0.067  0.00  0.00    -0.112 NA
ATOM      9  N   UNL     1      13.203   4.006  -1.218  0.00  0.00    -0.107 NA
ATOM     15  C   UNL     1      12.537   4.386   0.791  0.00  0.00    +0.222 A 
ATOM     19  C   UNL     1      11.893   3.955  -1.163  0.00  0.00    +0.251 A 
BRANCH  19  22
ATOM      1  F   UNL     1      11.580   1.413  -2.301  0.00  0.00    -0.205 F 
ATOM     22  C   UNL     1      10.926   3.697  -2.190  0.00  0.00    +0.074 A 
ATOM     24  C   UNL     1      10.803   2.417  -2.731  0.00  0.00    +0.136 A 
ATOM     25  C   UNL     1      10.110   4.731  -2.649  0.00  0.00    +0.016 A 
ATOM     26  C   UNL     1       9.862   2.172  -3.732  0.00  0.00    +0.039 A 
ATOM     27  C   UNL     1       9.170   4.485  -3.650  0.00  0.00    +0.001 A 
ATOM     28  C   UNL     1       9.046   3.205  -4.191  0.00  0.00    +0.003 A 
ENDBRANCH  19  22
ENDBRANCH  10  15
BRANCH   7  14
ATOM     14  C   UNL     1       9.412   5.101   4.389  0.00  0.00    +0.119 C 
BRANCH  14  16
ATOM     16  C   UNL     1       9.235   5.847   5.685  0.00  0.00    -0.030 A 
ATOM     17  C   UNL     1       9.782   5.339   6.863  0.00  0.00    +0.051 A 
ATOM     18  C   UNL     1       8.524   7.047   5.707  0.00  0.00    +0.005 A 
ATOM     20  C   UNL     1       9.619   6.030   8.063  0.00  0.00    +0.130 A 
ATOM     21  C   UNL     1       8.360   7.738   6.907  0.00  0.00    +0.004 A 
ATOM     23  C   UNL     1       8.907   7.230   8.085  0.00  0.00    +0.046 A 
BRANCH  20   6
ATOM      6  O   UNL     1      10.153   5.534   9.212  0.00  0.00    -0.406 OA
BRANCH   6  29
ATOM      2  F   UNL     1      10.134   4.049  10.951  0.00  0.00    -0.133 F 
ATOM      3  F   UNL     1       9.046   3.570   9.117  0.00  0.00    -0.133 F 
ATOM      4  F   UNL     1       8.270   5.124  10.443  0.00  0.00    -0.133 F 
ATOM     29  C   UNL     1       9.400   4.576   9.948  0.00  0.00    +0.575 C 
ENDBRANCH   6  29
ENDBRANCH  20   6
ENDBRANCH  14  16
ENDBRANCH   7  14
TORSDOF 6
ENDMDL
MODEL 2
REMARK VINA RESULT:      -7.6     17.637     20.936
REMARK  Name = 51137673
REMARK  6 active torsions:
REMARK  status: ('A' for Active; 'I' for Inactive)
REMARK    1  A    between atoms: O_6  and  C_20
REMARK    2  A    between atoms: O_6  and  C_29
REMARK    3  A    between atoms: N_7  and  C_14
REMARK    4  A    between atoms: C_10  and  C_15
REMARK    5  A    between atoms: C_14  and  C_16
REMARK    6  A    between atoms: C_19  and  C_22
REMARK                            x       y       z     vdW  Elec       q    Type
REMARK                         _______ _______ _______ _____ _____    ______ ____
ROOT
ATOM      7  N   UNL     1      17.602   7.592  20.723  0.00  0.00    -0.297 NA
ATOM     10  C   UNL     1      19.722   6.601  20.861  0.00  0.00    +0.092 C 
ATOM     11  C   UNL     1      18.794   5.716  20.010  0.00  0.00    +0.029 C 
ATOM     12  C   UNL     1      18.777   7.560  21.596  0.00  0.00    +0.097 C 
ATOM     13  C   UNL     1      17.386   6.200  20.330  0.00  0.00    +0.085 C 
ENDROOT
BRANCH  10  15
ATOM      5  O   UNL     1      21.379   4.840  21.252  0.00  0.00    -0.420 OA
ATOM      8  N   UNL     1      20.839   6.008  23.083  0.00  0.00    -0.112 NA
ATOM      9  N   UNL     1      21.775   5.056  23.443  0.00  0.00    -0.107 NA
ATOM     15  C   UNL     1      20.638   5.845  21.796  0.00  0.00    +0.222 A 
ATOM     19  C   UNL     1      22.061   4.398  22.344  0.00  0.00    +0.251 A 
BRANCH  19  22
ATOM      1  F   UNL     1      23.606   4.206  20.013  0.00  0.00    -0.205 F 
ATOM     22  C   UNL     1      22.963   3.306  22.120  0.00  0.00    +0.074 A 
ATOM     24  C   UNL     1      23.714   3.247  20.945  0.00  0.00    +0.136 A 
ATOM     25  C   UNL     1      23.087   2.301  23.078  0.00  0.00    +0.016 A 
ATOM     26  C   UNL     1      24.589   2.182  20.730  0.00  0.00    +0.039 A 
ATOM     27  C   UNL     1      23.962   1.236  22.863  0.00  0.00    +0.001 A 
ATOM     28  C   UNL     1      24.713   1.177  21.689  0.00  0.00    +0.003 A 
ENDBRANCH  19  22
ENDBRANCH  10  15
BRANCH   7  14
ATOM     14  C   UNL     1      16.438   8.170  21.379  0.00  0.00    +0.119 C 
BRANCH  14  16
ATOM     16  C   UNL     1      15.179   7.949  20.585  0.00  0.00    -0.030 A 
ATOM     17  C   UNL     1      14.066   7.365  21.190  0.00  0.00    +0.051 A 
ATOM     18  C   UNL     1      15.125   8.329  19.244  0.00  0.00    +0.005 A 
ATOM     20  C   UNL     1      12.899   7.161  20.454  0.00  0.00    +0.130 A 
ATOM     21  C   UNL     1      13.958   8.125  18.508  0.00  0.00    +0.004 A 
ATOM     23  C   UNL     1      12.845   7.541  19.113  0.00  0.00    +0.046 A 
BRANCH  20   6
ATOM      6  O   UNL     1      11.813   6.591  21.045  0.00  0.00    -0.406 OA
BRANCH   6  29
ATOM      2  F   UNL     1       9.786   6.737  22.094  0.00  0.00    -0.133 F 
ATOM      3  F   UNL     1      10.385   8.303  20.691  0.00  0.00    -0.133 F 
ATOM      4  F   UNL     1      11.376   8.175  22.635  0.00  0.00    -0.133 F 
ATOM     29  C   UNL     1      10.839   7.446  21.634  0.00  0.00    +0.575 C 
ENDBRANCH   6  29
ENDBRANCH  20   6
ENDBRANCH  14  16
ENDBRANCH   7  14
TORSDOF 6
ENDMDL
MODEL 3
REMARK VINA RESULT:      -7.4     16.005     20.107
REMARK  Name = 51137673
REMARK  6 active torsions:
REMARK  status: ('A' for Active; 'I' for Inactive)
REMARK    1  A    between atoms: O_6  and  C_20
REMARK    2  A    between atoms: O_6  and  C_29
REMARK    3  A    between atoms: N_7  and  C_14
REMARK    4  A    between atoms: C_10  and  C_15
REMARK    5  A    between atoms: C_14  and  C_16
REMARK    6  A    between atoms: C_19  and  C_22
REMARK                            x       y       z     vdW  Elec       q    Type
REMARK                         _______ _______ _______ _____ _____    ______ ____
ROOT
ATOM      7  N   UNL     1      16.457   7.774  20.796  0.00  0.00    -0.297 NA
ATOM     10  C   UNL     1      18.670   7.023  20.599  0.00  0.00    +0.092 C 
ATOM     11  C   UNL     1      17.744   6.123  19.761  0.00  0.00    +0.029 C 
ATOM     12  C   UNL     1      17.724   7.793  21.530  0.00  0.00    +0.097 C 
ATOM     13  C   UNL     1      16.341   6.409  20.281  0.00  0.00    +0.085 C 
ENDROOT
BRANCH  10  15
ATOM      5  O   UNL     1      20.665   5.603  20.591  0.00  0.00    -0.420 OA
ATOM      8  N   UNL     1      19.988   6.214  22.634  0.00  0.00    -0.112 NA
ATOM      9  N   UNL     1      21.113   5.422  22.774  0.00  0.00    -0.107 NA
ATOM     15  C   UNL     1      19.763   6.292  21.343  0.00  0.00    +0.222 A 
ATOM     19  C   UNL     1      21.473   5.089  21.558  0.00  0.00    +0.251 A 
BRANCH  19  22
ATOM      1  F   UNL     1      23.695   6.201  20.260  0.00  0.00    -0.205 F 
ATOM     22  C   UNL     1      22.566   4.282  21.097  0.00  0.00    +0.074 A 
ATOM     24  C   UNL     1      23.653   4.875  20.455  0.00  0.00    +0.136 A 
ATOM     25  C   UNL     1      22.538   2.901  21.292  0.00  0.00    +0.016 A 
ATOM     26  C   UNL     1      24.713   4.086  20.007  0.00  0.00    +0.039 A 
ATOM     27  C   UNL     1      23.599   2.113  20.844  0.00  0.00    +0.001 A 
ATOM     28  C   UNL     1      24.685   2.705  20.202  0.00  0.00    +0.003 A 
ENDBRANCH  19  22
ENDBRANCH  10  15
BRANCH   7  14
ATOM     14  C   UNL     1      15.326   8.148  21.632  0.00  0.00    +0.119 C 
BRANCH  14  16
ATOM     16  C   UNL     1      14.062   8.306  20.828  0.00  0.00    -0.030 A 
ATOM     17  C   UNL     1      14.044   9.150  19.718  0.00  0.00    +0.051 A 
ATOM     18  C   UNL     1      12.912   7.607  21.193  0.00  0.00    +0.005 A 
ATOM     20  C   UNL     1      12.874   9.296  18.973  0.00  0.00    +0.130 A 
ATOM     21  C   UNL     1      11.742   7.753  20.448  0.00  0.00    +0.004 A 
ATOM     23  C   UNL     1      11.723   8.597  19.338  0.00  0.00    +0.046 A 
BRANCH  20   6
ATOM      6  O   UNL     1      12.855  10.120  17.889  0.00  0.00    -0.406 OA
BRANCH   6  29
ATOM      2  F   UNL     1      13.304  10.373  15.661  0.00  0.00    -0.133 F 
ATOM      3  F   UNL     1      11.520   9.272  16.280  0.00  0.00    -0.133 F 
ATOM      4  F   UNL     1      13.487   8.365  16.568  0.00  0.00    -0.133 F 
ATOM     29  C   UNL     1      12.810   9.532  16.595  0.00  0.00    +0.575 C 
ENDBRANCH   6  29
ENDBRANCH  20   6
ENDBRANCH  14  16
ENDBRANCH   7  14
TORSDOF 6
ENDMDL
MODEL 4
REMARK VINA RESULT:      -7.4     21.744     24.879
REMARK  Name = 51137673
REMARK  6 active torsions:
REMARK  status: ('A' for Active; 'I' for Inactive)
REMARK    1  A    between atoms: O_6  and  C_20
REMARK    2  A    between atoms: O_6  and  C_29
REMARK    3  A    between atoms: N_7  and  C_14
REMARK    4  A    between atoms: C_10  and  C_15
REMARK    5  A    between atoms: C_14  and  C_16
REMARK    6  A    between atoms: C_19  and  C_22
REMARK                            x       y       z     vdW  Elec       q    Type
REMARK                         _______ _______ _______ _____ _____    ______ ____
ROOT
ATOM      7  N   UNL     1      -3.285 -10.240  10.710  0.00  0.00    -0.297 NA
ATOM     10  C   UNL     1      -2.688 -11.309  12.710  0.00  0.00    +0.092 C 
ATOM     11  C   UNL     1      -4.058 -11.828  12.236  0.00  0.00    +0.029 C 
ATOM     12  C   UNL     1      -2.458 -10.027  11.900  0.00  0.00    +0.097 C 
ATOM     13  C   UNL     1      -4.536 -10.803  11.216  0.00  0.00    +0.085 C 
ENDROOT
BRANCH  10  15
ATOM      5  O   UNL     1      -3.722 -11.172  14.925  0.00  0.00    -0.420 OA
ATOM      8  N   UNL     1      -1.510 -10.838  14.928  0.00  0.00    -0.112 NA
ATOM      9  N   UNL     1      -1.960 -10.733  16.231  0.00  0.00    -0.107 NA
ATOM     15  C   UNL     1      -2.572 -11.094  14.201  0.00  0.00    +0.222 A 
ATOM     19  C   UNL     1      -3.255 -10.935  16.182  0.00  0.00    +0.251 A 
BRANCH  19  22
ATOM      1  F   UNL     1      -5.581  -9.377  16.046  0.00  0.00    -0.205 F 
ATOM     22  C   UNL     1      -4.237 -10.944  17.227  0.00  0.00    +0.074 A 
ATOM     24  C   UNL     1      -5.382 -10.153  17.121  0.00  0.00    +0.136 A 
ATOM     25  C   UNL     1      -4.045 -11.746  18.353  0.00  0.00    +0.016 A 
ATOM     26  C   UNL     1      -6.333 -10.164  18.141  0.00  0.00    +0.039 A 
ATOM     27  C   UNL     1      -4.998 -11.756  19.372  0.00  0.00    +0.001 A 
ATOM     28  C   UNL     1      -6.141 -10.965  19.266  0.00  0.00    +0.003 A 
ENDBRANCH  19  22
ENDBRANCH  10  15
BRANCH   7  14
ATOM     14  C   UNL     1      -3.495  -9.014   9.953  0.00  0.00    +0.119 C 
BRANCH  14  16
ATOM     16  C   UNL     1      -4.727  -9.092   9.091  0.00  0.00    -0.030 A 
ATOM     17  C   UNL     1      -5.830  -8.287   9.377  0.00  0.00    +0.051 A 
ATOM     18  C   UNL     1      -4.764  -9.967   8.006  0.00  0.00    +0.005 A 
ATOM     20  C   UNL     1      -6.970  -8.359   8.578  0.00  0.00    +0.130 A 
ATOM     21  C   UNL     1      -5.905 -10.038   7.207  0.00  0.00    +0.004 A 
ATOM     23  C   UNL     1      -7.008  -9.234   7.493  0.00  0.00    +0.046 A 
BRANCH  20   6
ATOM      6  O   UNL     1      -8.047  -7.574   8.858  0.00  0.00    -0.406 OA
BRANCH   6  29
ATOM      2  F   UNL     1      -7.041  -5.606   8.271  0.00  0.00    -0.133 F 
ATOM      3  F   UNL     1      -9.176  -5.623   8.738  0.00  0.00    -0.133 F 
ATOM      4  F   UNL     1      -8.484  -6.527   6.873  0.00  0.00    -0.133 F 
ATOM     29  C   UNL     1      -8.174  -6.333   8.172  0.00  0.00    +0.575 C 
ENDBRANCH   6  29
ENDBRANCH  20   6
ENDBRANCH  14  16
ENDBRANCH   7  14
TORSDOF 6
ENDMDL
MODEL 5
REMARK VINA RESULT:      -7.2      5.950      8.555
REMARK  Name = 51137673
REMARK  6 active torsions:
REMARK  status: ('A' for Active; 'I' for Inactive)
REMARK    1  A    between atoms: O_6  and  C_20
REMARK    2  A    between atoms: O_6  and  C_29
REMARK    3  A    between atoms: N_7  and  C_14
REMARK    4  A    between atoms: C_10  and  C_15
REMARK    5  A    between atoms: C_14  and  C_16
REMARK    6  A    between atoms: C_19  and  C_22
REMARK                            x       y       z     vdW  Elec       q    Type
REMARK                         _______ _______ _______ _____ _____    ______ ____
ROOT
ATOM      7  N   UNL     1      12.851   8.362   5.831  0.00  0.00    -0.297 NA
ATOM     10  C   UNL     1      14.556   9.855   6.433  0.00  0.00    +0.092 C 
ATOM     11  C   UNL     1      13.742  10.445   5.266  0.00  0.00    +0.029 C 
ATOM     12  C   UNL     1      14.172   8.370   6.461  0.00  0.00    +0.097 C 
ATOM     13  C   UNL     1      12.974   9.265   4.686  0.00  0.00    +0.085 C 
ENDROOT
BRANCH  10  15
ATOM      5  O   UNL     1      16.808   9.009   5.977  0.00  0.00    -0.420 OA
ATOM      8  N   UNL     1      16.746  11.166   6.566  0.00  0.00    -0.112 NA
ATOM      9  N   UNL     1      18.065  10.822   6.341  0.00  0.00    -0.107 NA
ATOM     15  C   UNL     1      16.048  10.078   6.342  0.00  0.00    +0.222 A 
ATOM     19  C   UNL     1      18.054   9.556   5.999  0.00  0.00    +0.251 A 
BRANCH  19  22
ATOM      1  F   UNL     1      20.014   8.807   7.857  0.00  0.00    -0.205 F 
ATOM     22  C   UNL     1      19.131   8.674   5.652  0.00  0.00    +0.074 A 
ATOM     24  C   UNL     1      20.087   8.327   6.607  0.00  0.00    +0.136 A 
ATOM     25  C   UNL     1      19.222   8.166   4.357  0.00  0.00    +0.016 A 
ATOM     26  C   UNL     1      21.134   7.471   6.266  0.00  0.00    +0.039 A 
ATOM     27  C   UNL     1      20.270   7.310   4.016  0.00  0.00    +0.001 A 
ATOM     28  C   UNL     1      21.225   6.963   4.970  0.00  0.00    +0.003 A 
ENDBRANCH  19  22
ENDBRANCH  10  15
BRANCH   7  14
ATOM     14  C   UNL     1      12.430   7.025   5.439  0.00  0.00    +0.119 C 
BRANCH  14  16
ATOM     16  C   UNL     1      10.992   6.761   5.798  0.00  0.00    -0.030 A 
ATOM     17  C   UNL     1      10.620   6.634   7.137  0.00  0.00    +0.051 A 
ATOM     18  C   UNL     1      10.033   6.644   4.793  0.00  0.00    +0.005 A 
ATOM     20  C   UNL     1       9.288   6.390   7.469  0.00  0.00    +0.130 A 
ATOM     21  C   UNL     1       8.701   6.400   5.126  0.00  0.00    +0.004 A 
ATOM     23  C   UNL     1       8.328   6.273   6.464  0.00  0.00    +0.046 A 
BRANCH  20   6
ATOM      6  O   UNL     1       8.925   6.266   8.775  0.00  0.00    -0.406 OA
BRANCH   6  29
ATOM      2  F   UNL     1      10.455   5.217  10.113  0.00  0.00    -0.133 F 
ATOM      3  F   UNL     1       9.423   4.075   8.561  0.00  0.00    -0.133 F 
ATOM      4  F   UNL     1       8.316   4.709  10.335  0.00  0.00    -0.133 F 
ATOM     29  C   UNL     1       9.280   5.072   9.464  0.00  0.00    +0.575 C 
ENDBRANCH   6  29
ENDBRANCH  20   6
ENDBRANCH  14  16
ENDBRANCH   7  14
TORSDOF 6
ENDMDL
MODEL 6
REMARK VINA RESULT:      -7.2     23.472     27.484
REMARK  Name = 51137673
REMARK  6 active torsions:
REMARK  status: ('A' for Active; 'I' for Inactive)
REMARK    1  A    between atoms: O_6  and  C_20
REMARK    2  A    between atoms: O_6  and  C_29
REMARK    3  A    between atoms: N_7  and  C_14
REMARK    4  A    between atoms: C_10  and  C_15
REMARK    5  A    between atoms: C_14  and  C_16
REMARK    6  A    between atoms: C_19  and  C_22
REMARK                            x       y       z     vdW  Elec       q    Type
REMARK                         _______ _______ _______ _____ _____    ______ ____
ROOT
ATOM      7  N   UNL     1      -4.491 -11.639  17.126  0.00  0.00    -0.297 NA
ATOM     10  C   UNL     1      -6.044 -10.662  18.587  0.00  0.00    +0.092 C 
ATOM     11  C   UNL     1      -5.200 -11.698  19.350  0.00  0.00    +0.029 C 
ATOM     12  C   UNL     1      -5.796 -10.975  17.106  0.00  0.00    +0.097 C 
ATOM     13  C   UNL     1      -4.551 -12.551  18.268  0.00  0.00    +0.085 C 
ENDROOT
BRANCH  10  15
ATOM      5  O   UNL     1      -8.358 -10.058  18.061  0.00  0.00    -0.420 OA
ATOM      8  N   UNL     1      -8.114 -11.124  20.012  0.00  0.00    -0.112 NA
ATOM      9  N   UNL     1      -9.458 -10.845  19.842  0.00  0.00    -0.107 NA
ATOM     15  C   UNL     1      -7.511 -10.647  18.949  0.00  0.00    +0.222 A 
ATOM     19  C   UNL     1      -9.553 -10.223  18.690  0.00  0.00    +0.251 A 
BRANCH  19  22
ATOM      1  F   UNL     1      -9.574  -7.646  17.589  0.00  0.00    -0.205 F 
ATOM     22  C   UNL     1     -10.700  -9.700  18.006  0.00  0.00    +0.074 A 
ATOM     24  C   UNL     1     -10.670  -8.411  17.472  0.00  0.00    +0.136 A 
ATOM     25  C   UNL     1     -11.847 -10.482  17.877  0.00  0.00    +0.016 A 
ATOM     26  C   UNL     1     -11.788  -7.905  16.810  0.00  0.00    +0.039 A 
ATOM     27  C   UNL     1     -12.965  -9.975  17.213  0.00  0.00    +0.001 A 
ATOM     28  C   UNL     1     -12.935  -8.687  16.680  0.00  0.00    +0.003 A 
ENDBRANCH  19  22
ENDBRANCH  10  15
BRANCH   7  14
ATOM     14  C   UNL     1      -4.200 -12.330  15.879  0.00  0.00    +0.119 C 
BRANCH  14  16
ATOM     16  C   UNL     1      -3.247 -11.549  15.014  0.00  0.00    -0.030 A 
ATOM     17  C   UNL     1      -3.332 -11.642  13.624  0.00  0.00    +0.051 A 
ATOM     18  C   UNL     1      -2.281 -10.733  15.601  0.00  0.00    +0.005 A 
ATOM     20  C   UNL     1      -2.450 -10.918  12.823  0.00  0.00    +0.130 A 
ATOM     21  C   UNL     1      -1.400 -10.009  14.799  0.00  0.00    +0.004 A 
ATOM     23  C   UNL     1      -1.484 -10.101  13.410  0.00  0.00    +0.046 A 
BRANCH  20   6
ATOM      6  O   UNL     1      -2.533 -11.009  11.467  0.00  0.00    -0.406 OA
BRANCH   6  29
ATOM      2  F   UNL     1      -4.041  -9.290  11.450  0.00  0.00    -0.133 F 
ATOM      3  F   UNL     1      -3.602 -10.352   9.591  0.00  0.00    -0.133 F 
ATOM      4  F   UNL     1      -2.095  -9.014  10.438  0.00  0.00    -0.133 F 
ATOM     29  C   UNL     1      -3.064  -9.902  10.747  0.00  0.00    +0.575 C 
ENDBRANCH   6  29
ENDBRANCH  20   6
ENDBRANCH  14  16
ENDBRANCH   7  14
TORSDOF 6
ENDMDL
MODEL 7
REMARK VINA RESULT:      -7.1     29.752     35.105
REMARK  Name = 51137673
REMARK  6 active torsions:
REMARK  status: ('A' for Active; 'I' for Inactive)
REMARK    1  A    between atoms: O_6  and  C_20
REMARK    2  A    between atoms: O_6  and  C_29
REMARK    3  A    between atoms: N_7  and  C_14
REMARK    4  A    between atoms: C_10  and  C_15
REMARK    5  A    between atoms: C_14  and  C_16
REMARK    6  A    between atoms: C_19  and  C_22
REMARK                            x       y       z     vdW  Elec       q    Type
REMARK                         _______ _______ _______ _____ _____    ______ ____
ROOT
ATOM      7  N   UNL     1     -16.651   4.424  23.976  0.00  0.00    -0.297 NA
ATOM     10  C   UNL     1     -16.513   2.435  25.210  0.00  0.00    +0.092 C 
ATOM     11  C   UNL     1     -17.959   2.641  24.726  0.00  0.00    +0.029 C 
ATOM     12  C   UNL     1     -15.844   3.803  25.028  0.00  0.00    +0.097 C 
ATOM     13  C   UNL     1     -18.036   4.110  24.329  0.00  0.00    +0.085 C 
ENDROOT
BRANCH  10  15
ATOM      5  O   UNL     1     -15.816   2.720  27.540  0.00  0.00    -0.420 OA
ATOM      8  N   UNL     1     -16.744   0.732  27.102  0.00  0.00    -0.112 NA
ATOM      9  N   UNL     1     -16.400   0.759  28.441  0.00  0.00    -0.107 NA
ATOM     15  C   UNL     1     -16.385   1.897  26.616  0.00  0.00    +0.222 A 
ATOM     19  C   UNL     1     -15.863   1.936  28.652  0.00  0.00    +0.251 A 
BRANCH  19  22
ATOM      1  F   UNL     1     -13.374   1.166  29.684  0.00  0.00    -0.205 F 
ATOM     22  C   UNL     1     -15.326   2.515  29.849  0.00  0.00    +0.074 A 
ATOM     24  C   UNL     1     -14.083   2.103  30.331  0.00  0.00    +0.136 A 
ATOM     25  C   UNL     1     -16.051   3.490  30.534  0.00  0.00    +0.016 A 
ATOM     26  C   UNL     1     -13.566   2.667  31.497  0.00  0.00    +0.039 A 
ATOM     27  C   UNL     1     -15.533   4.054  31.700  0.00  0.00    +0.001 A 
ATOM     28  C   UNL     1     -14.290   3.642  32.181  0.00  0.00    +0.003 A 
ENDBRANCH  19  22
ENDBRANCH  10  15
BRANCH   7  14
ATOM     14  C   UNL     1     -16.418   5.857  23.871  0.00  0.00    +0.119 C 
BRANCH  14  16
ATOM     16  C   UNL     1     -15.924   6.245  22.503  0.00  0.00    -0.030 A 
ATOM     17  C   UNL     1     -14.678   6.857  22.359  0.00  0.00    +0.051 A 
ATOM     18  C   UNL     1     -16.711   5.993  21.379  0.00  0.00    +0.005 A 
ATOM     20  C   UNL     1     -14.221   7.216  21.091  0.00  0.00    +0.130 A 
ATOM     21  C   UNL     1     -16.253   6.353  20.112  0.00  0.00    +0.004 A 
ATOM     23  C   UNL     1     -15.008   6.964  19.968  0.00  0.00    +0.046 A 
BRANCH  20   6
ATOM      6  O   UNL     1     -13.005   7.813  20.951  0.00  0.00    -0.406 OA
BRANCH   6  29
ATOM      2  F   UNL     1     -10.729   7.588  20.922  0.00  0.00    -0.133 F 
ATOM      3  F   UNL     1     -11.903   6.857  19.229  0.00  0.00    -0.133 F 
ATOM      4  F   UNL     1     -11.980   5.777  21.127  0.00  0.00    -0.133 F 
ATOM     29  C   UNL     1     -11.896   7.005  20.574  0.00  0.00    +0.575 C 
ENDBRANCH   6  29
ENDBRANCH  20   6
ENDBRANCH  14  16
ENDBRANCH   7  14
TORSDOF 6
ENDMDL
MODEL 8
REMARK VINA RESULT:      -7.0     16.744     19.680
REMARK  Name = 51137673
REMARK  6 active torsions:
REMARK  status: ('A' for Active; 'I' for Inactive)
REMARK    1  A    between atoms: O_6  and  C_20
REMARK    2  A    between atoms: O_6  and  C_29
REMARK    3  A    between atoms: N_7  and  C_14
REMARK    4  A    between atoms: C_10  and  C_15
REMARK    5  A    between atoms: C_14  and  C_16
REMARK    6  A    between atoms: C_19  and  C_22
REMARK                            x       y       z     vdW  Elec       q    Type
REMARK                         _______ _______ _______ _____ _____    ______ ____
ROOT
ATOM      7  N   UNL     1      15.660   9.852  20.582  0.00  0.00    -0.297 NA
ATOM     10  C   UNL     1      16.987   8.021  21.204  0.00  0.00    +0.092 C 
ATOM     11  C   UNL     1      17.698   9.330  21.594  0.00  0.00    +0.029 C 
ATOM     12  C   UNL     1      15.894   8.453  20.218  0.00  0.00    +0.097 C 
ATOM     13  C   UNL     1      16.993  10.415  20.791  0.00  0.00    +0.085 C 
ENDROOT
BRANCH  10  15
ATOM      5  O   UNL     1      19.184   6.949  21.077  0.00  0.00    -0.420 OA
ATOM      8  N   UNL     1      17.625   5.988  19.794  0.00  0.00    -0.112 NA
ATOM      9  N   UNL     1      18.806   5.289  19.627  0.00  0.00    -0.107 NA
ATOM     15  C   UNL     1      17.893   6.948  20.648  0.00  0.00    +0.222 A 
ATOM     19  C   UNL     1      19.688   5.884  20.395  0.00  0.00    +0.251 A 
BRANCH  19  22
ATOM      1  F   UNL     1      20.602   3.271  20.833  0.00  0.00    -0.205 F 
ATOM     22  C   UNL     1      21.074   5.594  20.621  0.00  0.00    +0.074 A 
ATOM     24  C   UNL     1      21.488   4.278  20.836  0.00  0.00    +0.136 A 
ATOM     25  C   UNL     1      22.008   6.629  20.628  0.00  0.00    +0.016 A 
ATOM     26  C   UNL     1      22.837   4.000  21.057  0.00  0.00    +0.039 A 
ATOM     27  C   UNL     1      23.357   6.350  20.849  0.00  0.00    +0.001 A 
ATOM     28  C   UNL     1      23.771   5.036  21.064  0.00  0.00    +0.003 A 
ENDBRANCH  19  22
ENDBRANCH  10  15
BRANCH   7  14
ATOM     14  C   UNL     1      14.907  10.572  19.565  0.00  0.00    +0.119 C 
BRANCH  14  16
ATOM     16  C   UNL     1      13.665   9.827  19.154  0.00  0.00    -0.030 A 
ATOM     17  C   UNL     1      12.702   9.496  20.107  0.00  0.00    +0.051 A 
ATOM     18  C   UNL     1      13.478   9.468  17.819  0.00  0.00    +0.005 A 
ATOM     20  C   UNL     1      11.552   8.807  19.726  0.00  0.00    +0.130 A 
ATOM     21  C   UNL     1      12.327   8.778  17.438  0.00  0.00    +0.004 A 
ATOM     23  C   UNL     1      11.364   8.448  18.391  0.00  0.00    +0.046 A 
BRANCH  20   6
ATOM      6  O   UNL     1      10.612   8.484  20.657  0.00  0.00    -0.406 OA
BRANCH   6  29
ATOM      2  F   UNL     1      11.794   6.588  21.145  0.00  0.00    -0.133 F 
ATOM      3  F   UNL     1       9.814   6.877  22.024  0.00  0.00    -0.133 F 
ATOM      4  F   UNL     1      11.484   8.093  22.734  0.00  0.00    -0.133 F 
ATOM     29  C   UNL     1      10.944   7.512  21.642  0.00  0.00    +0.575 C 
ENDBRANCH   6  29
ENDBRANCH  20   6
ENDBRANCH  14  16
ENDBRANCH   7  14
TORSDOF 6
ENDMDL
MODEL 9
REMARK VINA RESULT:      -7.0     21.889     23.589
REMARK  Name = 51137673
REMARK  6 active torsions:
REMARK  status: ('A' for Active; 'I' for Inactive)
REMARK    1  A    between atoms: O_6  and  C_20
REMARK    2  A    between atoms: O_6  and  C_29
REMARK    3  A    between atoms: N_7  and  C_14
REMARK    4  A    between atoms: C_10  and  C_15
REMARK    5  A    between atoms: C_14  and  C_16
REMARK    6  A    between atoms: C_19  and  C_22
REMARK                            x       y       z     vdW  Elec       q    Type
REMARK                         _______ _______ _______ _____ _____    ______ ____
ROOT
ATOM      7  N   UNL     1      -5.687  -9.739   8.461  0.00  0.00    -0.297 NA
ATOM     10  C   UNL     1      -7.881  -9.295   7.760  0.00  0.00    +0.092 C 
ATOM     11  C   UNL     1      -7.114 -10.010   6.633  0.00  0.00    +0.029 C 
ATOM     12  C   UNL     1      -6.790  -8.813   8.725  0.00  0.00    +0.097 C 
ATOM     13  C   UNL     1      -5.644  -9.867   7.005  0.00  0.00    +0.085 C 
ENDROOT
BRANCH  10  15
ATOM      5  O   UNL     1      -9.382  -7.429   8.269  0.00  0.00    -0.420 OA
ATOM      8  N   UNL     1      -9.122  -7.819   6.082  0.00  0.00    -0.112 NA
ATOM      9  N   UNL     1      -9.986  -6.750   6.226  0.00  0.00    -0.107 NA
ATOM     15  C   UNL     1      -8.795  -8.183   7.300  0.00  0.00    +0.222 A 
ATOM     19  C   UNL     1     -10.109  -6.557   7.518  0.00  0.00    +0.251 A 
BRANCH  19  22
ATOM      1  F   UNL     1      -8.915  -4.339   8.748  0.00  0.00    -0.205 F 
ATOM     22  C   UNL     1     -10.877  -5.590   8.247  0.00  0.00    +0.074 A 
ATOM     24  C   UNL     1     -10.244  -4.500   8.846  0.00  0.00    +0.136 A 
ATOM     25  C   UNL     1     -12.258  -5.742   8.359  0.00  0.00    +0.016 A 
ATOM     26  C   UNL     1     -10.993  -3.562   9.556  0.00  0.00    +0.039 A 
ATOM     27  C   UNL     1     -13.008  -4.803   9.069  0.00  0.00    +0.001 A 
ATOM     28  C   UNL     1     -12.375  -3.714   9.667  0.00  0.00    +0.003 A 
ENDBRANCH  19  22
ENDBRANCH  10  15
BRANCH   7  14
ATOM     14  C   UNL     1      -4.425  -9.271   9.014  0.00  0.00    +0.119 C 
BRANCH  14  16
ATOM     16  C   UNL     1      -3.825 -10.271   9.966  0.00  0.00    -0.030 A 
ATOM     17  C   UNL     1      -2.909  -9.853  10.931  0.00  0.00    +0.051 A 
ATOM     18  C   UNL     1      -4.186 -11.616   9.884  0.00  0.00    +0.005 A 
ATOM     20  C   UNL     1      -2.353 -10.779  11.813  0.00  0.00    +0.130 A 
ATOM     21  C   UNL     1      -3.630 -12.542  10.766  0.00  0.00    +0.004 A 
ATOM     23  C   UNL     1      -2.714 -12.124  11.731  0.00  0.00    +0.046 A 
BRANCH  20   6
ATOM      6  O   UNL     1      -1.459 -10.370  12.755  0.00  0.00    -0.406 OA
BRANCH   6  29
ATOM      2  F   UNL     1      -1.576 -11.625  14.663  0.00  0.00    -0.133 F 
ATOM      3  F   UNL     1      -3.185 -10.220  14.201  0.00  0.00    -0.133 F 
ATOM      4  F   UNL     1      -1.243  -9.446  14.835  0.00  0.00    -0.133 F 
ATOM     29  C   UNL     1      -1.850 -10.418  14.122  0.00  0.00    +0.575 C 
ENDBRANCH   6  29
ENDBRANCH  20   6
ENDBRANCH  14  16
ENDBRANCH   7  14
TORSDOF 6
ENDMDL
MODEL 10
REMARK VINA RESULT:      -6.9     22.903     26.599
REMARK  Name = 51137673
REMARK  6 active torsions:
REMARK  status: ('A' for Active; 'I' for Inactive)
REMARK    1  A    between atoms: O_6  and  C_20
REMARK    2  A    between atoms: O_6  and  C_29
REMARK    3  A    between atoms: N_7  and  C_14
REMARK    4  A    between atoms: C_10  and  C_15
REMARK    5  A    between atoms: C_14  and  C_16
REMARK    6  A    between atoms: C_19  and  C_22
REMARK                            x       y       z     vdW  Elec       q    Type
REMARK                         _______ _______ _______ _____ _____    ______ ____
ROOT
ATOM      7  N   UNL     1      -5.644 -10.831  16.427  0.00  0.00    -0.297 NA
ATOM     10  C   UNL     1      -7.301  -9.354  17.184  0.00  0.00    +0.092 C 
ATOM     11  C   UNL     1      -6.908 -10.314  18.321  0.00  0.00    +0.029 C 
ATOM     12  C   UNL     1      -6.740 -10.007  15.914  0.00  0.00    +0.097 C 
ATOM     13  C   UNL     1      -6.180 -11.462  17.633  0.00  0.00    +0.085 C 
ENDROOT
BRANCH  10  15
ATOM      5  O   UNL     1      -9.193  -8.338  16.007  0.00  0.00    -0.420 OA
ATOM      8  N   UNL     1      -9.753  -9.381  17.905  0.00  0.00    -0.112 NA
ATOM      9  N   UNL     1     -10.905  -8.858  17.349  0.00  0.00    -0.107 NA
ATOM     15  C   UNL     1      -8.779  -9.053  17.089  0.00  0.00    +0.222 A 
ATOM     19  C   UNL     1     -10.531  -8.259  16.243  0.00  0.00    +0.251 A 
BRANCH  19  22
ATOM      1  F   UNL     1     -11.242  -5.569  16.587  0.00  0.00    -0.205 F 
ATOM     22  C   UNL     1     -11.299  -7.546  15.264  0.00  0.00    +0.074 A 
ATOM     24  C   UNL     1     -11.633  -6.207  15.473  0.00  0.00    +0.136 A 
ATOM     25  C   UNL     1     -11.714  -8.194  14.101  0.00  0.00    +0.016 A 
ATOM     26  C   UNL     1     -12.382  -5.518  14.519  0.00  0.00    +0.039 A 
ATOM     27  C   UNL     1     -12.462  -7.505  13.147  0.00  0.00    +0.001 A 
ATOM     28  C   UNL     1     -12.796  -6.167  13.356  0.00  0.00    +0.003 A 
ENDBRANCH  19  22
ENDBRANCH  10  15
BRANCH   7  14
ATOM     14  C   UNL     1      -5.178 -11.806  15.452  0.00  0.00    +0.119 C 
BRANCH  14  16
ATOM     16  C   UNL     1      -3.998 -11.296  14.669  0.00  0.00    -0.030 A 
ATOM     17  C   UNL     1      -4.018 -11.333  13.275  0.00  0.00    +0.051 A 
ATOM     18  C   UNL     1      -2.885 -10.786  15.338  0.00  0.00    +0.005 A 
ATOM     20  C   UNL     1      -2.925 -10.860  12.549  0.00  0.00    +0.130 A 
ATOM     21  C   UNL     1      -1.792 -10.314  14.612  0.00  0.00    +0.004 A 
ATOM     23  C   UNL     1      -1.812 -10.350  13.218  0.00  0.00    +0.046 A 
BRANCH  20   6
ATOM      6  O   UNL     1      -2.944 -10.896  11.188  0.00  0.00    -0.406 OA
BRANCH   6  29
ATOM      2  F   UNL     1      -4.132  -8.944  11.105  0.00  0.00    -0.133 F 
ATOM      3  F   UNL     1      -3.640  -9.983   9.246  0.00  0.00    -0.133 F 
ATOM      4  F   UNL     1      -2.054  -8.965  10.350  0.00  0.00    -0.133 F 
ATOM     29  C   UNL     1      -3.188  -9.684  10.485  0.00  0.00    +0.575 C 
ENDBRANCH   6  29
ENDBRANCH  20   6
ENDBRANCH  14  16
ENDBRANCH   7  14
TORSDOF 6
ENDMDL
