MODEL 1
REMARK VINA RESULT:      -6.6      0.000      0.000
REMARK  Name = 7051070
REMARK  12 active torsions:
REMARK  status: ('A' for Active; 'I' for Inactive)
REMARK    1  A    between atoms: O_3  and  C_15
REMARK    2  A    between atoms: O_4  and  C_20
REMARK    3  A    between atoms: N_8  and  C_26
REMARK    4  A    between atoms: N_8  and  C_27
REMARK    5  A    between atoms: C_10  and  C_18
REMARK    6  A    between atoms: C_12  and  C_20
REMARK    7  A    between atoms: C_12  and  C_21
REMARK    8  A    between atoms: C_13  and  C_23
REMARK    9  A    between atoms: C_23  and  C_24
REMARK   10  A    between atoms: C_26  and  C_29
REMARK   11  A    between atoms: C_27  and  C_30
REMARK   12  A    between atoms: C_28  and  C_31
REMARK                            x       y       z     vdW  Elec       q    Type
REMARK                         _______ _______ _______ _____ _____    ______ ____
ROOT
ATOM      1  S   UNL     1      17.518   5.801  19.450  0.00  0.00    -0.057 S 
ATOM      6  O   UNL     1      21.185   7.859  21.449  0.00  0.00    -0.270 OA
ATOM      7  N   UNL     1      18.309   7.890  20.756  0.00  0.00    -0.229 NA
ATOM      9  N   UNL     1      19.973   6.214  20.273  0.00  0.00    -0.261 N 
ATOM     10  C   UNL     1      14.799   9.393  20.224  0.00  0.00    -0.019 C 
ATOM     11  C   UNL     1      14.100   7.963  20.227  0.00  0.00    +0.011 C 
ATOM     12  C   UNL     1      12.555   7.919  19.913  0.00  0.00    +0.021 C 
ATOM     13  C   UNL     1      16.202   9.258  20.977  0.00  0.00    +0.054 C 
ATOM     14  C   UNL     1      13.918  10.399  21.010  0.00  0.00    +0.010 C 
ATOM     15  C   UNL     1      11.833   9.017  20.745  0.00  0.00    +0.123 C 
ATOM     16  C   UNL     1      14.932   6.921  19.423  0.00  0.00    +0.049 C 
ATOM     17  C   UNL     1      12.455  10.400  20.587  0.00  0.00    +0.032 C 
ATOM     18  C   UNL     1      15.032   9.946  18.797  0.00  0.00    +0.012 C 
ATOM     19  C   UNL     1      16.961   8.048  20.495  0.00  0.00    +0.058 A 
ATOM     21  C   UNL     1      11.983   6.546  20.365  0.00  0.00    +0.016 C 
ATOM     22  C   UNL     1      16.369   7.004  19.817  0.00  0.00    +0.015 A 
ATOM     25  C   UNL     1      18.712   6.746  20.245  0.00  0.00    +0.165 A 
ATOM     28  C   UNL     1      21.114   6.785  20.860  0.00  0.00    +0.250 C 
ATOM     39  H   UNL     1      20.034   5.294  19.848  0.00  0.00    +0.157 HD
ENDROOT
BRANCH  28  31
ATOM      2  F   UNL     1      25.796   3.704  20.508  0.00  0.00    -0.205 F 
ATOM     31  C   UNL     1      22.353   5.970  20.768  0.00  0.00    +0.037 A 
ATOM     32  C   UNL     1      22.284   4.580  20.866  0.00  0.00    +0.016 A 
ATOM     33  C   UNL     1      23.587   6.594  20.582  0.00  0.00    +0.016 A 
ATOM     34  C   UNL     1      23.446   3.815  20.779  0.00  0.00    +0.039 A 
ATOM     35  C   UNL     1      24.750   5.829  20.494  0.00  0.00    +0.039 A 
ATOM     36  C   UNL     1      24.680   4.438  20.592  0.00  0.00    +0.123 A 
ENDBRANCH  28  31
BRANCH  15   3
ATOM      3  O   UNL     1      10.452   9.092  20.389  0.00  0.00    -0.391 OA
ATOM     37  H   UNL     1       9.998   8.345  20.814  0.00  0.00    +0.210 HD
ENDBRANCH  15   3
BRANCH  12  20
ATOM     20  C   UNL     1      12.202   8.044  18.415  0.00  0.00    +0.165 C 
BRANCH  20   4
ATOM      4  O   UNL     1      11.966   6.747  17.917  0.00  0.00    -0.394 OA
ATOM     38  H   UNL     1      11.516   6.244  18.617  0.00  0.00    +0.209 HD
ENDBRANCH  20   4
ENDBRANCH  12  20
BRANCH  13  23
ATOM     23  C   UNL     1      17.072  10.521  20.935  0.00  0.00    +0.106 C 
BRANCH  23  24
ATOM      5  O   UNL     1      16.352  11.354  23.065  0.00  0.00    -0.276 OA
ATOM      8  N   UNL     1      18.636  11.332  22.665  0.00  0.00    -0.302 N 
ATOM     24  C   UNL     1      17.301  11.105  22.317  0.00  0.00    +0.216 C 
BRANCH   8  26
ATOM     26  C   UNL     1      19.024  11.888  23.957  0.00  0.00    +0.104 C 
ATOM     29  C   UNL     1      20.056  11.020  24.647  0.00  0.00    +0.024 C 
ENDBRANCH   8  26
BRANCH   8  27
ATOM     27  C   UNL     1      19.744  11.030  21.761  0.00  0.00    +0.104 C 
ATOM     30  C   UNL     1      20.294  12.286  21.117  0.00  0.00    +0.024 C 
ENDBRANCH   8  27
ENDBRANCH  23  24
ENDBRANCH  13  23
TORSDOF 8
ENDMDL
MODEL 2
REMARK VINA RESULT:      -6.4     30.214     32.873
REMARK  Name = 7051070
REMARK  12 active torsions:
REMARK  status: ('A' for Active; 'I' for Inactive)
REMARK    1  A    between atoms: O_3  and  C_15
REMARK    2  A    between atoms: O_4  and  C_20
REMARK    3  A    between atoms: N_8  and  C_26
REMARK    4  A    between atoms: N_8  and  C_27
REMARK    5  A    between atoms: C_10  and  C_18
REMARK    6  A    between atoms: C_12  and  C_20
REMARK    7  A    between atoms: C_12  and  C_21
REMARK    8  A    between atoms: C_13  and  C_23
REMARK    9  A    between atoms: C_23  and  C_24
REMARK   10  A    between atoms: C_26  and  C_29
REMARK   11  A    between atoms: C_27  and  C_30
REMARK   12  A    between atoms: C_28  and  C_31
REMARK                            x       y       z     vdW  Elec       q    Type
REMARK                         _______ _______ _______ _____ _____    ______ ____
ROOT
ATOM      1  S   UNL     1      -5.634 -10.971  12.548  0.00  0.00    -0.057 S 
ATOM      6  O   UNL     1      -8.834  -8.411  10.339  0.00  0.00    -0.270 OA
ATOM      7  N   UNL     1      -7.790  -9.573  12.850  0.00  0.00    -0.229 NA
ATOM      9  N   UNL     1      -6.917  -9.755  10.611  0.00  0.00    -0.261 N 
ATOM     10  C   UNL     1      -7.847 -10.696  16.538  0.00  0.00    -0.019 C 
ATOM     11  C   UNL     1      -6.260 -10.795  16.615  0.00  0.00    +0.011 C 
ATOM     12  C   UNL     1      -5.641 -11.361  17.950  0.00  0.00    +0.021 C 
ATOM     13  C   UNL     1      -8.222  -9.719  15.331  0.00  0.00    +0.054 C 
ATOM     14  C   UNL     1      -8.389 -10.078  17.854  0.00  0.00    +0.010 C 
ATOM     15  C   UNL     1      -6.326 -10.672  19.164  0.00  0.00    +0.123 C 
ATOM     16  C   UNL     1      -5.668 -11.439  15.327  0.00  0.00    +0.049 C 
ATOM     17  C   UNL     1      -7.848 -10.738  19.114  0.00  0.00    +0.032 C 
ATOM     18  C   UNL     1      -8.526 -12.070  16.319  0.00  0.00    +0.012 C 
ATOM     19  C   UNL     1      -7.430 -10.055  14.094  0.00  0.00    +0.058 A 
ATOM     21  C   UNL     1      -4.130 -10.997  18.004  0.00  0.00    +0.016 C 
ATOM     22  C   UNL     1      -6.277 -10.813  14.118  0.00  0.00    +0.015 A 
ATOM     25  C   UNL     1      -6.921  -9.998  11.959  0.00  0.00    +0.165 A 
ATOM     28  C   UNL     1      -7.851  -8.993   9.891  0.00  0.00    +0.250 C 
ATOM     39  H   UNL     1      -6.118 -10.155  10.130  0.00  0.00    +0.157 HD
ENDROOT
BRANCH  28  31
ATOM      2  F   UNL     1      -6.842  -8.524   4.387  0.00  0.00    -0.205 F 
ATOM     31  C   UNL     1      -7.585  -8.869   8.434  0.00  0.00    +0.037 A 
ATOM     32  C   UNL     1      -8.284  -7.932   7.673  0.00  0.00    +0.016 A 
ATOM     33  C   UNL     1      -6.634  -9.690   7.827  0.00  0.00    +0.016 A 
ATOM     34  C   UNL     1      -8.033  -7.816   6.306  0.00  0.00    +0.039 A 
ATOM     35  C   UNL     1      -6.383  -9.574   6.460  0.00  0.00    +0.039 A 
ATOM     36  C   UNL     1      -7.082  -8.636   5.699  0.00  0.00    +0.123 A 
ENDBRANCH  28  31
BRANCH  15   3
ATOM      3  O   UNL     1      -5.881 -11.253  20.390  0.00  0.00    -0.391 OA
ATOM     37  H   UNL     1      -6.667 -11.438  20.930  0.00  0.00    +0.210 HD
ENDBRANCH  15   3
BRANCH  12  20
ATOM     20  C   UNL     1      -5.703 -12.898  18.084  0.00  0.00    +0.165 C 
BRANCH  20   4
ATOM      4  O   UNL     1      -4.463 -13.339  18.589  0.00  0.00    -0.394 OA
ATOM     38  H   UNL     1      -4.330 -14.250  18.278  0.00  0.00    +0.209 HD
ENDBRANCH  20   4
ENDBRANCH  12  20
BRANCH  13  23
ATOM     23  C   UNL     1      -9.724  -9.628  15.028  0.00  0.00    +0.106 C 
BRANCH  23  24
ATOM      5  O   UNL     1      -9.707  -7.423  15.970  0.00  0.00    -0.276 OA
ATOM      8  N   UNL     1     -11.401  -7.906  14.461  0.00  0.00    -0.302 N 
ATOM     24  C   UNL     1     -10.261  -8.220  15.208  0.00  0.00    +0.216 C 
BRANCH   8  26
ATOM     26  C   UNL     1     -12.039  -6.596  14.521  0.00  0.00    +0.104 C 
ATOM     29  C   UNL     1     -13.107  -6.548  15.594  0.00  0.00    +0.024 C 
ENDBRANCH   8  26
BRANCH   8  27
ATOM     27  C   UNL     1     -12.040  -8.868  13.565  0.00  0.00    +0.104 C 
ATOM     30  C   UNL     1     -11.957  -8.422  12.120  0.00  0.00    +0.024 C 
ENDBRANCH   8  27
ENDBRANCH  23  24
ENDBRANCH  13  23
TORSDOF 8
ENDMDL
MODEL 3
REMARK VINA RESULT:      -6.3     28.365     32.323
REMARK  Name = 7051070
REMARK  12 active torsions:
REMARK  status: ('A' for Active; 'I' for Inactive)
REMARK    1  A    between atoms: O_3  and  C_15
REMARK    2  A    between atoms: O_4  and  C_20
REMARK    3  A    between atoms: N_8  and  C_26
REMARK    4  A    between atoms: N_8  and  C_27
REMARK    5  A    between atoms: C_10  and  C_18
REMARK    6  A    between atoms: C_12  and  C_20
REMARK    7  A    between atoms: C_12  and  C_21
REMARK    8  A    between atoms: C_13  and  C_23
REMARK    9  A    between atoms: C_23  and  C_24
REMARK   10  A    between atoms: C_26  and  C_29
REMARK   11  A    between atoms: C_27  and  C_30
REMARK   12  A    between atoms: C_28  and  C_31
REMARK                            x       y       z     vdW  Elec       q    Type
REMARK                         _______ _______ _______ _____ _____    ______ ____
ROOT
ATOM      1  S   UNL     1      -9.146  -9.560  12.908  0.00  0.00    -0.057 S 
ATOM      6  O   UNL     1      -5.822  -9.425   9.651  0.00  0.00    -0.270 OA
ATOM      7  N   UNL     1      -6.669 -10.110  12.401  0.00  0.00    -0.229 NA
ATOM      9  N   UNL     1      -7.953  -9.128  10.613  0.00  0.00    -0.261 N 
ATOM     10  C   UNL     1      -6.252 -11.050  16.117  0.00  0.00    -0.019 C 
ATOM     11  C   UNL     1      -7.762 -11.539  16.245  0.00  0.00    +0.011 C 
ATOM     12  C   UNL     1      -8.259 -11.964  17.679  0.00  0.00    +0.021 C 
ATOM     13  C   UNL     1      -5.848 -11.097  14.572  0.00  0.00    +0.054 C 
ATOM     14  C   UNL     1      -5.328 -12.025  16.894  0.00  0.00    +0.010 C 
ATOM     15  C   UNL     1      -7.199 -12.897  18.331  0.00  0.00    +0.123 C 
ATOM     16  C   UNL     1      -8.735 -10.574  15.505  0.00  0.00    +0.049 C 
ATOM     17  C   UNL     1      -5.791 -12.312  18.315  0.00  0.00    +0.032 C 
ATOM     18  C   UNL     1      -6.034  -9.618  16.663  0.00  0.00    +0.012 C 
ATOM     19  C   UNL     1      -6.915 -10.471  13.712  0.00  0.00    +0.058 A 
ATOM     21  C   UNL     1      -9.572 -12.785  17.539  0.00  0.00    +0.016 C 
ATOM     22  C   UNL     1      -8.209 -10.262  14.145  0.00  0.00    +0.015 A 
ATOM     25  C   UNL     1      -7.770  -9.612  11.881  0.00  0.00    +0.165 A 
ATOM     28  C   UNL     1      -6.992  -9.063   9.591  0.00  0.00    +0.250 C 
ATOM     39  H   UNL     1      -8.907  -8.833  10.426  0.00  0.00    +0.157 HD
ENDROOT
BRANCH  28  31
ATOM      2  F   UNL     1      -8.819  -6.998   4.698  0.00  0.00    -0.205 F 
ATOM     31  C   UNL     1      -7.476  -8.517   8.296  0.00  0.00    +0.037 A 
ATOM     32  C   UNL     1      -8.286  -7.382   8.276  0.00  0.00    +0.016 A 
ATOM     33  C   UNL     1      -7.120  -9.140   7.099  0.00  0.00    +0.016 A 
ATOM     34  C   UNL     1      -8.740  -6.869   7.061  0.00  0.00    +0.039 A 
ATOM     35  C   UNL     1      -7.574  -8.627   5.884  0.00  0.00    +0.039 A 
ATOM     36  C   UNL     1      -8.383  -7.490   5.865  0.00  0.00    +0.123 A 
ENDBRANCH  28  31
BRANCH  15   3
ATOM      3  O   UNL     1      -7.555 -13.198  19.681  0.00  0.00    -0.391 OA
ATOM     37  H   UNL     1      -8.517 -13.085  19.763  0.00  0.00    +0.210 HD
ENDBRANCH  15   3
BRANCH  12  20
ATOM     20  C   UNL     1      -8.603 -10.785  18.615  0.00  0.00    +0.165 C 
BRANCH  20   4
ATOM      4  O   UNL     1      -9.546 -11.242  19.557  0.00  0.00    -0.394 OA
ATOM     38  H   UNL     1      -9.604 -10.571  20.259  0.00  0.00    +0.209 HD
ENDBRANCH  20   4
ENDBRANCH  12  20
BRANCH  13  23
ATOM     23  C   UNL     1      -4.462 -10.517  14.258  0.00  0.00    +0.106 C 
BRANCH  23  24
ATOM      5  O   UNL     1      -3.876 -11.970  12.442  0.00  0.00    -0.276 OA
ATOM      8  N   UNL     1      -2.402 -11.879  14.231  0.00  0.00    -0.302 N 
ATOM     24  C   UNL     1      -3.569 -11.519  13.549  0.00  0.00    +0.216 C 
BRANCH   8  26
ATOM     26  C   UNL     1      -1.439 -12.829  13.686  0.00  0.00    +0.104 C 
ATOM     29  C   UNL     1      -1.818 -14.257  14.022  0.00  0.00    +0.024 C 
ENDBRANCH   8  26
BRANCH   8  27
ATOM     27  C   UNL     1      -2.061 -11.332  15.543  0.00  0.00    +0.104 C 
ATOM     30  C   UNL     1      -1.057 -10.204  15.430  0.00  0.00    +0.024 C 
ENDBRANCH   8  27
ENDBRANCH  23  24
ENDBRANCH  13  23
TORSDOF 8
ENDMDL
MODEL 4
REMARK VINA RESULT:      -6.2     30.273     32.840
REMARK  Name = 7051070
REMARK  12 active torsions:
REMARK  status: ('A' for Active; 'I' for Inactive)
REMARK    1  A    between atoms: O_3  and  C_15
REMARK    2  A    between atoms: O_4  and  C_20
REMARK    3  A    between atoms: N_8  and  C_26
REMARK    4  A    between atoms: N_8  and  C_27
REMARK    5  A    between atoms: C_10  and  C_18
REMARK    6  A    between atoms: C_12  and  C_20
REMARK    7  A    between atoms: C_12  and  C_21
REMARK    8  A    between atoms: C_13  and  C_23
REMARK    9  A    between atoms: C_23  and  C_24
REMARK   10  A    between atoms: C_26  and  C_29
REMARK   11  A    between atoms: C_27  and  C_30
REMARK   12  A    between atoms: C_28  and  C_31
REMARK                            x       y       z     vdW  Elec       q    Type
REMARK                         _______ _______ _______ _____ _____    ______ ____
ROOT
ATOM      1  S   UNL     1      -9.604  -9.441  13.935  0.00  0.00    -0.057 S 
ATOM      6  O   UNL     1      -9.111 -10.533  18.433  0.00  0.00    -0.270 OA
ATOM      7  N   UNL     1      -7.928 -10.236  15.739  0.00  0.00    -0.229 NA
ATOM      9  N   UNL     1     -10.195  -9.845  16.457  0.00  0.00    -0.261 N 
ATOM     10  C   UNL     1      -5.320 -10.682  12.935  0.00  0.00    -0.019 C 
ATOM     11  C   UNL     1      -5.934  -9.497  12.067  0.00  0.00    +0.011 C 
ATOM     12  C   UNL     1      -5.310  -9.257  10.638  0.00  0.00    +0.021 C 
ATOM     13  C   UNL     1      -5.771 -10.467  14.452  0.00  0.00    +0.054 C 
ATOM     14  C   UNL     1      -3.771 -10.618  12.871  0.00  0.00    +0.010 C 
ATOM     15  C   UNL     1      -3.759  -9.269  10.749  0.00  0.00    +0.123 C 
ATOM     16  C   UNL     1      -7.490  -9.535  12.073  0.00  0.00    +0.049 C 
ATOM     17  C   UNL     1      -3.216 -10.504  11.459  0.00  0.00    +0.032 C 
ATOM     18  C   UNL     1      -5.780 -12.080  12.454  0.00  0.00    +0.012 C 
ATOM     19  C   UNL     1      -7.242 -10.154  14.541  0.00  0.00    +0.058 A 
ATOM     21  C   UNL     1      -5.727  -7.847  10.133  0.00  0.00    +0.016 C 
ATOM     22  C   UNL     1      -7.990  -9.720  13.466  0.00  0.00    +0.015 A 
ATOM     25  C   UNL     1      -9.182  -9.890  15.538  0.00  0.00    +0.165 A 
ATOM     28  C   UNL     1     -10.107 -10.160  17.823  0.00  0.00    +0.250 C 
ATOM     39  H   UNL     1     -11.073  -9.506  16.076  0.00  0.00    +0.157 HD
ENDROOT
BRANCH  28  31
ATOM      2  F   UNL     1     -14.856  -9.519  20.751  0.00  0.00    -0.205 F 
ATOM     31  C   UNL     1     -11.364  -9.991  18.598  0.00  0.00    +0.037 A 
ATOM     32  C   UNL     1     -11.341 -10.063  19.991  0.00  0.00    +0.016 A 
ATOM     33  C   UNL     1     -12.568  -9.760  17.932  0.00  0.00    +0.016 A 
ATOM     34  C   UNL     1     -12.520  -9.904  20.718  0.00  0.00    +0.039 A 
ATOM     35  C   UNL     1     -13.748  -9.601  18.659  0.00  0.00    +0.039 A 
ATOM     36  C   UNL     1     -13.724  -9.672  20.053  0.00  0.00    +0.123 A 
ENDBRANCH  28  31
BRANCH  15   3
ATOM      3  O   UNL     1      -3.162  -9.184   9.454  0.00  0.00    -0.391 OA
ATOM     37  H   UNL     1      -3.840  -8.859   8.838  0.00  0.00    +0.210 HD
ENDBRANCH  15   3
BRANCH  12  20
ATOM     20  C   UNL     1      -5.792 -10.246   9.554  0.00  0.00    +0.165 C 
BRANCH  20   4
ATOM      4  O   UNL     1      -6.533  -9.517   8.602  0.00  0.00    -0.394 OA
ATOM     38  H   UNL     1      -6.206  -9.773   7.723  0.00  0.00    +0.209 HD
ENDBRANCH  20   4
ENDBRANCH  12  20
BRANCH  13  23
ATOM     23  C   UNL     1      -5.381 -11.608  15.401  0.00  0.00    +0.106 C 
BRANCH  23  24
ATOM      5  O   UNL     1      -4.506  -9.957  16.903  0.00  0.00    -0.276 OA
ATOM      8  N   UNL     1      -5.100 -12.001  17.823  0.00  0.00    -0.302 N 
ATOM     24  C   UNL     1      -4.953 -11.099  16.765  0.00  0.00    +0.216 C 
BRANCH   8  26
ATOM     26  C   UNL     1      -4.735 -11.665  19.194  0.00  0.00    +0.104 C 
ATOM     29  C   UNL     1      -5.864 -10.951  19.909  0.00  0.00    +0.024 C 
ENDBRANCH   8  26
BRANCH   8  27
ATOM     27  C   UNL     1      -5.630 -13.350  17.633  0.00  0.00    +0.104 C 
ATOM     30  C   UNL     1      -7.141 -13.373  17.736  0.00  0.00    +0.024 C 
ENDBRANCH   8  27
ENDBRANCH  23  24
ENDBRANCH  13  23
TORSDOF 8
ENDMDL
MODEL 5
REMARK VINA RESULT:      -6.1     29.189     33.245
REMARK  Name = 7051070
REMARK  12 active torsions:
REMARK  status: ('A' for Active; 'I' for Inactive)
REMARK    1  A    between atoms: O_3  and  C_15
REMARK    2  A    between atoms: O_4  and  C_20
REMARK    3  A    between atoms: N_8  and  C_26
REMARK    4  A    between atoms: N_8  and  C_27
REMARK    5  A    between atoms: C_10  and  C_18
REMARK    6  A    between atoms: C_12  and  C_20
REMARK    7  A    between atoms: C_12  and  C_21
REMARK    8  A    between atoms: C_13  and  C_23
REMARK    9  A    between atoms: C_23  and  C_24
REMARK   10  A    between atoms: C_26  and  C_29
REMARK   11  A    between atoms: C_27  and  C_30
REMARK   12  A    between atoms: C_28  and  C_31
REMARK                            x       y       z     vdW  Elec       q    Type
REMARK                         _______ _______ _______ _____ _____    ______ ____
ROOT
ATOM      1  S   UNL     1     -12.939   5.323  22.399  0.00  0.00    -0.057 S 
ATOM      6  O   UNL     1     -16.963   5.677  24.713  0.00  0.00    -0.270 OA
ATOM      7  N   UNL     1     -15.037   6.792  22.765  0.00  0.00    -0.229 NA
ATOM      9  N   UNL     1     -14.910   4.743  24.027  0.00  0.00    -0.261 N 
ATOM     10  C   UNL     1     -13.397   9.467  20.524  0.00  0.00    -0.019 C 
ATOM     11  C   UNL     1     -12.625   8.379  19.655  0.00  0.00    +0.011 C 
ATOM     12  C   UNL     1     -11.619   8.914  18.564  0.00  0.00    +0.021 C 
ATOM     13  C   UNL     1     -14.641   8.748  21.222  0.00  0.00    +0.054 C 
ATOM     14  C   UNL     1     -13.937  10.583  19.591  0.00  0.00    +0.010 C 
ATOM     15  C   UNL     1     -12.302  10.052  17.754  0.00  0.00    +0.123 C 
ATOM     16  C   UNL     1     -12.036   7.250  20.551  0.00  0.00    +0.049 C 
ATOM     17  C   UNL     1     -12.894  11.146  18.636  0.00  0.00    +0.032 C 
ATOM     18  C   UNL     1     -12.502  10.116  21.608  0.00  0.00    +0.012 C 
ATOM     19  C   UNL     1     -14.231   7.440  21.848  0.00  0.00    +0.058 A 
ATOM     21  C   UNL     1     -11.296   7.767  17.566  0.00  0.00    +0.016 C 
ATOM     22  C   UNL     1     -13.067   6.776  21.519  0.00  0.00    +0.015 A 
ATOM     25  C   UNL     1     -14.453   5.671  23.131  0.00  0.00    +0.165 A 
ATOM     28  C   UNL     1     -16.112   4.794  24.752  0.00  0.00    +0.250 C 
ATOM     39  H   UNL     1     -14.304   3.933  24.116  0.00  0.00    +0.157 HD
ENDROOT
BRANCH  28  31
ATOM      2  F   UNL     1     -17.091   0.389  28.095  0.00  0.00    -0.205 F 
ATOM     31  C   UNL     1     -16.372   3.628  25.637  0.00  0.00    +0.037 A 
ATOM     32  C   UNL     1     -16.489   2.350  25.091  0.00  0.00    +0.016 A 
ATOM     33  C   UNL     1     -16.499   3.812  27.014  0.00  0.00    +0.016 A 
ATOM     34  C   UNL     1     -16.732   1.256  25.921  0.00  0.00    +0.039 A 
ATOM     35  C   UNL     1     -16.742   2.718  27.844  0.00  0.00    +0.039 A 
ATOM     36  C   UNL     1     -16.857   1.439  27.297  0.00  0.00    +0.123 A 
ENDBRANCH  28  31
BRANCH  15   3
ATOM      3  O   UNL     1     -11.376  10.647  16.845  0.00  0.00    -0.391 OA
ATOM     37  H   UNL     1     -11.130  11.517  17.202  0.00  0.00    +0.210 HD
ENDBRANCH  15   3
BRANCH  12  20
ATOM     20  C   UNL     1     -10.256   9.377  19.122  0.00  0.00    +0.165 C 
BRANCH  20   4
ATOM      4  O   UNL     1      -9.325   9.349  18.065  0.00  0.00    -0.394 OA
ATOM     38  H   UNL     1      -9.737   9.790  17.303  0.00  0.00    +0.209 HD
ENDBRANCH  20   4
ENDBRANCH  12  20
BRANCH  13  23
ATOM     23  C   UNL     1     -15.411   9.629  22.216  0.00  0.00    +0.106 C 
BRANCH  23  24
ATOM      5  O   UNL     1     -17.560   8.992  21.366  0.00  0.00    -0.276 OA
ATOM      8  N   UNL     1     -17.233  11.245  21.808  0.00  0.00    -0.302 N 
ATOM     24  C   UNL     1     -16.830   9.907  21.756  0.00  0.00    +0.216 C 
BRANCH   8  26
ATOM     26  C   UNL     1     -18.565  11.677  21.402  0.00  0.00    +0.104 C 
ATOM     29  C   UNL     1     -19.387  12.130  22.591  0.00  0.00    +0.024 C 
ENDBRANCH   8  26
BRANCH   8  27
ATOM     27  C   UNL     1     -16.348  12.311  22.273  0.00  0.00    +0.104 C 
ATOM     30  C   UNL     1     -15.962  13.244  21.144  0.00  0.00    +0.024 C 
ENDBRANCH   8  27
ENDBRANCH  23  24
ENDBRANCH  13  23
TORSDOF 8
ENDMDL
MODEL 6
REMARK VINA RESULT:      -6.1     12.939     16.273
REMARK  Name = 7051070
REMARK  12 active torsions:
REMARK  status: ('A' for Active; 'I' for Inactive)
REMARK    1  A    between atoms: O_3  and  C_15
REMARK    2  A    between atoms: O_4  and  C_20
REMARK    3  A    between atoms: N_8  and  C_26
REMARK    4  A    between atoms: N_8  and  C_27
REMARK    5  A    between atoms: C_10  and  C_18
REMARK    6  A    between atoms: C_12  and  C_20
REMARK    7  A    between atoms: C_12  and  C_21
REMARK    8  A    between atoms: C_13  and  C_23
REMARK    9  A    between atoms: C_23  and  C_24
REMARK   10  A    between atoms: C_26  and  C_29
REMARK   11  A    between atoms: C_27  and  C_30
REMARK   12  A    between atoms: C_28  and  C_31
REMARK                            x       y       z     vdW  Elec       q    Type
REMARK                         _______ _______ _______ _____ _____    ______ ____
ROOT
ATOM      1  S   UNL     1      19.632  -5.953  20.294  0.00  0.00    -0.057 S 
ATOM      6  O   UNL     1      21.787  -9.877  21.569  0.00  0.00    -0.270 OA
ATOM      7  N   UNL     1      20.412  -7.367  22.315  0.00  0.00    -0.229 NA
ATOM      9  N   UNL     1      20.891  -8.246  20.123  0.00  0.00    -0.261 N 
ATOM     10  C   UNL     1      19.290  -4.476  24.606  0.00  0.00    -0.019 C 
ATOM     11  C   UNL     1      18.125  -4.036  23.613  0.00  0.00    +0.011 C 
ATOM     12  C   UNL     1      17.322  -2.731  23.984  0.00  0.00    +0.021 C 
ATOM     13  C   UNL     1      19.654  -6.000  24.295  0.00  0.00    +0.054 C 
ATOM     14  C   UNL     1      18.782  -4.383  26.069  0.00  0.00    +0.010 C 
ATOM     15  C   UNL     1      16.933  -2.780  25.489  0.00  0.00    +0.123 C 
ATOM     16  C   UNL     1      18.595  -4.083  22.130  0.00  0.00    +0.049 C 
ATOM     17  C   UNL     1      18.117  -3.057  26.408  0.00  0.00    +0.032 C 
ATOM     18  C   UNL     1      20.561  -3.604  24.465  0.00  0.00    +0.012 C 
ATOM     19  C   UNL     1      19.802  -6.231  22.813  0.00  0.00    +0.058 A 
ATOM     21  C   UNL     1      16.000  -2.699  23.166  0.00  0.00    +0.016 C 
ATOM     22  C   UNL     1      19.304  -5.367  21.859  0.00  0.00    +0.015 A 
ATOM     25  C   UNL     1      20.387  -7.324  21.000  0.00  0.00    +0.165 A 
ATOM     28  C   UNL     1      21.548  -9.445  20.447  0.00  0.00    +0.250 C 
ATOM     39  H   UNL     1      20.715  -8.017  19.149  0.00  0.00    +0.157 HD
ENDROOT
BRANCH  28  31
ATOM      2  F   UNL     1      23.125 -12.581  16.064  0.00  0.00    -0.205 F 
ATOM     31  C   UNL     1      21.966 -10.275  19.287  0.00  0.00    +0.037 A 
ATOM     32  C   UNL     1      21.089 -11.220  18.753  0.00  0.00    +0.016 A 
ATOM     33  C   UNL     1      23.235 -10.110  18.732  0.00  0.00    +0.016 A 
ATOM     34  C   UNL     1      21.480 -11.999  17.665  0.00  0.00    +0.039 A 
ATOM     35  C   UNL     1      23.626 -10.889  17.643  0.00  0.00    +0.039 A 
ATOM     36  C   UNL     1      22.748 -11.833  17.109  0.00  0.00    +0.123 A 
ENDBRANCH  28  31
BRANCH  15   3
ATOM      3  O   UNL     1      16.317  -1.556  25.890  0.00  0.00    -0.391 OA
ATOM     37  H   UNL     1      15.359  -1.649  25.751  0.00  0.00    +0.210 HD
ENDBRANCH  15   3
BRANCH  12  20
ATOM     20  C   UNL     1      18.051  -1.412  23.647  0.00  0.00    +0.165 C 
BRANCH  20   4
ATOM      4  O   UNL     1      17.497  -0.904  22.455  0.00  0.00    -0.394 OA
ATOM     38  H   UNL     1      17.991  -1.296  21.715  0.00  0.00    +0.209 HD
ENDBRANCH  20   4
ENDBRANCH  12  20
BRANCH  13  23
ATOM     23  C   UNL     1      20.864  -6.538  25.070  0.00  0.00    +0.106 C 
BRANCH  23  24
ATOM      5  O   UNL     1      19.528  -7.934  26.489  0.00  0.00    -0.276 OA
ATOM      8  N   UNL     1      21.479  -8.860  25.642  0.00  0.00    -0.302 N 
ATOM     24  C   UNL     1      20.548  -7.828  25.803  0.00  0.00    +0.216 C 
BRANCH   8  26
ATOM     26  C   UNL     1      21.321 -10.162  26.279  0.00  0.00    +0.104 C 
ATOM     29  C   UNL     1      21.089 -11.255  25.256  0.00  0.00    +0.024 C 
ENDBRANCH   8  26
BRANCH   8  27
ATOM     27  C   UNL     1      22.681  -8.709  24.825  0.00  0.00    +0.104 C 
ATOM     30  C   UNL     1      23.931  -8.663  25.679  0.00  0.00    +0.024 C 
ENDBRANCH   8  27
ENDBRANCH  23  24
ENDBRANCH  13  23
TORSDOF 8
ENDMDL
MODEL 7
REMARK VINA RESULT:      -6.0     29.420     33.580
REMARK  Name = 7051070
REMARK  12 active torsions:
REMARK  status: ('A' for Active; 'I' for Inactive)
REMARK    1  A    between atoms: O_3  and  C_15
REMARK    2  A    between atoms: O_4  and  C_20
REMARK    3  A    between atoms: N_8  and  C_26
REMARK    4  A    between atoms: N_8  and  C_27
REMARK    5  A    between atoms: C_10  and  C_18
REMARK    6  A    between atoms: C_12  and  C_20
REMARK    7  A    between atoms: C_12  and  C_21
REMARK    8  A    between atoms: C_13  and  C_23
REMARK    9  A    between atoms: C_23  and  C_24
REMARK   10  A    between atoms: C_26  and  C_29
REMARK   11  A    between atoms: C_27  and  C_30
REMARK   12  A    between atoms: C_28  and  C_31
REMARK                            x       y       z     vdW  Elec       q    Type
REMARK                         _______ _______ _______ _____ _____    ______ ____
ROOT
ATOM      1  S   UNL     1     -12.739   5.217  22.710  0.00  0.00    -0.057 S 
ATOM      6  O   UNL     1     -17.167   4.482  23.944  0.00  0.00    -0.270 OA
ATOM      7  N   UNL     1     -15.202   5.789  22.162  0.00  0.00    -0.229 NA
ATOM      9  N   UNL     1     -14.819   4.297  24.015  0.00  0.00    -0.261 N 
ATOM     10  C   UNL     1     -13.900   8.306  19.548  0.00  0.00    -0.019 C 
ATOM     11  C   UNL     1     -12.598   7.441  19.246  0.00  0.00    +0.011 C 
ATOM     12  C   UNL     1     -11.535   8.064  18.263  0.00  0.00    +0.021 C 
ATOM     13  C   UNL     1     -15.001   7.337  20.180  0.00  0.00    +0.054 C 
ATOM     14  C   UNL     1     -14.458   8.878  18.217  0.00  0.00    +0.010 C 
ATOM     15  C   UNL     1     -12.265   8.628  17.011  0.00  0.00    +0.123 C 
ATOM     16  C   UNL     1     -11.981   6.869  20.556  0.00  0.00    +0.049 C 
ATOM     17  C   UNL     1     -13.411   9.572  17.357  0.00  0.00    +0.032 C 
ATOM     18  C   UNL     1     -13.630   9.482  20.519  0.00  0.00    +0.012 C 
ATOM     19  C   UNL     1     -14.406   6.473  21.262  0.00  0.00    +0.058 A 
ATOM     21  C   UNL     1     -10.578   6.941  17.772  0.00  0.00    +0.016 C 
ATOM     22  C   UNL     1     -13.050   6.262  21.401  0.00  0.00    +0.015 A 
ATOM     25  C   UNL     1     -14.432   5.101  22.976  0.00  0.00    +0.165 A 
ATOM     28  C   UNL     1     -16.134   4.037  24.433  0.00  0.00    +0.250 C 
ATOM     39  H   UNL     1     -14.044   3.833  24.479  0.00  0.00    +0.157 HD
ENDROOT
BRANCH  28  31
ATOM      2  F   UNL     1     -16.625   0.483  28.753  0.00  0.00    -0.205 F 
ATOM     31  C   UNL     1     -16.265   3.097  25.577  0.00  0.00    +0.037 A 
ATOM     32  C   UNL     1     -16.641   1.772  25.352  0.00  0.00    +0.016 A 
ATOM     33  C   UNL     1     -16.011   3.538  26.875  0.00  0.00    +0.016 A 
ATOM     34  C   UNL     1     -16.763   0.890  26.425  0.00  0.00    +0.039 A 
ATOM     35  C   UNL     1     -16.133   2.655  27.948  0.00  0.00    +0.039 A 
ATOM     36  C   UNL     1     -16.508   1.330  27.723  0.00  0.00    +0.123 A 
ENDBRANCH  28  31
BRANCH  15   3
ATOM      3  O   UNL     1     -11.347   9.315  16.160  0.00  0.00    -0.391 OA
ATOM     37  H   UNL     1     -11.335  10.248  16.431  0.00  0.00    +0.210 HD
ENDBRANCH  15   3
BRANCH  12  20
ATOM     20  C   UNL     1     -10.625   9.137  18.899  0.00  0.00    +0.165 C 
BRANCH  20   4
ATOM      4  O   UNL     1      -9.465   9.247  18.105  0.00  0.00    -0.394 OA
ATOM     38  H   UNL     1      -8.891   8.494  18.325  0.00  0.00    +0.209 HD
ENDBRANCH  20   4
ENDBRANCH  12  20
BRANCH  13  23
ATOM     23  C   UNL     1     -16.273   8.047  20.664  0.00  0.00    +0.106 C 
BRANCH  23  24
ATOM      5  O   UNL     1     -17.844   6.366  19.990  0.00  0.00    -0.276 OA
ATOM      8  N   UNL     1     -18.234   8.527  19.242  0.00  0.00    -0.302 N 
ATOM     24  C   UNL     1     -17.514   7.554  19.944  0.00  0.00    +0.216 C 
BRANCH   8  26
ATOM     26  C   UNL     1     -19.449   8.216  18.499  0.00  0.00    +0.104 C 
ATOM     29  C   UNL     1     -19.146   7.898  17.049  0.00  0.00    +0.024 C 
ENDBRANCH   8  26
BRANCH   8  27
ATOM     27  C   UNL     1     -17.821   9.928  19.201  0.00  0.00    +0.104 C 
ATOM     30  C   UNL     1     -18.683  10.788  20.101  0.00  0.00    +0.024 C 
ENDBRANCH   8  27
ENDBRANCH  23  24
ENDBRANCH  13  23
TORSDOF 8
ENDMDL
MODEL 8
REMARK VINA RESULT:      -5.9     30.428     32.841
REMARK  Name = 7051070
REMARK  12 active torsions:
REMARK  status: ('A' for Active; 'I' for Inactive)
REMARK    1  A    between atoms: O_3  and  C_15
REMARK    2  A    between atoms: O_4  and  C_20
REMARK    3  A    between atoms: N_8  and  C_26
REMARK    4  A    between atoms: N_8  and  C_27
REMARK    5  A    between atoms: C_10  and  C_18
REMARK    6  A    between atoms: C_12  and  C_20
REMARK    7  A    between atoms: C_12  and  C_21
REMARK    8  A    between atoms: C_13  and  C_23
REMARK    9  A    between atoms: C_23  and  C_24
REMARK   10  A    between atoms: C_26  and  C_29
REMARK   11  A    between atoms: C_27  and  C_30
REMARK   12  A    between atoms: C_28  and  C_31
REMARK                            x       y       z     vdW  Elec       q    Type
REMARK                         _______ _______ _______ _____ _____    ______ ____
ROOT
ATOM      1  S   UNL     1      -4.588 -12.380  12.094  0.00  0.00    -0.057 S 
ATOM      6  O   UNL     1      -7.290  -9.621  14.696  0.00  0.00    -0.270 OA
ATOM      7  N   UNL     1      -6.441 -10.576  12.027  0.00  0.00    -0.229 NA
ATOM      9  N   UNL     1      -5.650 -11.242  14.204  0.00  0.00    -0.261 N 
ATOM     10  C   UNL     1      -6.089 -10.540   8.188  0.00  0.00    -0.019 C 
ATOM     11  C   UNL     1      -5.675 -12.077   8.133  0.00  0.00    +0.011 C 
ATOM     12  C   UNL     1      -5.259 -12.657   6.727  0.00  0.00    +0.021 C 
ATOM     13  C   UNL     1      -6.872 -10.290   9.558  0.00  0.00    +0.054 C 
ATOM     14  C   UNL     1      -7.050 -10.223   7.012  0.00  0.00    +0.010 C 
ATOM     15  C   UNL     1      -6.299 -12.208   5.661  0.00  0.00    +0.123 C 
ATOM     16  C   UNL     1      -4.684 -12.439   9.278  0.00  0.00    +0.049 C 
ATOM     17  C   UNL     1      -6.546 -10.703   5.658  0.00  0.00    +0.032 C 
ATOM     18  C   UNL     1      -4.873  -9.585   8.107  0.00  0.00    +0.012 C 
ATOM     19  C   UNL     1      -6.143 -10.914  10.721  0.00  0.00    +0.058 A 
ATOM     21  C   UNL     1      -5.300 -14.210   6.787  0.00  0.00    +0.016 C 
ATOM     22  C   UNL     1      -5.179 -11.889  10.574  0.00  0.00    +0.015 A 
ATOM     25  C   UNL     1      -5.679 -11.279  12.836  0.00  0.00    +0.165 A 
ATOM     28  C   UNL     1      -6.438 -10.434  15.041  0.00  0.00    +0.250 C 
ATOM     39  H   UNL     1      -5.005 -11.910  14.614  0.00  0.00    +0.157 HD
ENDROOT
BRANCH  28  31
ATOM      2  F   UNL     1      -5.608 -11.141  20.549  0.00  0.00    -0.205 F 
ATOM     31  C   UNL     1      -6.219 -10.622  16.498  0.00  0.00    +0.037 A 
ATOM     32  C   UNL     1      -4.945 -10.926  16.979  0.00  0.00    +0.016 A 
ATOM     33  C   UNL     1      -7.287 -10.494  17.387  0.00  0.00    +0.016 A 
ATOM     34  C   UNL     1      -4.739 -11.101  18.347  0.00  0.00    +0.039 A 
ATOM     35  C   UNL     1      -7.080 -10.669  18.755  0.00  0.00    +0.039 A 
ATOM     36  C   UNL     1      -5.806 -10.972  19.236  0.00  0.00    +0.123 A 
ENDBRANCH  28  31
BRANCH  15   3
ATOM      3  O   UNL     1      -5.885 -12.607   4.354  0.00  0.00    -0.391 OA
ATOM     37  H   UNL     1      -5.095 -12.089   4.124  0.00  0.00    +0.210 HD
ENDBRANCH  15   3
BRANCH  12  20
ATOM     20  C   UNL     1      -3.825 -12.295   6.283  0.00  0.00    +0.165 C 
BRANCH  20   4
ATOM      4  O   UNL     1      -3.271 -13.426   5.649  0.00  0.00    -0.394 OA
ATOM     38  H   UNL     1      -3.829 -13.630   4.880  0.00  0.00    +0.209 HD
ENDBRANCH  20   4
ENDBRANCH  12  20
BRANCH  13  23
ATOM     23  C   UNL     1      -7.217  -8.820   9.836  0.00  0.00    +0.106 C 
BRANCH  23  24
ATOM      5  O   UNL     1      -9.472  -9.226  10.542  0.00  0.00    -0.276 OA
ATOM      8  N   UNL     1      -9.152  -7.565   8.955  0.00  0.00    -0.302 N 
ATOM     24  C   UNL     1      -8.713  -8.570   9.823  0.00  0.00    +0.216 C 
BRANCH   8  26
ATOM     26  C   UNL     1     -10.559  -7.204   8.825  0.00  0.00    +0.104 C 
ATOM     29  C   UNL     1     -10.803  -5.769   9.246  0.00  0.00    +0.024 C 
ENDBRANCH   8  26
BRANCH   8  27
ATOM     27  C   UNL     1      -8.234  -6.803   8.111  0.00  0.00    +0.104 C 
ATOM     30  C   UNL     1      -8.563  -6.967   6.642  0.00  0.00    +0.024 C 
ENDBRANCH   8  27
ENDBRANCH  23  24
ENDBRANCH  13  23
TORSDOF 8
ENDMDL
MODEL 9
REMARK VINA RESULT:      -5.9     30.907     35.258
REMARK  Name = 7051070
REMARK  12 active torsions:
REMARK  status: ('A' for Active; 'I' for Inactive)
REMARK    1  A    between atoms: O_3  and  C_15
REMARK    2  A    between atoms: O_4  and  C_20
REMARK    3  A    between atoms: N_8  and  C_26
REMARK    4  A    between atoms: N_8  and  C_27
REMARK    5  A    between atoms: C_10  and  C_18
REMARK    6  A    between atoms: C_12  and  C_20
REMARK    7  A    between atoms: C_12  and  C_21
REMARK    8  A    between atoms: C_13  and  C_23
REMARK    9  A    between atoms: C_23  and  C_24
REMARK   10  A    between atoms: C_26  and  C_29
REMARK   11  A    between atoms: C_27  and  C_30
REMARK   12  A    between atoms: C_28  and  C_31
REMARK                            x       y       z     vdW  Elec       q    Type
REMARK                         _______ _______ _______ _____ _____    ______ ____
ROOT
ATOM      1  S   UNL     1     -14.504  -8.490  17.070  0.00  0.00    -0.057 S 
ATOM      6  O   UNL     1     -11.323  -6.451  14.351  0.00  0.00    -0.270 OA
ATOM      7  N   UNL     1     -11.998  -8.444  16.430  0.00  0.00    -0.229 NA
ATOM      9  N   UNL     1     -13.443  -6.893  15.283  0.00  0.00    -0.261 N 
ATOM     10  C   UNL     1     -11.358 -10.968  19.273  0.00  0.00    -0.019 C 
ATOM     11  C   UNL     1     -12.797 -11.631  19.115  0.00  0.00    +0.011 C 
ATOM     12  C   UNL     1     -13.195 -12.737  20.166  0.00  0.00    +0.021 C 
ATOM     13  C   UNL     1     -11.000 -10.234  17.900  0.00  0.00    +0.054 C 
ATOM     14  C   UNL     1     -10.303 -12.079  19.523  0.00  0.00    +0.010 C 
ATOM     15  C   UNL     1     -12.015 -13.736  20.329  0.00  0.00    +0.123 C 
ATOM     16  C   UNL     1     -13.898 -10.553  18.893  0.00  0.00    +0.049 C 
ATOM     17  C   UNL     1     -10.685 -13.053  20.628  0.00  0.00    +0.032 C 
ATOM     18  C   UNL     1     -11.289  -9.948  20.435  0.00  0.00    +0.012 C 
ATOM     19  C   UNL     1     -12.159  -9.406  17.409  0.00  0.00    +0.058 A 
ATOM     21  C   UNL     1     -14.409 -13.541  19.621  0.00  0.00    +0.016 C 
ATOM     22  C   UNL     1     -13.454  -9.577  17.855  0.00  0.00    +0.015 A 
ATOM     25  C   UNL     1     -13.165  -7.891  16.177  0.00  0.00    +0.165 A 
ATOM     28  C   UNL     1     -12.529  -6.242  14.438  0.00  0.00    +0.250 C 
ATOM     39  H   UNL     1     -14.429  -6.657  15.232  0.00  0.00    +0.157 HD
ENDROOT
BRANCH  28  31
ATOM      2  F   UNL     1     -14.737  -2.349  11.046  0.00  0.00    -0.205 F 
ATOM     31  C   UNL     1     -13.113  -5.211  13.541  0.00  0.00    +0.037 A 
ATOM     32  C   UNL     1     -12.278  -4.393  12.780  0.00  0.00    +0.016 A 
ATOM     33  C   UNL     1     -14.498  -5.062  13.459  0.00  0.00    +0.016 A 
ATOM     34  C   UNL     1     -12.826  -3.426  11.938  0.00  0.00    +0.039 A 
ATOM     35  C   UNL     1     -15.046  -4.095  12.617  0.00  0.00    +0.039 A 
ATOM     36  C   UNL     1     -14.211  -3.277  11.855  0.00  0.00    +0.123 A 
ENDBRANCH  28  31
BRANCH  15   3
ATOM      3  O   UNL     1     -12.291 -14.677  21.367  0.00  0.00    -0.391 OA
ATOM     37  H   UNL     1     -11.441 -14.953  21.748  0.00  0.00    +0.210 HD
ENDBRANCH  15   3
BRANCH  12  20
ATOM     20  C   UNL     1     -13.643 -12.187  21.538  0.00  0.00    +0.165 C 
BRANCH  20   4
ATOM      4  O   UNL     1     -14.644 -13.043  22.041  0.00  0.00    -0.394 OA
ATOM     38  H   UNL     1     -15.297 -13.173  21.333  0.00  0.00    +0.209 HD
ENDBRANCH  20   4
ENDBRANCH  12  20
BRANCH  13  23
ATOM     23  C   UNL     1      -9.701  -9.418  17.933  0.00  0.00    +0.106 C 
BRANCH  23  24
ATOM      5  O   UNL     1      -8.954  -9.950  15.718  0.00  0.00    -0.276 OA
ATOM      8  N   UNL     1      -7.454 -10.319  17.447  0.00  0.00    -0.302 N 
ATOM     24  C   UNL     1      -8.685  -9.915  16.921  0.00  0.00    +0.216 C 
BRANCH   8  26
ATOM     26  C   UNL     1      -6.372 -10.821  16.608  0.00  0.00    +0.104 C 
ATOM     29  C   UNL     1      -5.360  -9.736  16.300  0.00  0.00    +0.024 C 
ENDBRANCH   8  26
BRANCH   8  27
ATOM     27  C   UNL     1      -7.159 -10.270  18.878  0.00  0.00    +0.104 C 
ATOM     30  C   UNL     1      -6.597 -11.585  19.375  0.00  0.00    +0.024 C 
ENDBRANCH   8  27
ENDBRANCH  23  24
ENDBRANCH  13  23
TORSDOF 8
ENDMDL
MODEL 10
REMARK VINA RESULT:      -5.9     29.118     33.284
REMARK  Name = 7051070
REMARK  12 active torsions:
REMARK  status: ('A' for Active; 'I' for Inactive)
REMARK    1  A    between atoms: O_3  and  C_15
REMARK    2  A    between atoms: O_4  and  C_20
REMARK    3  A    between atoms: N_8  and  C_26
REMARK    4  A    between atoms: N_8  and  C_27
REMARK    5  A    between atoms: C_10  and  C_18
REMARK    6  A    between atoms: C_12  and  C_20
REMARK    7  A    between atoms: C_12  and  C_21
REMARK    8  A    between atoms: C_13  and  C_23
REMARK    9  A    between atoms: C_23  and  C_24
REMARK   10  A    between atoms: C_26  and  C_29
REMARK   11  A    between atoms: C_27  and  C_30
REMARK   12  A    between atoms: C_28  and  C_31
REMARK                            x       y       z     vdW  Elec       q    Type
REMARK                         _______ _______ _______ _____ _____    ______ ____
ROOT
ATOM      1  S   UNL     1      -4.973 -10.032   8.174  0.00  0.00    -0.057 S 
ATOM      6  O   UNL     1      -6.284  -9.698  12.628  0.00  0.00    -0.270 OA
ATOM      7  N   UNL     1      -6.944  -9.474   9.753  0.00  0.00    -0.229 NA
ATOM      9  N   UNL     1      -4.859 -10.092  10.792  0.00  0.00    -0.261 N 
ATOM     10  C   UNL     1      -8.971  -8.430   6.645  0.00  0.00    -0.019 C 
ATOM     11  C   UNL     1      -8.225  -9.479   5.708  0.00  0.00    +0.011 C 
ATOM     12  C   UNL     1      -8.573  -9.441   4.170  0.00  0.00    +0.021 C 
ATOM     13  C   UNL     1      -8.817  -8.922   8.157  0.00  0.00    +0.054 C 
ATOM     14  C   UNL     1     -10.482  -8.406   6.290  0.00  0.00    +0.010 C 
ATOM     15  C   UNL     1     -10.116  -9.372   3.997  0.00  0.00    +0.123 C 
ATOM     16  C   UNL     1      -6.697  -9.519   6.004  0.00  0.00    +0.049 C 
ATOM     17  C   UNL     1     -10.763  -8.251   4.802  0.00  0.00    +0.032 C 
ATOM     18  C   UNL     1      -8.406  -6.995   6.510  0.00  0.00    +0.012 C 
ATOM     19  C   UNL     1      -7.394  -9.317   8.456  0.00  0.00    +0.058 A 
ATOM     21  C   UNL     1      -8.092 -10.764   3.509  0.00  0.00    +0.016 C 
ATOM     22  C   UNL     1      -6.465  -9.598   7.476  0.00  0.00    +0.015 A 
ATOM     25  C   UNL     1      -5.681  -9.841   9.727  0.00  0.00    +0.165 A 
ATOM     28  C   UNL     1      -5.197 -10.010  12.153  0.00  0.00    +0.250 C 
ATOM     39  H   UNL     1      -3.931 -10.404  10.524  0.00  0.00    +0.157 HD
ENDROOT
BRANCH  28  31
ATOM      2  F   UNL     1      -1.093 -11.365  15.738  0.00  0.00    -0.205 F 
ATOM     31  C   UNL     1      -4.111 -10.369  13.102  0.00  0.00    +0.037 A 
ATOM     32  C   UNL     1      -2.789 -10.423  12.661  0.00  0.00    +0.016 A 
ATOM     33  C   UNL     1      -4.414 -10.653  14.434  0.00  0.00    +0.016 A 
ATOM     34  C   UNL     1      -1.769 -10.759  13.552  0.00  0.00    +0.039 A 
ATOM     35  C   UNL     1      -3.394 -10.989  15.324  0.00  0.00    +0.039 A 
ATOM     36  C   UNL     1      -2.071 -11.042  14.884  0.00  0.00    +0.123 A 
ENDBRANCH  28  31
BRANCH  15   3
ATOM      3  O   UNL     1     -10.461  -9.207   2.621  0.00  0.00    -0.391 OA
ATOM     37  H   UNL     1     -11.217  -9.788   2.435  0.00  0.00    +0.210 HD
ENDBRANCH  15   3
BRANCH  12  20
ATOM     20  C   UNL     1      -7.879  -8.307   3.384  0.00  0.00    +0.165 C 
BRANCH  20   4
ATOM      4  O   UNL     1      -7.711  -8.743   2.055  0.00  0.00    -0.394 OA
ATOM     38  H   UNL     1      -7.823  -7.968   1.478  0.00  0.00    +0.209 HD
ENDBRANCH  20   4
ENDBRANCH  12  20
BRANCH  13  23
ATOM     23  C   UNL     1      -9.359  -7.941   9.205  0.00  0.00    +0.106 C 
BRANCH  23  24
ATOM      5  O   UNL     1     -10.622  -9.649  10.316  0.00  0.00    -0.276 OA
ATOM      8  N   UNL     1     -11.639  -7.578  10.081  0.00  0.00    -0.302 N 
ATOM     24  C   UNL     1     -10.585  -8.482   9.917  0.00  0.00    +0.216 C 
BRANCH   8  26
ATOM     26  C   UNL     1     -12.886  -7.942  10.745  0.00  0.00    +0.104 C 
ATOM     29  C   UNL     1     -12.913  -7.454  12.179  0.00  0.00    +0.024 C 
ENDBRANCH   8  26
BRANCH   8  27
ATOM     27  C   UNL     1     -11.572  -6.200   9.598  0.00  0.00    +0.104 C 
ATOM     30  C   UNL     1     -12.508  -5.974   8.429  0.00  0.00    +0.024 C 
ENDBRANCH   8  27
ENDBRANCH  23  24
ENDBRANCH  13  23
TORSDOF 8
ENDMDL
