MODEL 1
REMARK VINA RESULT:      -7.0      0.000      0.000
REMARK  Name = 7144220
REMARK  7 active torsions:
REMARK  status: ('A' for Active; 'I' for Inactive)
REMARK    1  A    between atoms: S_1  and  C_27
REMARK    2  A    between atoms: S_1  and  C_28
REMARK    3  A    between atoms: N_6  and  C_20
REMARK    4  A    between atoms: N_6  and  C_25
REMARK    5  A    between atoms: N_6  and  C_26
REMARK    6  A    between atoms: C_14  and  C_19
REMARK    7  A    between atoms: C_16  and  C_20
REMARK                            x       y       z     vdW  Elec       q    Type
REMARK                         _______ _______ _______ _____ _____    ______ ____
ROOT
ATOM      2  O   UNL     1      11.207   8.839  17.019  0.00  0.00    -0.268 OA
ATOM      3  O   UNL     1      11.264  12.196  21.683  0.00  0.00    -0.274 OA
ATOM      4  N   UNL     1      12.113  10.036  21.777  0.00  0.00    -0.299 N 
ATOM      5  N   UNL     1      12.192   8.341  19.085  0.00  0.00    -0.311 N 
ATOM      7  C   UNL     1      10.781   8.012  21.200  0.00  0.00    +0.027 C 
ATOM      8  C   UNL     1      13.231   7.858  21.324  0.00  0.00    +0.054 C 
ATOM      9  C   UNL     1      11.931   7.128  21.656  0.00  0.00    +0.018 C 
ATOM     10  C   UNL     1      10.819   9.371  21.919  0.00  0.00    +0.113 C 
ATOM     11  C   UNL     1      10.860   8.168  19.680  0.00  0.00    +0.130 C 
ATOM     12  C   UNL     1      13.278   9.197  22.089  0.00  0.00    +0.117 C 
ATOM     13  C   UNL     1      13.372   8.104  19.819  0.00  0.00    +0.034 A 
ATOM     14  C   UNL     1      14.576   8.128  19.190  0.00  0.00    +0.002 A 
ATOM     15  C   UNL     1      12.205   8.638  17.710  0.00  0.00    +0.252 A 
ATOM     16  C   UNL     1      12.163  11.387  21.436  0.00  0.00    +0.230 C 
ATOM     17  C   UNL     1      14.629   8.434  17.772  0.00  0.00    +0.015 A 
ATOM     18  C   UNL     1      13.534   8.692  17.059  0.00  0.00    +0.071 A 
ENDROOT
BRANCH  14  19
ATOM     19  C   UNL     1      15.839   7.867  19.914  0.00  0.00    -0.016 A 
ATOM     21  C   UNL     1      16.447   8.892  20.633  0.00  0.00    +0.009 A 
ATOM     22  C   UNL     1      16.411   6.599  19.870  0.00  0.00    +0.009 A 
ATOM     23  C   UNL     1      17.639   8.645  21.315  0.00  0.00    +0.015 A 
ATOM     24  C   UNL     1      17.603   6.354  20.553  0.00  0.00    +0.015 A 
ATOM     27  C   UNL     1      18.216   7.377  21.276  0.00  0.00    +0.008 A 
BRANCH  27   1
ATOM      1  S   UNL     1      19.739   7.064  22.147  0.00  0.00    -0.129 S 
ATOM     28  C   UNL     1      20.493   5.772  21.121  0.00  0.00    +0.090 C 
ENDBRANCH  27   1
ENDBRANCH  14  19
BRANCH  16  20
ATOM     20  C   UNL     1      13.400  11.857  20.713  0.00  0.00    +0.180 C 
BRANCH  20   6
ATOM      6  N   UNL     1      14.087  12.748  21.623  0.00  0.00    -0.300 NA
ATOM     25  C   UNL     1      14.134  14.114  21.087  0.00  0.00    +0.105 C 
ATOM     26  C   UNL     1      15.450  12.274  21.896  0.00  0.00    +0.105 C 
ENDBRANCH  20   6
ENDBRANCH  16  20
TORSDOF 4
ENDMDL
MODEL 2
REMARK VINA RESULT:      -6.1     14.629     17.510
REMARK  Name = 7144220
REMARK  7 active torsions:
REMARK  status: ('A' for Active; 'I' for Inactive)
REMARK    1  A    between atoms: S_1  and  C_27
REMARK    2  A    between atoms: S_1  and  C_28
REMARK    3  A    between atoms: N_6  and  C_20
REMARK    4  A    between atoms: N_6  and  C_25
REMARK    5  A    between atoms: N_6  and  C_26
REMARK    6  A    between atoms: C_14  and  C_19
REMARK    7  A    between atoms: C_16  and  C_20
REMARK                            x       y       z     vdW  Elec       q    Type
REMARK                         _______ _______ _______ _____ _____    ______ ____
ROOT
ATOM      2  O   UNL     1      10.600   6.147   8.314  0.00  0.00    -0.268 OA
ATOM      3  O   UNL     1      10.649  11.129   5.451  0.00  0.00    -0.274 OA
ATOM      4  N   UNL     1      11.927   9.335   4.713  0.00  0.00    -0.299 N 
ATOM      5  N   UNL     1      11.675   6.575   6.277  0.00  0.00    -0.311 N 
ATOM      7  C   UNL     1      13.646   8.207   6.118  0.00  0.00    +0.027 C 
ATOM      8  C   UNL     1      12.810   7.092   4.094  0.00  0.00    +0.054 C 
ATOM      9  C   UNL     1      14.063   7.361   4.925  0.00  0.00    +0.018 C 
ATOM     10  C   UNL     1      13.027   9.536   5.655  0.00  0.00    +0.113 C 
ATOM     11  C   UNL     1      12.676   7.393   6.976  0.00  0.00    +0.130 C 
ATOM     12  C   UNL     1      12.227   8.431   3.596  0.00  0.00    +0.117 C 
ATOM     13  C   UNL     1      11.757   6.320   4.893  0.00  0.00    +0.034 A 
ATOM     14  C   UNL     1      10.899   5.439   4.317  0.00  0.00    +0.002 A 
ATOM     15  C   UNL     1      10.708   5.971   7.100  0.00  0.00    +0.252 A 
ATOM     16  C   UNL     1      10.734  10.037   4.883  0.00  0.00    +0.230 C 
ATOM     17  C   UNL     1       9.885   4.798   5.133  0.00  0.00    +0.015 A 
ATOM     18  C   UNL     1       9.764   5.042   6.438  0.00  0.00    +0.071 A 
ENDROOT
BRANCH  14  19
ATOM     19  C   UNL     1      10.958   5.125   2.872  0.00  0.00    -0.016 A 
ATOM     21  C   UNL     1      11.805   4.119   2.418  0.00  0.00    +0.009 A 
ATOM     22  C   UNL     1      10.168   5.840   1.977  0.00  0.00    +0.009 A 
ATOM     23  C   UNL     1      11.861   3.824   1.056  0.00  0.00    +0.015 A 
ATOM     24  C   UNL     1      10.224   5.544   0.615  0.00  0.00    +0.015 A 
ATOM     27  C   UNL     1      11.070   4.536   0.154  0.00  0.00    +0.008 A 
BRANCH  27   1
ATOM      1  S   UNL     1      11.144   4.159  -1.585  0.00  0.00    -0.129 S 
ATOM     28  C   UNL     1      12.418   2.868  -1.631  0.00  0.00    +0.090 C 
ENDBRANCH  27   1
ENDBRANCH  14  19
BRANCH  16  20
ATOM     20  C   UNL     1       9.485   9.391   4.338  0.00  0.00    +0.180 C 
BRANCH  20   6
ATOM      6  N   UNL     1       8.449   9.618   5.321  0.00  0.00    -0.300 NA
ATOM     25  C   UNL     1       8.293   8.453   6.201  0.00  0.00    +0.105 C 
ATOM     26  C   UNL     1       7.168   9.929   4.674  0.00  0.00    +0.105 C 
ENDBRANCH  20   6
ENDBRANCH  16  20
TORSDOF 4
ENDMDL
MODEL 3
REMARK VINA RESULT:      -6.1      3.071      4.814
REMARK  Name = 7144220
REMARK  7 active torsions:
REMARK  status: ('A' for Active; 'I' for Inactive)
REMARK    1  A    between atoms: S_1  and  C_27
REMARK    2  A    between atoms: S_1  and  C_28
REMARK    3  A    between atoms: N_6  and  C_20
REMARK    4  A    between atoms: N_6  and  C_25
REMARK    5  A    between atoms: N_6  and  C_26
REMARK    6  A    between atoms: C_14  and  C_19
REMARK    7  A    between atoms: C_16  and  C_20
REMARK                            x       y       z     vdW  Elec       q    Type
REMARK                         _______ _______ _______ _____ _____    ______ ____
ROOT
ATOM      2  O   UNL     1      10.928   7.077  20.820  0.00  0.00    -0.268 OA
ATOM      3  O   UNL     1      14.667  10.564  23.443  0.00  0.00    -0.274 OA
ATOM      4  N   UNL     1      15.235   9.513  21.451  0.00  0.00    -0.299 N 
ATOM      5  N   UNL     1      13.016   7.752  20.001  0.00  0.00    -0.311 N 
ATOM      7  C   UNL     1      15.198   7.041  21.145  0.00  0.00    +0.027 C 
ATOM      8  C   UNL     1      15.267   8.508  19.174  0.00  0.00    +0.054 C 
ATOM      9  C   UNL     1      15.808   7.205  19.762  0.00  0.00    +0.018 C 
ATOM     10  C   UNL     1      15.576   8.224  22.052  0.00  0.00    +0.113 C 
ATOM     11  C   UNL     1      13.683   6.898  20.995  0.00  0.00    +0.130 C 
ATOM     12  C   UNL     1      15.695   9.691  20.067  0.00  0.00    +0.117 C 
ATOM     13  C   UNL     1      13.743   8.474  19.033  0.00  0.00    +0.034 A 
ATOM     14  C   UNL     1      13.083   9.129  18.043  0.00  0.00    +0.002 A 
ATOM     15  C   UNL     1      11.611   7.702  20.008  0.00  0.00    +0.252 A 
ATOM     16  C   UNL     1      14.585  10.482  22.214  0.00  0.00    +0.230 C 
ATOM     17  C   UNL     1      11.632   9.103  18.018  0.00  0.00    +0.015 A 
ATOM     18  C   UNL     1      10.918   8.454  18.937  0.00  0.00    +0.071 A 
ENDROOT
BRANCH  14  19
ATOM     19  C   UNL     1      13.803   9.884  16.994  0.00  0.00    -0.016 A 
ATOM     21  C   UNL     1      13.985  11.257  17.134  0.00  0.00    +0.009 A 
ATOM     22  C   UNL     1      14.291   9.218  15.874  0.00  0.00    +0.009 A 
ATOM     23  C   UNL     1      14.664  11.969  16.144  0.00  0.00    +0.015 A 
ATOM     24  C   UNL     1      14.970   9.931  14.885  0.00  0.00    +0.015 A 
ATOM     27  C   UNL     1      15.156  11.306  15.021  0.00  0.00    +0.008 A 
BRANCH  27   1
ATOM      1  S   UNL     1      16.021  12.217  13.757  0.00  0.00    -0.129 S 
ATOM     28  C   UNL     1      17.732  12.147  14.357  0.00  0.00    +0.090 C 
ENDBRANCH  27   1
ENDBRANCH  14  19
BRANCH  16  20
ATOM     20  C   UNL     1      13.728  11.471  21.465  0.00  0.00    +0.180 C 
BRANCH  20   6
ATOM      6  N   UNL     1      12.554  11.689  22.281  0.00  0.00    -0.300 NA
ATOM     25  C   UNL     1      11.401  10.950  21.753  0.00  0.00    +0.105 C 
ATOM     26  C   UNL     1      12.231  13.120  22.367  0.00  0.00    +0.105 C 
ENDBRANCH  20   6
ENDBRANCH  16  20
TORSDOF 4
ENDMDL
MODEL 4
REMARK VINA RESULT:      -5.9     14.284     17.106
REMARK  Name = 7144220
REMARK  7 active torsions:
REMARK  status: ('A' for Active; 'I' for Inactive)
REMARK    1  A    between atoms: S_1  and  C_27
REMARK    2  A    between atoms: S_1  and  C_28
REMARK    3  A    between atoms: N_6  and  C_20
REMARK    4  A    between atoms: N_6  and  C_25
REMARK    5  A    between atoms: N_6  and  C_26
REMARK    6  A    between atoms: C_14  and  C_19
REMARK    7  A    between atoms: C_16  and  C_20
REMARK                            x       y       z     vdW  Elec       q    Type
REMARK                         _______ _______ _______ _____ _____    ______ ____
ROOT
ATOM      2  O   UNL     1       7.072   9.495   4.882  0.00  0.00    -0.268 OA
ATOM      3  O   UNL     1      12.128   9.585   7.612  0.00  0.00    -0.274 OA
ATOM      4  N   UNL     1      11.358   7.629   6.626  0.00  0.00    -0.299 N 
ATOM      5  N   UNL     1       8.632   7.751   4.988  0.00  0.00    -0.311 N 
ATOM      7  C   UNL     1       9.177   6.571   7.198  0.00  0.00    +0.027 C 
ATOM      8  C   UNL     1      10.341   5.913   5.136  0.00  0.00    +0.054 C 
ATOM      9  C   UNL     1       9.523   5.384   6.312  0.00  0.00    +0.018 C 
ATOM     10  C   UNL     1      10.452   7.258   7.713  0.00  0.00    +0.113 C 
ATOM     11  C   UNL     1       8.292   7.531   6.401  0.00  0.00    +0.130 C 
ATOM     12  C   UNL     1      11.641   6.556   5.663  0.00  0.00    +0.117 C 
ATOM     13  C   UNL     1       9.549   6.925   4.306  0.00  0.00    +0.034 A 
ATOM     14  C   UNL     1       9.719   7.069   2.965  0.00  0.00    +0.002 A 
ATOM     15  C   UNL     1       7.894   8.757   4.339  0.00  0.00    +0.252 A 
ATOM     16  C   UNL     1      11.929   8.901   6.606  0.00  0.00    +0.230 C 
ATOM     17  C   UNL     1       8.977   8.098   2.262  0.00  0.00    +0.015 A 
ATOM     18  C   UNL     1       8.126   8.913   2.885  0.00  0.00    +0.071 A 
ENDROOT
BRANCH  14  19
ATOM     19  C   UNL     1      10.655   6.214   2.203  0.00  0.00    -0.016 A 
ATOM     21  C   UNL     1      11.948   6.662   1.948  0.00  0.00    +0.009 A 
ATOM     22  C   UNL     1      10.237   4.968   1.745  0.00  0.00    +0.009 A 
ATOM     23  C   UNL     1      12.830   5.856   1.229  0.00  0.00    +0.015 A 
ATOM     24  C   UNL     1      11.120   4.162   1.026  0.00  0.00    +0.015 A 
ATOM     27  C   UNL     1      12.417   4.606   0.768  0.00  0.00    +0.008 A 
BRANCH  27   1
ATOM      1  S   UNL     1      13.545   3.578  -0.151  0.00  0.00    -0.129 S 
ATOM     28  C   UNL     1      15.127   3.953   0.653  0.00  0.00    +0.090 C 
ENDBRANCH  27   1
ENDBRANCH  14  19
BRANCH  16  20
ATOM     20  C   UNL     1      12.309   9.450   5.254  0.00  0.00    +0.180 C 
BRANCH  20   6
ATOM      6  N   UNL     1      13.708   9.807   5.339  0.00  0.00    -0.300 NA
ATOM     25  C   UNL     1      13.975  11.064   4.631  0.00  0.00    +0.105 C 
ATOM     26  C   UNL     1      14.558   8.739   4.796  0.00  0.00    +0.105 C 
ENDBRANCH  20   6
ENDBRANCH  16  20
TORSDOF 4
ENDMDL
MODEL 5
REMARK VINA RESULT:      -5.8     26.728     29.436
REMARK  Name = 7144220
REMARK  7 active torsions:
REMARK  status: ('A' for Active; 'I' for Inactive)
REMARK    1  A    between atoms: S_1  and  C_27
REMARK    2  A    between atoms: S_1  and  C_28
REMARK    3  A    between atoms: N_6  and  C_20
REMARK    4  A    between atoms: N_6  and  C_25
REMARK    5  A    between atoms: N_6  and  C_26
REMARK    6  A    between atoms: C_14  and  C_19
REMARK    7  A    between atoms: C_16  and  C_20
REMARK                            x       y       z     vdW  Elec       q    Type
REMARK                         _______ _______ _______ _____ _____    ______ ____
ROOT
ATOM      2  O   UNL     1      -0.901 -10.944  15.569  0.00  0.00    -0.268 OA
ATOM      3  O   UNL     1      -4.914 -14.826  16.927  0.00  0.00    -0.274 OA
ATOM      4  N   UNL     1      -5.525 -12.712  16.185  0.00  0.00    -0.299 N 
ATOM      5  N   UNL     1      -3.215 -10.714  15.290  0.00  0.00    -0.311 N 
ATOM      7  C   UNL     1      -4.803 -10.605  17.300  0.00  0.00    +0.027 C 
ATOM      8  C   UNL     1      -5.707 -10.521  15.016  0.00  0.00    +0.054 C 
ATOM      9  C   UNL     1      -5.699  -9.806  16.366  0.00  0.00    +0.018 C 
ATOM     10  C   UNL     1      -5.332 -12.039  17.469  0.00  0.00    +0.113 C 
ATOM     11  C   UNL     1      -3.378 -10.583  16.745  0.00  0.00    +0.130 C 
ATOM     12  C   UNL     1      -6.284 -11.941  15.191  0.00  0.00    +0.117 C 
ATOM     13  C   UNL     1      -4.305 -10.591  14.405  0.00  0.00    +0.034 A 
ATOM     14  C   UNL     1      -4.088 -10.568  13.065  0.00  0.00    +0.002 A 
ATOM     15  C   UNL     1      -1.889 -10.847  14.842  0.00  0.00    +0.252 A 
ATOM     16  C   UNL     1      -5.059 -14.014  16.010  0.00  0.00    +0.230 C 
ATOM     17  C   UNL     1      -2.733 -10.707  12.563  0.00  0.00    +0.015 A 
ATOM     18  C   UNL     1      -1.686 -10.855  13.375  0.00  0.00    +0.071 A 
ENDROOT
BRANCH  14  19
ATOM     19  C   UNL     1      -5.197 -10.423  12.098  0.00  0.00    -0.016 A 
ATOM     21  C   UNL     1      -5.659  -9.154  11.762  0.00  0.00    +0.009 A 
ATOM     22  C   UNL     1      -5.773 -11.556  11.531  0.00  0.00    +0.009 A 
ATOM     23  C   UNL     1      -6.706  -9.017  10.850  0.00  0.00    +0.015 A 
ATOM     24  C   UNL     1      -6.821 -11.419  10.620  0.00  0.00    +0.015 A 
ATOM     27  C   UNL     1      -7.286 -10.150  10.279  0.00  0.00    +0.008 A 
BRANCH  27   1
ATOM      1  S   UNL     1      -8.624  -9.974   9.115  0.00  0.00    -0.129 S 
ATOM     28  C   UNL     1      -9.003  -8.205   9.252  0.00  0.00    +0.090 C 
ENDBRANCH  27   1
ENDBRANCH  14  19
BRANCH  16  20
ATOM     20  C   UNL     1      -4.711 -14.424  14.601  0.00  0.00    +0.180 C 
BRANCH  20   6
ATOM      6  N   UNL     1      -3.498 -15.206  14.694  0.00  0.00    -0.300 NA
ATOM     25  C   UNL     1      -2.345 -14.452  14.186  0.00  0.00    +0.105 C 
ATOM     26  C   UNL     1      -3.628 -16.471  13.960  0.00  0.00    +0.105 C 
ENDBRANCH  20   6
ENDBRANCH  16  20
TORSDOF 4
ENDMDL
MODEL 6
REMARK VINA RESULT:      -5.7      3.401      5.082
REMARK  Name = 7144220
REMARK  7 active torsions:
REMARK  status: ('A' for Active; 'I' for Inactive)
REMARK    1  A    between atoms: S_1  and  C_27
REMARK    2  A    between atoms: S_1  and  C_28
REMARK    3  A    between atoms: N_6  and  C_20
REMARK    4  A    between atoms: N_6  and  C_25
REMARK    5  A    between atoms: N_6  and  C_26
REMARK    6  A    between atoms: C_14  and  C_19
REMARK    7  A    between atoms: C_16  and  C_20
REMARK                            x       y       z     vdW  Elec       q    Type
REMARK                         _______ _______ _______ _____ _____    ______ ____
ROOT
ATOM      2  O   UNL     1      11.925   6.632  19.321  0.00  0.00    -0.268 OA
ATOM      3  O   UNL     1      12.393  10.748  23.304  0.00  0.00    -0.274 OA
ATOM      4  N   UNL     1      14.052  10.464  21.704  0.00  0.00    -0.299 N 
ATOM      5  N   UNL     1      13.593   8.273  19.442  0.00  0.00    -0.311 N 
ATOM      7  C   UNL     1      15.284   8.325  21.369  0.00  0.00    +0.027 C 
ATOM      8  C   UNL     1      15.358  10.054  19.624  0.00  0.00    +0.054 C 
ATOM      9  C   UNL     1      16.194   9.009  20.360  0.00  0.00    +0.018 C 
ATOM     10  C   UNL     1      14.716   9.344  22.371  0.00  0.00    +0.113 C 
ATOM     11  C   UNL     1      14.177   7.594  20.608  0.00  0.00    +0.130 C 
ATOM     12  C   UNL     1      14.834  11.097  20.633  0.00  0.00    +0.117 C 
ATOM     13  C   UNL     1      14.189   9.414  18.870  0.00  0.00    +0.034 A 
ATOM     14  C   UNL     1      13.703   9.919  17.707  0.00  0.00    +0.002 A 
ATOM     15  C   UNL     1      12.476   7.637  18.871  0.00  0.00    +0.252 A 
ATOM     16  C   UNL     1      12.802  10.892  22.149  0.00  0.00    +0.230 C 
ATOM     17  C   UNL     1      12.549   9.292  17.089  0.00  0.00    +0.015 A 
ATOM     18  C   UNL     1      11.945   8.231  17.622  0.00  0.00    +0.071 A 
ENDROOT
BRANCH  14  19
ATOM     19  C   UNL     1      14.306  11.104  17.058  0.00  0.00    -0.016 A 
ATOM     21  C   UNL     1      15.210  10.934  16.014  0.00  0.00    +0.009 A 
ATOM     22  C   UNL     1      13.968  12.380  17.498  0.00  0.00    +0.009 A 
ATOM     23  C   UNL     1      15.780  12.052  15.403  0.00  0.00    +0.015 A 
ATOM     24  C   UNL     1      14.538  13.497  16.887  0.00  0.00    +0.015 A 
ATOM     27  C   UNL     1      15.443  13.333  15.839  0.00  0.00    +0.008 A 
BRANCH  27   1
ATOM      1  S   UNL     1      16.172  14.759  15.059  0.00  0.00    -0.129 S 
ATOM     28  C   UNL     1      16.926  14.027  13.580  0.00  0.00    +0.090 C 
ENDBRANCH  27   1
ENDBRANCH  14  19
BRANCH  16  20
ATOM     20  C   UNL     1      11.914  11.561  21.130  0.00  0.00    +0.180 C 
BRANCH  20   6
ATOM      6  N   UNL     1      11.886  12.965  21.476  0.00  0.00    -0.300 NA
ATOM     25  C   UNL     1      10.603  13.331  22.088  0.00  0.00    +0.105 C 
ATOM     26  C   UNL     1      12.131  13.804  20.295  0.00  0.00    +0.105 C 
ENDBRANCH  20   6
ENDBRANCH  16  20
TORSDOF 4
ENDMDL
MODEL 7
REMARK VINA RESULT:      -5.7      2.309      3.227
REMARK  Name = 7144220
REMARK  7 active torsions:
REMARK  status: ('A' for Active; 'I' for Inactive)
REMARK    1  A    between atoms: S_1  and  C_27
REMARK    2  A    between atoms: S_1  and  C_28
REMARK    3  A    between atoms: N_6  and  C_20
REMARK    4  A    between atoms: N_6  and  C_25
REMARK    5  A    between atoms: N_6  and  C_26
REMARK    6  A    between atoms: C_14  and  C_19
REMARK    7  A    between atoms: C_16  and  C_20
REMARK                            x       y       z     vdW  Elec       q    Type
REMARK                         _______ _______ _______ _____ _____    ______ ____
ROOT
ATOM      2  O   UNL     1      12.298   8.605  16.779  0.00  0.00    -0.268 OA
ATOM      3  O   UNL     1      10.168   9.189  22.084  0.00  0.00    -0.274 OA
ATOM      4  N   UNL     1      12.389   8.590  21.767  0.00  0.00    -0.299 N 
ATOM      5  N   UNL     1      13.499   8.477  18.787  0.00  0.00    -0.311 N 
ATOM      7  C   UNL     1      13.098   6.585  20.470  0.00  0.00    +0.027 C 
ATOM      8  C   UNL     1      14.736   8.347  20.972  0.00  0.00    +0.054 C 
ATOM      9  C   UNL     1      14.541   6.835  20.876  0.00  0.00    +0.018 C 
ATOM     10  C   UNL     1      12.129   7.174  21.509  0.00  0.00    +0.113 C 
ATOM     11  C   UNL     1      12.874   7.179  19.078  0.00  0.00    +0.130 C 
ATOM     12  C   UNL     1      13.792   8.919  22.051  0.00  0.00    +0.117 C 
ATOM     13  C   UNL     1      14.482   9.036  19.628  0.00  0.00    +0.034 A 
ATOM     14  C   UNL     1      15.140  10.160  19.244  0.00  0.00    +0.002 A 
ATOM     15  C   UNL     1      13.138   9.057  17.558  0.00  0.00    +0.252 A 
ATOM     16  C   UNL     1      11.328   9.494  21.798  0.00  0.00    +0.230 C 
ATOM     17  C   UNL     1      14.793  10.790  17.984  0.00  0.00    +0.015 A 
ATOM     18  C   UNL     1      13.847  10.302  17.181  0.00  0.00    +0.071 A 
ENDROOT
BRANCH  14  19
ATOM     19  C   UNL     1      16.192  10.773  20.085  0.00  0.00    -0.016 A 
ATOM     21  C   UNL     1      17.301  10.020  20.461  0.00  0.00    +0.009 A 
ATOM     22  C   UNL     1      16.064  12.096  20.496  0.00  0.00    +0.009 A 
ATOM     23  C   UNL     1      18.292  10.599  21.254  0.00  0.00    +0.015 A 
ATOM     24  C   UNL     1      17.056  12.674  21.289  0.00  0.00    +0.015 A 
ATOM     27  C   UNL     1      18.170  11.925  21.668  0.00  0.00    +0.008 A 
BRANCH  27   1
ATOM      1  S   UNL     1      19.436  12.661  22.682  0.00  0.00    -0.129 S 
ATOM     28  C   UNL     1      20.940  12.243  21.757  0.00  0.00    +0.090 C 
ENDBRANCH  27   1
ENDBRANCH  14  19
BRANCH  16  20
ATOM     20  C   UNL     1      11.649  10.925  21.444  0.00  0.00    +0.180 C 
BRANCH  20   6
ATOM      6  N   UNL     1      11.082  11.739  22.497  0.00  0.00    -0.300 NA
ATOM     25  C   UNL     1      10.916  13.129  22.056  0.00  0.00    +0.105 C 
ATOM     26  C   UNL     1      11.919  11.697  23.704  0.00  0.00    +0.105 C 
ENDBRANCH  20   6
ENDBRANCH  16  20
TORSDOF 4
ENDMDL
MODEL 8
REMARK VINA RESULT:      -5.5      2.830      4.406
REMARK  Name = 7144220
REMARK  7 active torsions:
REMARK  status: ('A' for Active; 'I' for Inactive)
REMARK    1  A    between atoms: S_1  and  C_27
REMARK    2  A    between atoms: S_1  and  C_28
REMARK    3  A    between atoms: N_6  and  C_20
REMARK    4  A    between atoms: N_6  and  C_25
REMARK    5  A    between atoms: N_6  and  C_26
REMARK    6  A    between atoms: C_14  and  C_19
REMARK    7  A    between atoms: C_16  and  C_20
REMARK                            x       y       z     vdW  Elec       q    Type
REMARK                         _______ _______ _______ _____ _____    ______ ____
ROOT
ATOM      2  O   UNL     1      11.818   7.398  17.204  0.00  0.00    -0.268 OA
ATOM      3  O   UNL     1      11.464   8.826  22.759  0.00  0.00    -0.274 OA
ATOM      4  N   UNL     1      13.486   8.989  21.629  0.00  0.00    -0.299 N 
ATOM      5  N   UNL     1      13.515   8.345  18.512  0.00  0.00    -0.311 N 
ATOM      7  C   UNL     1      14.569   7.069  20.470  0.00  0.00    +0.027 C 
ATOM      8  C   UNL     1      15.300   9.360  19.964  0.00  0.00    +0.054 C 
ATOM      9  C   UNL     1      15.790   7.930  20.187  0.00  0.00    +0.018 C 
ATOM     10  C   UNL     1      13.825   7.569  21.720  0.00  0.00    +0.113 C 
ATOM     11  C   UNL     1      13.672   7.073  19.231  0.00  0.00    +0.130 C 
ATOM     12  C   UNL     1      14.598   9.867  21.241  0.00  0.00    +0.117 C 
ATOM     13  C   UNL     1      14.350   9.451  18.767  0.00  0.00    +0.034 A 
ATOM     14  C   UNL     1      14.270  10.554  17.977  0.00  0.00    +0.002 A 
ATOM     15  C   UNL     1      12.562   8.340  17.479  0.00  0.00    +0.252 A 
ATOM     16  C   UNL     1      12.203   9.417  21.968  0.00  0.00    +0.230 C 
ATOM     17  C   UNL     1      13.296  10.587  16.902  0.00  0.00    +0.015 A 
ATOM     18  C   UNL     1      12.473   9.568  16.656  0.00  0.00    +0.071 A 
ENDROOT
BRANCH  14  19
ATOM     19  C   UNL     1      15.138  11.732  18.193  0.00  0.00    -0.016 A 
ATOM     21  C   UNL     1      14.778  12.691  19.135  0.00  0.00    +0.009 A 
ATOM     22  C   UNL     1      16.307  11.874  17.452  0.00  0.00    +0.009 A 
ATOM     23  C   UNL     1      15.597  13.802  19.338  0.00  0.00    +0.015 A 
ATOM     24  C   UNL     1      17.126  12.986  17.655  0.00  0.00    +0.015 A 
ATOM     27  C   UNL     1      16.771  13.949  18.599  0.00  0.00    +0.008 A 
BRANCH  27   1
ATOM      1  S   UNL     1      17.814  15.370  18.859  0.00  0.00    -0.129 S 
ATOM     28  C   UNL     1      17.957  15.399  20.667  0.00  0.00    +0.090 C 
ENDBRANCH  27   1
ENDBRANCH  14  19
BRANCH  16  20
ATOM     20  C   UNL     1      11.713  10.678  21.302  0.00  0.00    +0.180 C 
BRANCH  20   6
ATOM      6  N   UNL     1      11.331  11.577  22.369  0.00  0.00    -0.300 NA
ATOM     25  C   UNL     1      10.903  12.876  21.836  0.00  0.00    +0.105 C 
ATOM     26  C   UNL     1      12.437  11.769  23.317  0.00  0.00    +0.105 C 
ENDBRANCH  20   6
ENDBRANCH  16  20
TORSDOF 4
ENDMDL
MODEL 9
REMARK VINA RESULT:      -5.5     27.924     30.720
REMARK  Name = 7144220
REMARK  7 active torsions:
REMARK  status: ('A' for Active; 'I' for Inactive)
REMARK    1  A    between atoms: S_1  and  C_27
REMARK    2  A    between atoms: S_1  and  C_28
REMARK    3  A    between atoms: N_6  and  C_20
REMARK    4  A    between atoms: N_6  and  C_25
REMARK    5  A    between atoms: N_6  and  C_26
REMARK    6  A    between atoms: C_14  and  C_19
REMARK    7  A    between atoms: C_16  and  C_20
REMARK                            x       y       z     vdW  Elec       q    Type
REMARK                         _______ _______ _______ _____ _____    ______ ____
ROOT
ATOM      2  O   UNL     1     -10.405 -11.807  20.459  0.00  0.00    -0.268 OA
ATOM      3  O   UNL     1     -12.015 -11.906  14.943  0.00  0.00    -0.274 OA
ATOM      4  N   UNL     1     -10.223 -10.595  15.623  0.00  0.00    -0.299 N 
ATOM      5  N   UNL     1      -9.313 -10.765  18.668  0.00  0.00    -0.311 N 
ATOM      7  C   UNL     1     -10.399  -8.834  17.377  0.00  0.00    +0.027 C 
ATOM      8  C   UNL     1      -8.184  -9.665  16.709  0.00  0.00    +0.054 C 
ATOM      9  C   UNL     1      -8.967  -8.410  17.092  0.00  0.00    +0.018 C 
ATOM     10  C   UNL     1     -11.031  -9.489  16.137  0.00  0.00    +0.113 C 
ATOM     11  C   UNL     1     -10.397  -9.776  18.582  0.00  0.00    +0.130 C 
ATOM     12  C   UNL     1      -8.799 -10.285  15.437  0.00  0.00    +0.117 C 
ATOM     13  C   UNL     1      -8.172 -10.691  17.845  0.00  0.00    +0.034 A 
ATOM     14  C   UNL     1      -7.128 -11.534  18.060  0.00  0.00    +0.002 A 
ATOM     15  C   UNL     1      -9.439 -11.708  19.703  0.00  0.00    +0.252 A 
ATOM     16  C   UNL     1     -10.835 -11.802  15.289  0.00  0.00    +0.230 C 
ATOM     17  C   UNL     1      -7.222 -12.524  19.117  0.00  0.00    +0.015 A 
ATOM     18  C   UNL     1      -8.301 -12.637  19.892  0.00  0.00    +0.071 A 
ENDROOT
BRANCH  14  19
ATOM     19  C   UNL     1      -5.902 -11.483  17.234  0.00  0.00    -0.016 A 
ATOM     21  C   UNL     1      -4.897 -10.573  17.547  0.00  0.00    +0.009 A 
ATOM     22  C   UNL     1      -5.763 -12.344  16.149  0.00  0.00    +0.009 A 
ATOM     23  C   UNL     1      -3.741 -10.525  16.767  0.00  0.00    +0.015 A 
ATOM     24  C   UNL     1      -4.607 -12.295  15.370  0.00  0.00    +0.015 A 
ATOM     27  C   UNL     1      -3.595 -11.386  15.680  0.00  0.00    +0.008 A 
BRANCH  27   1
ATOM      1  S   UNL     1      -2.119 -11.322  14.684  0.00  0.00    -0.129 S 
ATOM     28  C   UNL     1      -1.061 -10.220  15.662  0.00  0.00    +0.090 C 
ENDBRANCH  27   1
ENDBRANCH  14  19
BRANCH  16  20
ATOM     20  C   UNL     1      -9.979 -13.040  15.373  0.00  0.00    +0.180 C 
BRANCH  20   6
ATOM      6  N   UNL     1     -10.810 -14.068  15.962  0.00  0.00    -0.300 NA
ATOM     25  C   UNL     1     -10.349 -14.408  17.313  0.00  0.00    +0.105 C 
ATOM     26  C   UNL     1     -10.829 -15.274  15.124  0.00  0.00    +0.105 C 
ENDBRANCH  20   6
ENDBRANCH  16  20
TORSDOF 4
ENDMDL
MODEL 10
REMARK VINA RESULT:      -5.4     26.633     29.494
REMARK  Name = 7144220
REMARK  7 active torsions:
REMARK  status: ('A' for Active; 'I' for Inactive)
REMARK    1  A    between atoms: S_1  and  C_27
REMARK    2  A    between atoms: S_1  and  C_28
REMARK    3  A    between atoms: N_6  and  C_20
REMARK    4  A    between atoms: N_6  and  C_25
REMARK    5  A    between atoms: N_6  and  C_26
REMARK    6  A    between atoms: C_14  and  C_19
REMARK    7  A    between atoms: C_16  and  C_20
REMARK                            x       y       z     vdW  Elec       q    Type
REMARK                         _______ _______ _______ _____ _____    ______ ____
ROOT
ATOM      2  O   UNL     1      -1.816 -10.667  16.709  0.00  0.00    -0.268 OA
ATOM      3  O   UNL     1      -5.674 -14.878  16.076  0.00  0.00    -0.274 OA
ATOM      4  N   UNL     1      -5.956 -12.850  14.982  0.00  0.00    -0.299 N 
ATOM      5  N   UNL     1      -3.660 -10.664  15.266  0.00  0.00    -0.311 N 
ATOM      7  C   UNL     1      -6.063 -10.658  16.160  0.00  0.00    +0.027 C 
ATOM      8  C   UNL     1      -5.657 -10.714  13.737  0.00  0.00    +0.054 C 
ATOM      9  C   UNL     1      -6.398  -9.970  14.847  0.00  0.00    +0.018 C 
ATOM     10  C   UNL     1      -6.503 -12.131  16.132  0.00  0.00    +0.113 C 
ATOM     11  C   UNL     1      -4.562 -10.514  16.417  0.00  0.00    +0.130 C 
ATOM     12  C   UNL     1      -6.142 -12.178  13.688  0.00  0.00    +0.117 C 
ATOM     13  C   UNL     1      -4.140 -10.666  13.940  0.00  0.00    +0.034 A 
ATOM     14  C   UNL     1      -3.262 -10.654  12.904  0.00  0.00    +0.002 A 
ATOM     15  C   UNL     1      -2.288 -10.682  15.572  0.00  0.00    +0.252 A 
ATOM     16  C   UNL     1      -5.379 -14.106  15.161  0.00  0.00    +0.230 C 
ATOM     17  C   UNL     1      -1.837 -10.676  13.181  0.00  0.00    +0.015 A 
ATOM     18  C   UNL     1      -1.355 -10.705  14.423  0.00  0.00    +0.071 A 
ENDROOT
BRANCH  14  19
ATOM     19  C   UNL     1      -3.717 -10.637  11.497  0.00  0.00    -0.016 A 
ATOM     21  C   UNL     1      -3.960  -9.422  10.864  0.00  0.00    +0.009 A 
ATOM     22  C   UNL     1      -3.900 -11.837  10.815  0.00  0.00    +0.009 A 
ATOM     23  C   UNL     1      -4.390  -9.406   9.537  0.00  0.00    +0.015 A 
ATOM     24  C   UNL     1      -4.331 -11.821   9.488  0.00  0.00    +0.015 A 
ATOM     27  C   UNL     1      -4.575 -10.605   8.849  0.00  0.00    +0.008 A 
BRANCH  27   1
ATOM      1  S   UNL     1      -5.125 -10.584   7.155  0.00  0.00    -0.129 S 
ATOM     28  C   UNL     1      -6.665  -9.632   7.277  0.00  0.00    +0.090 C 
ENDBRANCH  27   1
ENDBRANCH  14  19
BRANCH  16  20
ATOM     20  C   UNL     1      -4.324 -14.514  14.163  0.00  0.00    +0.180 C 
BRANCH  20   6
ATOM      6  N   UNL     1      -4.694 -15.833  13.699  0.00  0.00    -0.300 NA
ATOM     25  C   UNL     1      -3.514 -16.698  13.577  0.00  0.00    +0.105 C 
ATOM     26  C   UNL     1      -5.393 -15.761  12.409  0.00  0.00    +0.105 C 
ENDBRANCH  20   6
ENDBRANCH  16  20
TORSDOF 4
ENDMDL
