MODEL 1
REMARK VINA RESULT:      -6.9      0.000      0.000
REMARK  Name = 11912794
REMARK  12 active torsions:
REMARK  status: ('A' for Active; 'I' for Inactive)
REMARK    1  A    between atoms: O_4  and  C_24
REMARK    2  A    between atoms: O_6  and  C_33
REMARK    3  A    between atoms: O_6  and  C_34
REMARK    4  A    between atoms: N_7  and  C_13
REMARK    5  A    between atoms: N_8  and  C_14
REMARK    6  A    between atoms: C_17  and  C_18
REMARK    7  A    between atoms: C_18  and  C_19
REMARK    8  A    between atoms: C_19  and  C_21
REMARK    9  A    between atoms: C_19  and  C_22
REMARK   10  A    between atoms: C_19  and  C_23
REMARK   11  A    between atoms: C_21  and  C_24
REMARK   12  A    between atoms: C_25  and  C_28
REMARK                            x       y       z     vdW  Elec       q    Type
REMARK                         _______ _______ _______ _____ _____    ______ ____
ROOT
ATOM      1  O   UNL     1     -12.220  -7.893  14.386  0.00  0.00    -0.370 OA
ATOM      2  O   UNL     1     -11.009  -6.251  16.747  0.00  0.00    -0.370 OA
ATOM     11  C   UNL     1     -10.894  -6.151  15.318  0.00  0.00    +0.171 C 
ATOM     12  C   UNL     1     -10.874  -7.564  14.768  0.00  0.00    +0.171 C 
ATOM     13  C   UNL     1     -12.148  -5.545  14.730  0.00  0.00    +0.130 C 
ATOM     14  C   UNL     1     -10.440  -8.411  15.940  0.00  0.00    +0.130 C 
ATOM     15  C   UNL     1     -13.062  -6.751  14.604  0.00  0.00    +0.185 C 
ATOM     16  C   UNL     1     -10.975  -7.633  17.129  0.00  0.00    +0.185 C 
ENDROOT
BRANCH  14   8
ATOM      8  N   UNL     1      -8.996  -8.478  15.995  0.00  0.00    -0.306 N 
ATOM      9  N   UNL     1      -9.039 -10.130  17.626  0.00  0.00    -0.214 NA
ATOM     10  N   UNL     1      -6.956  -9.278  16.764  0.00  0.00    -0.223 NA
ATOM     20  C   UNL     1      -8.301  -9.332  16.832  0.00  0.00    +0.216 A 
ATOM     25  C   UNL     1      -8.330 -10.950  18.429  0.00  0.00    +0.076 A 
ATOM     26  C   UNL     1      -6.311 -10.124  17.594  0.00  0.00    +0.116 A 
ATOM     27  C   UNL     1      -6.951 -10.991  18.456  0.00  0.00    +0.048 A 
ATOM     36  H   UNL     1      -8.446  -7.913  15.357  0.00  0.00    +0.149 HD
BRANCH  25  28
ATOM     28  C   UNL     1      -9.118 -11.807  19.282  0.00  0.00    +0.001 A 
ATOM     29  C   UNL     1      -8.574 -12.996  19.768  0.00  0.00    +0.013 A 
ATOM     30  C   UNL     1     -10.423 -11.447  19.620  0.00  0.00    +0.013 A 
ATOM     31  C   UNL     1      -9.335 -13.825  20.591  0.00  0.00    +0.046 A 
ATOM     32  C   UNL     1     -11.184 -12.277  20.443  0.00  0.00    +0.046 A 
ATOM     33  C   UNL     1     -10.640 -13.466  20.929  0.00  0.00    +0.120 A 
BRANCH  33   6
ATOM      6  O   UNL     1     -11.381 -14.275  21.734  0.00  0.00    -0.495 OA
ATOM     34  C   UNL     1     -12.800 -14.155  21.645  0.00  0.00    +0.277 C 
ENDBRANCH  33   6
ENDBRANCH  25  28
ENDBRANCH  14   8
BRANCH  13   7
ATOM      3  O   UNL     1     -13.721  -3.528  13.410  0.00  0.00    -0.276 OA
ATOM      7  N   UNL     1     -11.886  -4.950  13.442  0.00  0.00    -0.308 N 
ATOM     17  C   UNL     1     -12.704  -3.982  12.886  0.00  0.00    +0.214 C 
ATOM     35  H   UNL     1     -11.037  -5.222  12.954  0.00  0.00    +0.149 HD
BRANCH  17  18
ATOM     18  C   UNL     1     -12.224  -3.503  11.526  0.00  0.00    +0.102 C 
BRANCH  18  19
ATOM     19  C   UNL     1     -13.070  -3.999  10.326  0.00  0.00    -0.017 C 
ATOM     22  C   UNL     1     -14.295  -3.068  10.191  0.00  0.00    +0.012 C 
ATOM     23  C   UNL     1     -13.602  -5.423  10.594  0.00  0.00    +0.012 C 
BRANCH  19  21
ATOM     21  C   UNL     1     -12.275  -4.028   8.999  0.00  0.00    +0.127 C 
BRANCH  21  24
ATOM      5  O   UNL     1     -10.548  -5.690   9.346  0.00  0.00    -0.251 OA
ATOM     24  C   UNL     1     -10.851  -4.525   9.123  0.00  0.00    +0.305 C 
BRANCH  24   4
ATOM      4  O   UNL     1      -9.934  -3.538   8.969  0.00  0.00    -0.481 OA
ATOM     37  H   UNL     1      -9.379  -3.676   8.171  0.00  0.00    +0.295 HD
ENDBRANCH  24   4
ENDBRANCH  21  24
ENDBRANCH  19  21
ENDBRANCH  18  19
ENDBRANCH  17  18
ENDBRANCH  13   7
TORSDOF 9
ENDMDL
MODEL 2
REMARK VINA RESULT:      -6.9      7.165      8.823
REMARK  Name = 11912794
REMARK  12 active torsions:
REMARK  status: ('A' for Active; 'I' for Inactive)
REMARK    1  A    between atoms: O_4  and  C_24
REMARK    2  A    between atoms: O_6  and  C_33
REMARK    3  A    between atoms: O_6  and  C_34
REMARK    4  A    between atoms: N_7  and  C_13
REMARK    5  A    between atoms: N_8  and  C_14
REMARK    6  A    between atoms: C_17  and  C_18
REMARK    7  A    between atoms: C_18  and  C_19
REMARK    8  A    between atoms: C_19  and  C_21
REMARK    9  A    between atoms: C_19  and  C_22
REMARK   10  A    between atoms: C_19  and  C_23
REMARK   11  A    between atoms: C_21  and  C_24
REMARK   12  A    between atoms: C_25  and  C_28
REMARK                            x       y       z     vdW  Elec       q    Type
REMARK                         _______ _______ _______ _____ _____    ______ ____
ROOT
ATOM      1  O   UNL     1      -6.362 -11.621  10.527  0.00  0.00    -0.370 OA
ATOM      2  O   UNL     1      -5.172  -8.738  10.641  0.00  0.00    -0.370 OA
ATOM     11  C   UNL     1      -4.865  -9.899   9.851  0.00  0.00    +0.171 C 
ATOM     12  C   UNL     1      -5.036 -11.111  10.746  0.00  0.00    +0.171 C 
ATOM     13  C   UNL     1      -5.906 -10.090   8.771  0.00  0.00    +0.130 C 
ATOM     14  C   UNL     1      -4.912 -10.557  12.146  0.00  0.00    +0.130 C 
ATOM     15  C   UNL     1      -7.001 -10.841   9.505  0.00  0.00    +0.185 C 
ATOM     16  C   UNL     1      -5.438  -9.142  11.992  0.00  0.00    +0.185 C 
ENDROOT
BRANCH  14   8
ATOM      8  N   UNL     1      -3.522 -10.533  12.548  0.00  0.00    -0.306 N 
ATOM      9  N   UNL     1      -4.073 -10.630  14.801  0.00  0.00    -0.214 NA
ATOM     10  N   UNL     1      -1.776 -10.543  14.078  0.00  0.00    -0.223 NA
ATOM     20  C   UNL     1      -3.106 -10.570  13.866  0.00  0.00    +0.216 A 
ATOM     25  C   UNL     1      -3.633 -10.664  16.076  0.00  0.00    +0.076 A 
ATOM     26  C   UNL     1      -1.405 -10.580  15.375  0.00  0.00    +0.116 A 
ATOM     27  C   UNL     1      -2.298 -10.642  16.426  0.00  0.00    +0.048 A 
ATOM     36  H   UNL     1      -2.798 -10.542  11.838  0.00  0.00    +0.149 HD
BRANCH  25  28
ATOM     28  C   UNL     1      -4.666 -10.729  17.080  0.00  0.00    +0.001 A 
ATOM     29  C   UNL     1      -4.429 -11.400  18.281  0.00  0.00    +0.013 A 
ATOM     30  C   UNL     1      -5.901 -10.122  16.853  0.00  0.00    +0.013 A 
ATOM     31  C   UNL     1      -5.427 -11.464  19.252  0.00  0.00    +0.046 A 
ATOM     32  C   UNL     1      -6.900 -10.186  17.825  0.00  0.00    +0.046 A 
ATOM     33  C   UNL     1      -6.663 -10.857  19.024  0.00  0.00    +0.120 A 
BRANCH  33   6
ATOM      6  O   UNL     1      -7.636 -10.918  19.974  0.00  0.00    -0.495 OA
ATOM     34  C   UNL     1      -8.924 -11.365  19.555  0.00  0.00    +0.277 C 
ENDBRANCH  33   6
ENDBRANCH  25  28
ENDBRANCH  14   8
BRANCH  13   7
ATOM      3  O   UNL     1      -6.272  -9.577   5.963  0.00  0.00    -0.276 OA
ATOM      7  N   UNL     1      -5.382 -10.868   7.675  0.00  0.00    -0.308 N 
ATOM     17  C   UNL     1      -5.613 -10.542   6.349  0.00  0.00    +0.214 C 
ATOM     35  H   UNL     1      -4.779 -11.656   7.893  0.00  0.00    +0.149 HD
BRANCH  17  18
ATOM     18  C   UNL     1      -4.958 -11.505   5.373  0.00  0.00    +0.102 C 
BRANCH  18  19
ATOM     19  C   UNL     1      -5.700 -12.854   5.194  0.00  0.00    -0.017 C 
ATOM     22  C   UNL     1      -5.510 -13.310   3.731  0.00  0.00    +0.012 C 
ATOM     23  C   UNL     1      -7.215 -12.670   5.426  0.00  0.00    +0.012 C 
BRANCH  19  21
ATOM     21  C   UNL     1      -5.199 -13.951   6.163  0.00  0.00    +0.127 C 
BRANCH  21  24
ATOM      5  O   UNL     1      -2.802 -14.088   5.840  0.00  0.00    -0.251 OA
ATOM     24  C   UNL     1      -3.747 -13.822   6.571  0.00  0.00    +0.305 C 
BRANCH  24   4
ATOM      4  O   UNL     1      -3.595 -13.383   7.846  0.00  0.00    -0.481 OA
ATOM     37  H   UNL     1      -2.665 -13.136   8.039  0.00  0.00    +0.295 HD
ENDBRANCH  24   4
ENDBRANCH  21  24
ENDBRANCH  19  21
ENDBRANCH  18  19
ENDBRANCH  17  18
ENDBRANCH  13   7
TORSDOF 9
ENDMDL
MODEL 3
REMARK VINA RESULT:      -6.8      7.926     12.719
REMARK  Name = 11912794
REMARK  12 active torsions:
REMARK  status: ('A' for Active; 'I' for Inactive)
REMARK    1  A    between atoms: O_4  and  C_24
REMARK    2  A    between atoms: O_6  and  C_33
REMARK    3  A    between atoms: O_6  and  C_34
REMARK    4  A    between atoms: N_7  and  C_13
REMARK    5  A    between atoms: N_8  and  C_14
REMARK    6  A    between atoms: C_17  and  C_18
REMARK    7  A    between atoms: C_18  and  C_19
REMARK    8  A    between atoms: C_19  and  C_21
REMARK    9  A    between atoms: C_19  and  C_22
REMARK   10  A    between atoms: C_19  and  C_23
REMARK   11  A    between atoms: C_21  and  C_24
REMARK   12  A    between atoms: C_25  and  C_28
REMARK                            x       y       z     vdW  Elec       q    Type
REMARK                         _______ _______ _______ _____ _____    ______ ____
ROOT
ATOM      1  O   UNL     1      -2.637 -12.890  12.648  0.00  0.00    -0.370 OA
ATOM      2  O   UNL     1      -1.858  -9.932  13.268  0.00  0.00    -0.370 OA
ATOM     11  C   UNL     1      -2.873 -10.810  13.781  0.00  0.00    +0.171 C 
ATOM     12  C   UNL     1      -3.368 -11.652  12.621  0.00  0.00    +0.171 C 
ATOM     13  C   UNL     1      -2.267 -11.816  14.733  0.00  0.00    +0.130 C 
ATOM     14  C   UNL     1      -2.996 -10.850  11.397  0.00  0.00    +0.130 C 
ATOM     15  C   UNL     1      -1.766 -12.895  13.789  0.00  0.00    +0.185 C 
ATOM     16  C   UNL     1      -1.750 -10.112  11.849  0.00  0.00    +0.185 C 
ENDROOT
BRANCH  14   8
ATOM      8  N   UNL     1      -4.049  -9.909  11.082  0.00  0.00    -0.306 N 
ATOM      9  N   UNL     1      -4.338 -10.796   8.957  0.00  0.00    -0.214 NA
ATOM     10  N   UNL     1      -5.674  -8.947   9.731  0.00  0.00    -0.223 NA
ATOM     20  C   UNL     1      -4.716  -9.883   9.871  0.00  0.00    +0.216 A 
ATOM     25  C   UNL     1      -5.007 -10.743   7.786  0.00  0.00    +0.076 A 
ATOM     26  C   UNL     1      -6.303  -8.949   8.538  0.00  0.00    +0.116 A 
ATOM     27  C   UNL     1      -6.010  -9.833   7.518  0.00  0.00    +0.048 A 
ATOM     36  H   UNL     1      -4.365  -9.259  11.794  0.00  0.00    +0.149 HD
BRANCH  25  28
ATOM     28  C   UNL     1      -4.606 -11.721   6.804  0.00  0.00    +0.001 A 
ATOM     29  C   UNL     1      -4.021 -12.919   7.213  0.00  0.00    +0.013 A 
ATOM     30  C   UNL     1      -4.803 -11.468   5.446  0.00  0.00    +0.013 A 
ATOM     31  C   UNL     1      -3.632 -13.864   6.265  0.00  0.00    +0.046 A 
ATOM     32  C   UNL     1      -4.414 -12.415   4.498  0.00  0.00    +0.046 A 
ATOM     33  C   UNL     1      -3.829 -13.612   4.907  0.00  0.00    +0.120 A 
BRANCH  33   6
ATOM      6  O   UNL     1      -3.451 -14.536   3.982  0.00  0.00    -0.495 OA
ATOM     34  C   UNL     1      -3.656 -14.203   2.610  0.00  0.00    +0.277 C 
ENDBRANCH  33   6
ENDBRANCH  25  28
ENDBRANCH  14   8
BRANCH  13   7
ATOM      3  O   UNL     1      -3.533 -10.401  16.895  0.00  0.00    -0.276 OA
ATOM      7  N   UNL     1      -3.258 -12.336  15.643  0.00  0.00    -0.308 N 
ATOM     17  C   UNL     1      -3.813 -11.575  16.658  0.00  0.00    +0.214 C 
ATOM     35  H   UNL     1      -3.595 -13.284  15.494  0.00  0.00    +0.149 HD
BRANCH  17  18
ATOM     18  C   UNL     1      -4.837 -12.336  17.485  0.00  0.00    +0.102 C 
BRANCH  18  19
ATOM     19  C   UNL     1      -6.295 -11.831  17.339  0.00  0.00    -0.017 C 
ATOM     22  C   UNL     1      -7.237 -12.957  17.818  0.00  0.00    +0.012 C 
ATOM     23  C   UNL     1      -6.623 -11.555  15.856  0.00  0.00    +0.012 C 
BRANCH  19  21
ATOM     21  C   UNL     1      -6.566 -10.534  18.138  0.00  0.00    +0.127 C 
BRANCH  21  24
ATOM      5  O   UNL     1      -6.072 -11.129  20.433  0.00  0.00    -0.251 OA
ATOM     24  C   UNL     1      -6.885 -10.746  19.602  0.00  0.00    +0.305 C 
BRANCH  24   4
ATOM      4  O   UNL     1      -8.179 -10.472  19.904  0.00  0.00    -0.481 OA
ATOM     37  H   UNL     1      -8.695 -11.289  20.075  0.00  0.00    +0.295 HD
ENDBRANCH  24   4
ENDBRANCH  21  24
ENDBRANCH  19  21
ENDBRANCH  18  19
ENDBRANCH  17  18
ENDBRANCH  13   7
TORSDOF 9
ENDMDL
MODEL 4
REMARK VINA RESULT:      -6.8      7.340      9.035
REMARK  Name = 11912794
REMARK  12 active torsions:
REMARK  status: ('A' for Active; 'I' for Inactive)
REMARK    1  A    between atoms: O_4  and  C_24
REMARK    2  A    between atoms: O_6  and  C_33
REMARK    3  A    between atoms: O_6  and  C_34
REMARK    4  A    between atoms: N_7  and  C_13
REMARK    5  A    between atoms: N_8  and  C_14
REMARK    6  A    between atoms: C_17  and  C_18
REMARK    7  A    between atoms: C_18  and  C_19
REMARK    8  A    between atoms: C_19  and  C_21
REMARK    9  A    between atoms: C_19  and  C_22
REMARK   10  A    between atoms: C_19  and  C_23
REMARK   11  A    between atoms: C_21  and  C_24
REMARK   12  A    between atoms: C_25  and  C_28
REMARK                            x       y       z     vdW  Elec       q    Type
REMARK                         _______ _______ _______ _____ _____    ______ ____
ROOT
ATOM      1  O   UNL     1      -5.977 -11.711  10.335  0.00  0.00    -0.370 OA
ATOM      2  O   UNL     1      -4.801  -8.822  10.448  0.00  0.00    -0.370 OA
ATOM     11  C   UNL     1      -4.449 -10.000   9.703  0.00  0.00    +0.171 C 
ATOM     12  C   UNL     1      -4.666 -11.192  10.615  0.00  0.00    +0.171 C 
ATOM     13  C   UNL     1      -5.428 -10.220   8.572  0.00  0.00    +0.130 C 
ATOM     14  C   UNL     1      -4.620 -10.605  12.006  0.00  0.00    +0.130 C 
ATOM     15  C   UNL     1      -6.561 -10.957   9.262  0.00  0.00    +0.185 C 
ATOM     16  C   UNL     1      -5.141  -9.196  11.790  0.00  0.00    +0.185 C 
ENDROOT
BRANCH  14   8
ATOM      8  N   UNL     1      -3.255 -10.568  12.483  0.00  0.00    -0.306 N 
ATOM      9  N   UNL     1      -3.929 -10.620  14.704  0.00  0.00    -0.214 NA
ATOM     10  N   UNL     1      -1.596 -10.539  14.107  0.00  0.00    -0.223 NA
ATOM     20  C   UNL     1      -2.912 -10.576  13.823  0.00  0.00    +0.216 A 
ATOM     25  C   UNL     1      -3.559 -10.627  16.002  0.00  0.00    +0.076 A 
ATOM     26  C   UNL     1      -1.297 -10.548  15.423  0.00  0.00    +0.116 A 
ATOM     27  C   UNL     1      -2.246 -10.592  16.424  0.00  0.00    +0.048 A 
ATOM     36  H   UNL     1      -2.493 -10.588  11.814  0.00  0.00    +0.149 HD
BRANCH  25  28
ATOM     28  C   UNL     1      -4.646 -10.676  16.949  0.00  0.00    +0.001 A 
ATOM     29  C   UNL     1      -4.488 -11.357  18.157  0.00  0.00    +0.013 A 
ATOM     30  C   UNL     1      -5.855 -10.042  16.660  0.00  0.00    +0.013 A 
ATOM     31  C   UNL     1      -5.538 -11.406  19.072  0.00  0.00    +0.046 A 
ATOM     32  C   UNL     1      -6.905 -10.090  17.577  0.00  0.00    +0.046 A 
ATOM     33  C   UNL     1      -6.746 -10.772  18.783  0.00  0.00    +0.120 A 
BRANCH  33   6
ATOM      6  O   UNL     1      -7.770 -10.818  19.679  0.00  0.00    -0.495 OA
ATOM     34  C   UNL     1      -8.700 -11.891  19.546  0.00  0.00    +0.277 C 
ENDBRANCH  33   6
ENDBRANCH  25  28
ENDBRANCH  14   8
BRANCH  13   7
ATOM      3  O   UNL     1      -6.305 -10.387   5.836  0.00  0.00    -0.276 OA
ATOM      7  N   UNL     1      -4.844 -11.021   7.524  0.00  0.00    -0.308 N 
ATOM     17  C   UNL     1      -5.338 -11.037   6.231  0.00  0.00    +0.214 C 
ATOM     35  H   UNL     1      -4.005 -11.553   7.741  0.00  0.00    +0.149 HD
BRANCH  17  18
ATOM     18  C   UNL     1      -4.557 -11.953   5.304  0.00  0.00    +0.102 C 
BRANCH  18  19
ATOM     19  C   UNL     1      -5.209 -13.337   5.055  0.00  0.00    -0.017 C 
ATOM     22  C   UNL     1      -5.755 -13.854   6.404  0.00  0.00    +0.012 C 
ATOM     23  C   UNL     1      -4.152 -14.351   4.568  0.00  0.00    +0.012 C 
BRANCH  19  21
ATOM     21  C   UNL     1      -6.344 -13.289   4.005  0.00  0.00    +0.127 C 
BRANCH  21  24
ATOM      5  O   UNL     1      -5.344 -12.597   1.910  0.00  0.00    -0.251 OA
ATOM     24  C   UNL     1      -6.095 -12.349   2.845  0.00  0.00    +0.305 C 
BRANCH  24   4
ATOM      4  O   UNL     1      -6.789 -11.188   2.949  0.00  0.00    -0.481 OA
ATOM     37  H   UNL     1      -7.176 -10.916   2.089  0.00  0.00    +0.295 HD
ENDBRANCH  24   4
ENDBRANCH  21  24
ENDBRANCH  19  21
ENDBRANCH  18  19
ENDBRANCH  17  18
ENDBRANCH  13   7
TORSDOF 9
ENDMDL
MODEL 5
REMARK VINA RESULT:      -6.7      4.356      8.566
REMARK  Name = 11912794
REMARK  12 active torsions:
REMARK  status: ('A' for Active; 'I' for Inactive)
REMARK    1  A    between atoms: O_4  and  C_24
REMARK    2  A    between atoms: O_6  and  C_33
REMARK    3  A    between atoms: O_6  and  C_34
REMARK    4  A    between atoms: N_7  and  C_13
REMARK    5  A    between atoms: N_8  and  C_14
REMARK    6  A    between atoms: C_17  and  C_18
REMARK    7  A    between atoms: C_18  and  C_19
REMARK    8  A    between atoms: C_19  and  C_21
REMARK    9  A    between atoms: C_19  and  C_22
REMARK   10  A    between atoms: C_19  and  C_23
REMARK   11  A    between atoms: C_21  and  C_24
REMARK   12  A    between atoms: C_25  and  C_28
REMARK                            x       y       z     vdW  Elec       q    Type
REMARK                         _______ _______ _______ _____ _____    ______ ____
ROOT
ATOM      1  O   UNL     1     -10.122  -7.418  16.545  0.00  0.00    -0.370 OA
ATOM      2  O   UNL     1      -9.875 -10.486  16.031  0.00  0.00    -0.370 OA
ATOM     11  C   UNL     1     -10.649  -9.702  16.954  0.00  0.00    +0.171 C 
ATOM     12  C   UNL     1      -9.785  -8.534  17.387  0.00  0.00    +0.171 C 
ATOM     13  C   UNL     1     -11.816  -9.054  16.244  0.00  0.00    +0.130 C 
ATOM     14  C   UNL     1      -8.375  -8.994  17.108  0.00  0.00    +0.130 C 
ATOM     15  C   UNL     1     -11.186  -7.802  15.661  0.00  0.00    +0.185 C 
ATOM     16  C   UNL     1      -8.557  -9.930  15.928  0.00  0.00    +0.185 C 
ENDROOT
BRANCH  14   8
ATOM      8  N   UNL     1      -7.855  -9.719  18.248  0.00  0.00    -0.306 N 
ATOM      9  N   UNL     1      -5.878 -10.228  17.143  0.00  0.00    -0.214 NA
ATOM     10  N   UNL     1      -6.274 -10.966  19.403  0.00  0.00    -0.223 NA
ATOM     20  C   UNL     1      -6.615 -10.331  18.265  0.00  0.00    +0.216 A 
ATOM     25  C   UNL     1      -4.674 -10.836  17.194  0.00  0.00    +0.076 A 
ATOM     26  C   UNL     1      -5.059 -11.552  19.385  0.00  0.00    +0.116 A 
ATOM     27  C   UNL     1      -4.207 -11.519  18.299  0.00  0.00    +0.048 A 
ATOM     36  H   UNL     1      -8.394  -9.748  19.107  0.00  0.00    +0.149 HD
BRANCH  25  28
ATOM     28  C   UNL     1      -3.880 -10.727  15.994  0.00  0.00    +0.001 A 
ATOM     29  C   UNL     1      -4.498 -10.763  14.744  0.00  0.00    +0.013 A 
ATOM     30  C   UNL     1      -2.495 -10.584  16.084  0.00  0.00    +0.013 A 
ATOM     31  C   UNL     1      -3.732 -10.659  13.584  0.00  0.00    +0.046 A 
ATOM     32  C   UNL     1      -1.729 -10.479  14.923  0.00  0.00    +0.046 A 
ATOM     33  C   UNL     1      -2.347 -10.517  13.674  0.00  0.00    +0.120 A 
BRANCH  33   6
ATOM      6  O   UNL     1      -1.600 -10.413  12.541  0.00  0.00    -0.495 OA
ATOM     34  C   UNL     1      -2.267  -9.960  11.363  0.00  0.00    +0.277 C 
ENDBRANCH  33   6
ENDBRANCH  25  28
ENDBRANCH  14   8
BRANCH  13   7
ATOM      3  O   UNL     1     -13.920 -10.797  17.148  0.00  0.00    -0.276 OA
ATOM      7  N   UNL     1     -12.872  -8.725  17.170  0.00  0.00    -0.308 N 
ATOM     17  C   UNL     1     -13.846  -9.635  17.547  0.00  0.00    +0.214 C 
ATOM     35  H   UNL     1     -12.865  -7.803  17.597  0.00  0.00    +0.149 HD
BRANCH  17  18
ATOM     18  C   UNL     1     -14.849  -9.062  18.534  0.00  0.00    +0.102 C 
BRANCH  18  19
ATOM     19  C   UNL     1     -14.719  -9.600  19.981  0.00  0.00    -0.017 C 
ATOM     22  C   UNL     1     -15.516 -10.919  20.072  0.00  0.00    +0.012 C 
ATOM     23  C   UNL     1     -15.350  -8.610  20.983  0.00  0.00    +0.012 C 
BRANCH  19  21
ATOM     21  C   UNL     1     -13.250  -9.836  20.405  0.00  0.00    +0.127 C 
BRANCH  21  24
ATOM      5  O   UNL     1     -12.547 -12.120  20.005  0.00  0.00    -0.251 OA
ATOM     24  C   UNL     1     -12.922 -11.262  20.794  0.00  0.00    +0.305 C 
BRANCH  24   4
ATOM      4  O   UNL     1     -13.096 -11.500  22.118  0.00  0.00    -0.481 OA
ATOM     37  H   UNL     1     -14.009 -11.799  22.319  0.00  0.00    +0.295 HD
ENDBRANCH  24   4
ENDBRANCH  21  24
ENDBRANCH  19  21
ENDBRANCH  18  19
ENDBRANCH  17  18
ENDBRANCH  13   7
TORSDOF 9
ENDMDL
MODEL 6
REMARK VINA RESULT:      -6.6      4.992      8.806
REMARK  Name = 11912794
REMARK  12 active torsions:
REMARK  status: ('A' for Active; 'I' for Inactive)
REMARK    1  A    between atoms: O_4  and  C_24
REMARK    2  A    between atoms: O_6  and  C_33
REMARK    3  A    between atoms: O_6  and  C_34
REMARK    4  A    between atoms: N_7  and  C_13
REMARK    5  A    between atoms: N_8  and  C_14
REMARK    6  A    between atoms: C_17  and  C_18
REMARK    7  A    between atoms: C_18  and  C_19
REMARK    8  A    between atoms: C_19  and  C_21
REMARK    9  A    between atoms: C_19  and  C_22
REMARK   10  A    between atoms: C_19  and  C_23
REMARK   11  A    between atoms: C_21  and  C_24
REMARK   12  A    between atoms: C_25  and  C_28
REMARK                            x       y       z     vdW  Elec       q    Type
REMARK                         _______ _______ _______ _____ _____    ______ ____
ROOT
ATOM      1  O   UNL     1      -7.115 -12.159  15.905  0.00  0.00    -0.370 OA
ATOM      2  O   UNL     1      -5.911 -12.400  18.774  0.00  0.00    -0.370 OA
ATOM     11  C   UNL     1      -6.456 -11.302  18.024  0.00  0.00    +0.171 C 
ATOM     12  C   UNL     1      -6.036 -11.490  16.579  0.00  0.00    +0.171 C 
ATOM     13  C   UNL     1      -7.965 -11.390  17.983  0.00  0.00    +0.130 C 
ATOM     14  C   UNL     1      -4.828 -12.392  16.660  0.00  0.00    +0.130 C 
ATOM     15  C   UNL     1      -8.203 -12.340  16.824  0.00  0.00    +0.185 C 
ATOM     16  C   UNL     1      -5.108 -13.213  17.906  0.00  0.00    +0.185 C 
ENDROOT
BRANCH  14   8
ATOM      8  N   UNL     1      -3.630 -11.601  16.840  0.00  0.00    -0.306 N 
ATOM      9  N   UNL     1      -3.346 -11.338  14.551  0.00  0.00    -0.214 NA
ATOM     10  N   UNL     1      -1.804 -10.360  16.124  0.00  0.00    -0.223 NA
ATOM     20  C   UNL     1      -2.895 -11.077  15.793  0.00  0.00    +0.216 A 
ATOM     25  C   UNL     1      -2.605 -10.812  13.553  0.00  0.00    +0.076 A 
ATOM     26  C   UNL     1      -1.110  -9.864  15.078  0.00  0.00    +0.116 A 
ATOM     27  C   UNL     1      -1.467 -10.059  13.759  0.00  0.00    +0.048 A 
ATOM     36  H   UNL     1      -3.326 -11.365  17.778  0.00  0.00    +0.149 HD
BRANCH  25  28
ATOM     28  C   UNL     1      -3.086 -11.088  12.221  0.00  0.00    +0.001 A 
ATOM     29  C   UNL     1      -3.242 -12.408  11.796  0.00  0.00    +0.013 A 
ATOM     30  C   UNL     1      -3.394 -10.037  11.358  0.00  0.00    +0.013 A 
ATOM     31  C   UNL     1      -3.705 -12.676  10.509  0.00  0.00    +0.046 A 
ATOM     32  C   UNL     1      -3.858 -10.305  10.070  0.00  0.00    +0.046 A 
ATOM     33  C   UNL     1      -4.013 -11.625   9.646  0.00  0.00    +0.120 A 
BRANCH  33   6
ATOM      6  O   UNL     1      -4.468 -11.887   8.390  0.00  0.00    -0.495 OA
ATOM     34  C   UNL     1      -5.832 -11.573   8.114  0.00  0.00    +0.277 C 
ENDBRANCH  33   6
ENDBRANCH  25  28
ENDBRANCH  14   8
BRANCH  13   7
ATOM      3  O   UNL     1     -10.668 -10.588  18.562  0.00  0.00    -0.276 OA
ATOM      7  N   UNL     1      -8.556 -10.098  17.731  0.00  0.00    -0.308 N 
ATOM     17  C   UNL     1      -9.872  -9.804  18.046  0.00  0.00    +0.214 C 
ATOM     35  H   UNL     1      -7.961  -9.365  17.355  0.00  0.00    +0.149 HD
BRANCH  17  18
ATOM     18  C   UNL     1     -10.268  -8.380  17.691  0.00  0.00    +0.102 C 
BRANCH  18  19
ATOM     19  C   UNL     1     -10.947  -8.219  16.308  0.00  0.00    -0.017 C 
ATOM     22  C   UNL     1     -10.390  -6.938  15.651  0.00  0.00    +0.012 C 
ATOM     23  C   UNL     1     -12.470  -8.027  16.475  0.00  0.00    +0.012 C 
BRANCH  19  21
ATOM     21  C   UNL     1     -10.719  -9.436  15.379  0.00  0.00    +0.127 C 
BRANCH  21  24
ATOM      5  O   UNL     1      -9.746  -9.128  13.183  0.00  0.00    -0.251 OA
ATOM     24  C   UNL     1      -9.587  -9.273  14.388  0.00  0.00    +0.305 C 
BRANCH  24   4
ATOM      4  O   UNL     1      -8.364  -9.313  14.973  0.00  0.00    -0.481 OA
ATOM     37  H   UNL     1      -7.738  -9.880  14.474  0.00  0.00    +0.295 HD
ENDBRANCH  24   4
ENDBRANCH  21  24
ENDBRANCH  19  21
ENDBRANCH  18  19
ENDBRANCH  17  18
ENDBRANCH  13   7
TORSDOF 9
ENDMDL
MODEL 7
REMARK VINA RESULT:      -6.6     28.994     32.837
REMARK  Name = 11912794
REMARK  12 active torsions:
REMARK  status: ('A' for Active; 'I' for Inactive)
REMARK    1  A    between atoms: O_4  and  C_24
REMARK    2  A    between atoms: O_6  and  C_33
REMARK    3  A    between atoms: O_6  and  C_34
REMARK    4  A    between atoms: N_7  and  C_13
REMARK    5  A    between atoms: N_8  and  C_14
REMARK    6  A    between atoms: C_17  and  C_18
REMARK    7  A    between atoms: C_18  and  C_19
REMARK    8  A    between atoms: C_19  and  C_21
REMARK    9  A    between atoms: C_19  and  C_22
REMARK   10  A    between atoms: C_19  and  C_23
REMARK   11  A    between atoms: C_21  and  C_24
REMARK   12  A    between atoms: C_25  and  C_28
REMARK                            x       y       z     vdW  Elec       q    Type
REMARK                         _______ _______ _______ _____ _____    ______ ____
ROOT
ATOM      1  O   UNL     1      15.071   9.205   4.140  0.00  0.00    -0.370 OA
ATOM      2  O   UNL     1      14.507  10.825   6.747  0.00  0.00    -0.370 OA
ATOM     11  C   UNL     1      15.335   9.688   6.455  0.00  0.00    +0.171 C 
ATOM     12  C   UNL     1      14.591   8.837   5.444  0.00  0.00    +0.171 C 
ATOM     13  C   UNL     1      16.585  10.120   5.723  0.00  0.00    +0.130 C 
ATOM     14  C   UNL     1      13.147   9.247   5.607  0.00  0.00    +0.130 C 
ATOM     15  C   UNL     1      16.111  10.185   4.282  0.00  0.00    +0.185 C 
ATOM     16  C   UNL     1      13.261  10.695   6.050  0.00  0.00    +0.185 C 
ENDROOT
BRANCH  14   8
ATOM      8  N   UNL     1      12.520   8.455   6.642  0.00  0.00    -0.306 N 
ATOM      9  N   UNL     1      11.546   7.027   5.092  0.00  0.00    -0.214 NA
ATOM     10  N   UNL     1      11.215   6.716   7.459  0.00  0.00    -0.223 NA
ATOM     20  C   UNL     1      11.726   7.352   6.386  0.00  0.00    +0.216 A 
ATOM     25  C   UNL     1      10.766   5.947   4.878  0.00  0.00    +0.076 A 
ATOM     26  C   UNL     1      10.445   5.646   7.173  0.00  0.00    +0.116 A 
ATOM     27  C   UNL     1      10.184   5.210   5.890  0.00  0.00    +0.048 A 
ATOM     36  H   UNL     1      12.703   8.673   7.615  0.00  0.00    +0.149 HD
BRANCH  25  28
ATOM     28  C   UNL     1      10.572   5.595   3.492  0.00  0.00    +0.001 A 
ATOM     29  C   UNL     1      10.867   4.304   3.053  0.00  0.00    +0.013 A 
ATOM     30  C   UNL     1      10.088   6.544   2.591  0.00  0.00    +0.013 A 
ATOM     31  C   UNL     1      10.681   3.963   1.715  0.00  0.00    +0.046 A 
ATOM     32  C   UNL     1       9.901   6.202   1.252  0.00  0.00    +0.046 A 
ATOM     33  C   UNL     1      10.198   4.912   0.814  0.00  0.00    +0.120 A 
BRANCH  33   6
ATOM      6  O   UNL     1      10.014   4.578  -0.493  0.00  0.00    -0.495 OA
ATOM     34  C   UNL     1      11.127   4.008  -1.180  0.00  0.00    +0.277 C 
ENDBRANCH  33   6
ENDBRANCH  25  28
ENDBRANCH  14   8
BRANCH  13   7
ATOM      3  O   UNL     1      19.176  10.578   6.888  0.00  0.00    -0.276 OA
ATOM      7  N   UNL     1      17.644   9.153   5.882  0.00  0.00    -0.308 N 
ATOM     17  C   UNL     1      18.863   9.469   6.458  0.00  0.00    +0.214 C 
ATOM     35  H   UNL     1      17.461   8.193   5.605  0.00  0.00    +0.149 HD
BRANCH  17  18
ATOM     18  C   UNL     1      19.818   8.287   6.521  0.00  0.00    +0.102 C 
BRANCH  18  19
ATOM     19  C   UNL     1      20.864   8.235   5.379  0.00  0.00    -0.017 C 
ATOM     22  C   UNL     1      21.185   6.751   5.096  0.00  0.00    +0.012 C 
ATOM     23  C   UNL     1      22.178   8.914   5.821  0.00  0.00    +0.012 C 
BRANCH  19  21
ATOM     21  C   UNL     1      20.379   8.931   4.085  0.00  0.00    +0.127 C 
BRANCH  21  24
ATOM      5  O   UNL     1      20.326   7.574   2.080  0.00  0.00    -0.251 OA
ATOM     24  C   UNL     1      19.746   8.008   3.067  0.00  0.00    +0.305 C 
BRANCH  24   4
ATOM      4  O   UNL     1      18.454   7.713   3.355  0.00  0.00    -0.481 OA
ATOM     37  H   UNL     1      17.829   8.259   2.833  0.00  0.00    +0.295 HD
ENDBRANCH  24   4
ENDBRANCH  21  24
ENDBRANCH  19  21
ENDBRANCH  18  19
ENDBRANCH  17  18
ENDBRANCH  13   7
TORSDOF 9
ENDMDL
MODEL 8
REMARK VINA RESULT:      -6.5     21.544     23.933
REMARK  Name = 11912794
REMARK  12 active torsions:
REMARK  status: ('A' for Active; 'I' for Inactive)
REMARK    1  A    between atoms: O_4  and  C_24
REMARK    2  A    between atoms: O_6  and  C_33
REMARK    3  A    between atoms: O_6  and  C_34
REMARK    4  A    between atoms: N_7  and  C_13
REMARK    5  A    between atoms: N_8  and  C_14
REMARK    6  A    between atoms: C_17  and  C_18
REMARK    7  A    between atoms: C_18  and  C_19
REMARK    8  A    between atoms: C_19  and  C_21
REMARK    9  A    between atoms: C_19  and  C_22
REMARK   10  A    between atoms: C_19  and  C_23
REMARK   11  A    between atoms: C_21  and  C_24
REMARK   12  A    between atoms: C_25  and  C_28
REMARK                            x       y       z     vdW  Elec       q    Type
REMARK                         _______ _______ _______ _____ _____    ______ ____
ROOT
ATOM      1  O   UNL     1     -13.492   6.317  33.869  0.00  0.00    -0.370 OA
ATOM      2  O   UNL     1     -16.244   7.060  32.597  0.00  0.00    -0.370 OA
ATOM     11  C   UNL     1     -15.166   6.206  32.181  0.00  0.00    +0.171 C 
ATOM     12  C   UNL     1     -13.872   6.876  32.600  0.00  0.00    +0.171 C 
ATOM     13  C   UNL     1     -15.183   4.915  32.968  0.00  0.00    +0.130 C 
ATOM     14  C   UNL     1     -14.244   8.331  32.758  0.00  0.00    +0.130 C 
ATOM     15  C   UNL     1     -14.434   5.297  34.232  0.00  0.00    +0.185 C 
ATOM     16  C   UNL     1     -15.703   8.259  33.170  0.00  0.00    +0.185 C 
ENDROOT
BRANCH  14   8
ATOM      8  N   UNL     1     -14.115   9.016  31.490  0.00  0.00    -0.306 N 
ATOM      9  N   UNL     1     -12.055   9.912  32.074  0.00  0.00    -0.214 NA
ATOM     10  N   UNL     1     -13.055  10.370  29.930  0.00  0.00    -0.223 NA
ATOM     20  C   UNL     1     -13.028   9.800  31.150  0.00  0.00    +0.216 A 
ATOM     25  C   UNL     1     -11.010  10.684  31.711  0.00  0.00    +0.076 A 
ATOM     26  C   UNL     1     -11.980  11.129  29.632  0.00  0.00    +0.116 A 
ATOM     27  C   UNL     1     -10.917  11.323  30.491  0.00  0.00    +0.048 A 
ATOM     36  H   UNL     1     -14.826   8.885  30.779  0.00  0.00    +0.149 HD
BRANCH  25  28
ATOM     28  C   UNL     1      -9.964  10.806  32.698  0.00  0.00    +0.001 A 
ATOM     29  C   UNL     1      -9.935   9.941  33.792  0.00  0.00    +0.013 A 
ATOM     30  C   UNL     1      -8.983  11.788  32.559  0.00  0.00    +0.013 A 
ATOM     31  C   UNL     1      -8.926  10.059  34.747  0.00  0.00    +0.046 A 
ATOM     32  C   UNL     1      -7.973  11.905  33.514  0.00  0.00    +0.046 A 
ATOM     33  C   UNL     1      -7.945  11.040  34.608  0.00  0.00    +0.120 A 
BRANCH  33   6
ATOM      6  O   UNL     1      -6.959  11.153  35.539  0.00  0.00    -0.495 OA
ATOM     34  C   UNL     1      -6.110  10.021  35.725  0.00  0.00    +0.277 C 
ENDBRANCH  33   6
ENDBRANCH  25  28
ENDBRANCH  14   8
BRANCH  13   7
ATOM      3  O   UNL     1     -15.356   2.091  33.494  0.00  0.00    -0.276 OA
ATOM      7  N   UNL     1     -14.504   3.860  32.256  0.00  0.00    -0.308 N 
ATOM     17  C   UNL     1     -14.650   2.523  32.584  0.00  0.00    +0.214 C 
ATOM     35  H   UNL     1     -13.938   4.114  31.451  0.00  0.00    +0.149 HD
BRANCH  17  18
ATOM     18  C   UNL     1     -13.839   1.597  31.691  0.00  0.00    +0.102 C 
BRANCH  18  19
ATOM     19  C   UNL     1     -14.669   0.817  30.640  0.00  0.00    -0.017 C 
ATOM     22  C   UNL     1     -15.214  -0.460  31.317  0.00  0.00    +0.012 C 
ATOM     23  C   UNL     1     -13.769   0.368  29.469  0.00  0.00    +0.012 C 
BRANCH  19  21
ATOM     21  C   UNL     1     -15.835   1.648  30.055  0.00  0.00    +0.127 C 
BRANCH  21  24
ATOM      5  O   UNL     1     -15.870   2.338  27.733  0.00  0.00    -0.251 OA
ATOM     24  C   UNL     1     -15.463   2.518  28.874  0.00  0.00    +0.305 C 
BRANCH  24   4
ATOM      4  O   UNL     1     -14.618   3.525  29.207  0.00  0.00    -0.481 OA
ATOM     37  H   UNL     1     -14.010   3.267  29.932  0.00  0.00    +0.295 HD
ENDBRANCH  24   4
ENDBRANCH  21  24
ENDBRANCH  19  21
ENDBRANCH  18  19
ENDBRANCH  17  18
ENDBRANCH  13   7
TORSDOF 9
ENDMDL
MODEL 9
REMARK VINA RESULT:      -6.5      7.435     12.936
REMARK  Name = 11912794
REMARK  12 active torsions:
REMARK  status: ('A' for Active; 'I' for Inactive)
REMARK    1  A    between atoms: O_4  and  C_24
REMARK    2  A    between atoms: O_6  and  C_33
REMARK    3  A    between atoms: O_6  and  C_34
REMARK    4  A    between atoms: N_7  and  C_13
REMARK    5  A    between atoms: N_8  and  C_14
REMARK    6  A    between atoms: C_17  and  C_18
REMARK    7  A    between atoms: C_18  and  C_19
REMARK    8  A    between atoms: C_19  and  C_21
REMARK    9  A    between atoms: C_19  and  C_22
REMARK   10  A    between atoms: C_19  and  C_23
REMARK   11  A    between atoms: C_21  and  C_24
REMARK   12  A    between atoms: C_25  and  C_28
REMARK                            x       y       z     vdW  Elec       q    Type
REMARK                         _______ _______ _______ _____ _____    ______ ____
ROOT
ATOM      1  O   UNL     1      -4.970 -12.383  12.339  0.00  0.00    -0.370 OA
ATOM      2  O   UNL     1      -3.479  -9.783  11.469  0.00  0.00    -0.370 OA
ATOM     11  C   UNL     1      -4.378 -10.088  12.548  0.00  0.00    +0.171 C 
ATOM     12  C   UNL     1      -5.414 -11.056  12.011  0.00  0.00    +0.171 C 
ATOM     13  C   UNL     1      -3.662 -10.875  13.623  0.00  0.00    +0.130 C 
ATOM     14  C   UNL     1      -5.378 -10.845  10.517  0.00  0.00    +0.130 C 
ATOM     15  C   UNL     1      -3.756 -12.297  13.101  0.00  0.00    +0.185 C 
ATOM     16  C   UNL     1      -3.938 -10.430  10.274  0.00  0.00    +0.185 C 
ENDROOT
BRANCH  14   8
ATOM      8  N   UNL     1      -6.277  -9.774  10.145  0.00  0.00    -0.306 N 
ATOM      9  N   UNL     1      -6.104 -10.283   7.887  0.00  0.00    -0.214 NA
ATOM     10  N   UNL     1      -7.487  -8.466   8.657  0.00  0.00    -0.223 NA
ATOM     20  C   UNL     1      -6.638  -9.496   8.840  0.00  0.00    +0.216 A 
ATOM     25  C   UNL     1      -6.476  -9.984   6.625  0.00  0.00    +0.076 A 
ATOM     26  C   UNL     1      -7.817  -8.222   7.371  0.00  0.00    +0.116 A 
ATOM     27  C   UNL     1      -7.339  -8.955   6.304  0.00  0.00    +0.048 A 
ATOM     36  H   UNL     1      -6.716  -9.219  10.871  0.00  0.00    +0.149 HD
BRANCH  25  28
ATOM     28  C   UNL     1      -5.907 -10.826   5.601  0.00  0.00    +0.001 A 
ATOM     29  C   UNL     1      -6.615 -11.066   4.423  0.00  0.00    +0.013 A 
ATOM     30  C   UNL     1      -4.650 -11.401   5.788  0.00  0.00    +0.013 A 
ATOM     31  C   UNL     1      -6.067 -11.880   3.433  0.00  0.00    +0.046 A 
ATOM     32  C   UNL     1      -4.101 -12.216   4.797  0.00  0.00    +0.046 A 
ATOM     33  C   UNL     1      -4.810 -12.455   3.620  0.00  0.00    +0.120 A 
BRANCH  33   6
ATOM      6  O   UNL     1      -4.274 -13.248   2.652  0.00  0.00    -0.495 OA
ATOM     34  C   UNL     1      -2.852 -13.350   2.610  0.00  0.00    +0.277 C 
ENDBRANCH  33   6
ENDBRANCH  25  28
ENDBRANCH  14   8
BRANCH  13   7
ATOM      3  O   UNL     1      -2.425 -10.896  16.221  0.00  0.00    -0.276 OA
ATOM      7  N   UNL     1      -4.326 -10.739  14.897  0.00  0.00    -0.308 N 
ATOM     17  C   UNL     1      -3.643 -10.762  16.101  0.00  0.00    +0.214 C 
ATOM     35  H   UNL     1      -5.328 -10.570  14.899  0.00  0.00    +0.149 HD
BRANCH  17  18
ATOM     18  C   UNL     1      -4.552 -10.598  17.308  0.00  0.00    +0.102 C 
BRANCH  18  19
ATOM     19  C   UNL     1      -4.919 -11.919  18.030  0.00  0.00    -0.017 C 
ATOM     22  C   UNL     1      -3.892 -12.144  19.161  0.00  0.00    +0.012 C 
ATOM     23  C   UNL     1      -4.804 -13.114  17.059  0.00  0.00    +0.012 C 
BRANCH  19  21
ATOM     21  C   UNL     1      -6.354 -11.911  18.608  0.00  0.00    +0.127 C 
BRANCH  21  24
ATOM      5  O   UNL     1      -6.370 -10.269  20.388  0.00  0.00    -0.251 OA
ATOM     24  C   UNL     1      -6.760 -10.618  19.282  0.00  0.00    +0.305 C 
BRANCH  24   4
ATOM      4  O   UNL     1      -7.615  -9.879  18.531  0.00  0.00    -0.481 OA
ATOM     37  H   UNL     1      -8.524  -9.885  18.902  0.00  0.00    +0.295 HD
ENDBRANCH  24   4
ENDBRANCH  21  24
ENDBRANCH  19  21
ENDBRANCH  18  19
ENDBRANCH  17  18
ENDBRANCH  13   7
TORSDOF 9
ENDMDL
MODEL 10
REMARK VINA RESULT:      -6.5     22.129     27.168
REMARK  Name = 11912794
REMARK  12 active torsions:
REMARK  status: ('A' for Active; 'I' for Inactive)
REMARK    1  A    between atoms: O_4  and  C_24
REMARK    2  A    between atoms: O_6  and  C_33
REMARK    3  A    between atoms: O_6  and  C_34
REMARK    4  A    between atoms: N_7  and  C_13
REMARK    5  A    between atoms: N_8  and  C_14
REMARK    6  A    between atoms: C_17  and  C_18
REMARK    7  A    between atoms: C_18  and  C_19
REMARK    8  A    between atoms: C_19  and  C_21
REMARK    9  A    between atoms: C_19  and  C_22
REMARK   10  A    between atoms: C_19  and  C_23
REMARK   11  A    between atoms: C_21  and  C_24
REMARK   12  A    between atoms: C_25  and  C_28
REMARK                            x       y       z     vdW  Elec       q    Type
REMARK                         _______ _______ _______ _____ _____    ______ ____
ROOT
ATOM      1  O   UNL     1       4.769  10.327   3.491  0.00  0.00    -0.370 OA
ATOM      2  O   UNL     1       6.977  12.473   4.002  0.00  0.00    -0.370 OA
ATOM     11  C   UNL     1       6.634  11.238   4.653  0.00  0.00    +0.171 C 
ATOM     12  C   UNL     1       5.123  11.123   4.635  0.00  0.00    +0.171 C 
ATOM     13  C   UNL     1       7.103  10.060   3.830  0.00  0.00    +0.130 C 
ATOM     14  C   UNL     1       4.646  12.544   4.452  0.00  0.00    +0.130 C 
ATOM     15  C   UNL     1       5.969   9.887   2.837  0.00  0.00    +0.185 C 
ATOM     16  C   UNL     1       5.774  13.173   3.655  0.00  0.00    +0.185 C 
ENDROOT
BRANCH  14   8
ATOM      8  N   UNL     1       4.518  13.193   5.739  0.00  0.00    -0.306 N 
ATOM      9  N   UNL     1       2.361  12.389   6.038  0.00  0.00    -0.214 NA
ATOM     10  N   UNL     1       3.421  13.774   7.701  0.00  0.00    -0.223 NA
ATOM     20  C   UNL     1       3.384  13.115   6.526  0.00  0.00    +0.216 A 
ATOM     25  C   UNL     1       1.271  12.333   6.830  0.00  0.00    +0.076 A 
ATOM     26  C   UNL     1       2.298  13.677   8.442  0.00  0.00    +0.116 A 
ATOM     27  C   UNL     1       1.182  12.964   8.055  0.00  0.00    +0.048 A 
ATOM     36  H   UNL     1       5.311  13.695   6.124  0.00  0.00    +0.149 HD
BRANCH  25  28
ATOM     28  C   UNL     1       0.173  11.555   6.311  0.00  0.00    +0.001 A 
ATOM     29  C   UNL     1      -0.597  10.774   7.174  0.00  0.00    +0.013 A 
ATOM     30  C   UNL     1      -0.120  11.582   4.948  0.00  0.00    +0.013 A 
ATOM     31  C   UNL     1      -1.657  10.020   6.673  0.00  0.00    +0.046 A 
ATOM     32  C   UNL     1      -1.182  10.829   4.447  0.00  0.00    +0.046 A 
ATOM     33  C   UNL     1      -1.950  10.048   5.310  0.00  0.00    +0.120 A 
BRANCH  33   6
ATOM      6  O   UNL     1      -2.987   9.313   4.822  0.00  0.00    -0.495 OA
ATOM     34  C   UNL     1      -3.237   8.052   5.442  0.00  0.00    +0.277 C 
ENDBRANCH  33   6
ENDBRANCH  25  28
ENDBRANCH  14   8
BRANCH  13   7
ATOM      3  O   UNL     1       8.679   7.734   3.208  0.00  0.00    -0.276 OA
ATOM      7  N   UNL     1       7.267   8.884   4.648  0.00  0.00    -0.308 N 
ATOM     17  C   UNL     1       8.050   7.808   4.263  0.00  0.00    +0.214 C 
ATOM     35  H   UNL     1       6.828   8.874   5.565  0.00  0.00    +0.149 HD
BRANCH  17  18
ATOM     18  C   UNL     1       8.073   6.688   5.289  0.00  0.00    +0.102 C 
BRANCH  18  19
ATOM     19  C   UNL     1       9.432   6.491   6.007  0.00  0.00    -0.017 C 
ATOM     22  C   UNL     1      10.165   7.850   6.018  0.00  0.00    +0.012 C 
ATOM     23  C   UNL     1      10.316   5.497   5.224  0.00  0.00    +0.012 C 
BRANCH  19  21
ATOM     21  C   UNL     1       9.278   5.957   7.451  0.00  0.00    +0.127 C 
BRANCH  21  24
ATOM      5  O   UNL     1      11.547   5.807   8.287  0.00  0.00    -0.251 OA
ATOM     24  C   UNL     1      10.497   5.246   7.998  0.00  0.00    +0.305 C 
BRANCH  24   4
ATOM      4  O   UNL     1      10.312   3.909   8.131  0.00  0.00    -0.481 OA
ATOM     37  H   UNL     1      10.426   3.615   9.060  0.00  0.00    +0.295 HD
ENDBRANCH  24   4
ENDBRANCH  21  24
ENDBRANCH  19  21
ENDBRANCH  18  19
ENDBRANCH  17  18
ENDBRANCH  13   7
TORSDOF 9
ENDMDL
