MODEL 1
REMARK VINA RESULT:      -6.6      0.000      0.000
REMARK  Name = 11911875
REMARK  11 active torsions:
REMARK  status: ('A' for Active; 'I' for Inactive)
REMARK    1  A    between atoms: S_1  and  C_20
REMARK    2  A    between atoms: S_1  and  C_25
REMARK    3  A    between atoms: O_5  and  C_31
REMARK    4  A    between atoms: N_7  and  C_14
REMARK    5  A    between atoms: N_8  and  C_15
REMARK    6  A    between atoms: N_11  and  C_28
REMARK    7  A    between atoms: N_11  and  C_32
REMARK    8  A    between atoms: N_11  and  C_33
REMARK    9  A    between atoms: C_18  and  C_20
REMARK   10  A    between atoms: C_21  and  C_24
REMARK   11  A    between atoms: C_25  and  C_31
REMARK                            x       y       z     vdW  Elec       q    Type
REMARK                         _______ _______ _______ _____ _____    ______ ____
ROOT
ATOM      2  O   UNL     1     -14.898   7.552  22.592  0.00  0.00    -0.370 OA
ATOM      3  O   UNL     1     -13.192   4.946  22.392  0.00  0.00    -0.370 OA
ATOM     12  C   UNL     1     -13.866   5.760  21.416  0.00  0.00    +0.171 C 
ATOM     13  C   UNL     1     -15.155   6.246  22.048  0.00  0.00    +0.171 C 
ATOM     14  C   UNL     1     -13.082   7.027  21.158  0.00  0.00    +0.130 C 
ATOM     15  C   UNL     1     -15.418   5.257  23.159  0.00  0.00    +0.130 C 
ATOM     16  C   UNL     1     -13.550   7.933  22.282  0.00  0.00    +0.185 C 
ATOM     17  C   UNL     1     -14.019   4.825  23.557  0.00  0.00    +0.185 C 
ENDROOT
BRANCH  15   8
ATOM      8  N   UNL     1     -16.165   4.128  22.650  0.00  0.00    -0.306 N 
ATOM      9  N   UNL     1     -16.328   3.166  24.758  0.00  0.00    -0.214 NA
ATOM     10  N   UNL     1     -17.301   2.109  22.822  0.00  0.00    -0.223 NA
ATOM     19  C   UNL     1     -16.618   3.089  23.445  0.00  0.00    +0.216 A 
ATOM     21  C   UNL     1     -16.785   2.137  25.502  0.00  0.00    +0.076 A 
ATOM     22  C   UNL     1     -17.728   1.114  23.627  0.00  0.00    +0.116 A 
ATOM     23  C   UNL     1     -17.496   1.074  24.987  0.00  0.00    +0.048 A 
ATOM     35  H   UNL     1     -16.425   4.102  21.671  0.00  0.00    +0.149 HD
BRANCH  21  24
ATOM     24  C   UNL     1     -16.477   2.216  26.910  0.00  0.00    +0.001 A 
ATOM     26  C   UNL     1     -16.133   3.442  27.481  0.00  0.00    +0.012 A 
ATOM     27  C   UNL     1     -16.521   1.068  27.700  0.00  0.00    +0.012 A 
ATOM     28  C   UNL     1     -15.879   2.369  29.631  0.00  0.00    +0.029 A 
ATOM     29  C   UNL     1     -15.834   3.518  28.842  0.00  0.00    +0.024 A 
ATOM     30  C   UNL     1     -16.223   1.144  29.060  0.00  0.00    +0.024 A 
BRANCH  28  11
ATOM     11  N   UNL     1     -15.577   2.447  31.007  0.00  0.00    -0.336 N 
ATOM     32  C   UNL     1     -14.962   1.326  31.688  0.00  0.00    +0.129 C 
ATOM     33  C   UNL     1     -15.890   3.645  31.760  0.00  0.00    +0.129 C 
ENDBRANCH  28  11
ENDBRANCH  21  24
ENDBRANCH  15   8
BRANCH  14   7
ATOM      4  O   UNL     1     -11.287   7.429  18.922  0.00  0.00    -0.275 OA
ATOM      7  N   UNL     1     -13.405   7.586  19.867  0.00  0.00    -0.307 N 
ATOM     18  C   UNL     1     -12.474   7.741  18.850  0.00  0.00    +0.223 C 
ATOM     34  H   UNL     1     -14.349   7.934  19.725  0.00  0.00    +0.149 HD
BRANCH  18  20
ATOM     20  C   UNL     1     -13.057   8.367  17.605  0.00  0.00    +0.165 C 
BRANCH  20   1
ATOM      1  S   UNL     1     -12.509  10.087  17.500  0.00  0.00    -0.140 S 
BRANCH   1  25
ATOM     25  C   UNL     1     -11.570   9.976  15.959  0.00  0.00    +0.189 C 
BRANCH  25  31
ATOM      6  O   UNL     1     -10.283   8.011  15.412  0.00  0.00    -0.250 OA
ATOM     31  C   UNL     1     -10.449   8.991  16.129  0.00  0.00    +0.315 C 
BRANCH  31   5
ATOM      5  O   UNL     1      -9.624   9.308  17.157  0.00  0.00    -0.480 OA
ATOM     36  H   UNL     1      -8.714   8.965  17.018  0.00  0.00    +0.295 HD
ENDBRANCH  31   5
ENDBRANCH  25  31
ENDBRANCH   1  25
ENDBRANCH  20   1
ENDBRANCH  18  20
ENDBRANCH  14   7
TORSDOF 9
ENDMDL
MODEL 2
REMARK VINA RESULT:      -6.6     29.488     34.005
REMARK  Name = 11911875
REMARK  11 active torsions:
REMARK  status: ('A' for Active; 'I' for Inactive)
REMARK    1  A    between atoms: S_1  and  C_20
REMARK    2  A    between atoms: S_1  and  C_25
REMARK    3  A    between atoms: O_5  and  C_31
REMARK    4  A    between atoms: N_7  and  C_14
REMARK    5  A    between atoms: N_8  and  C_15
REMARK    6  A    between atoms: N_11  and  C_28
REMARK    7  A    between atoms: N_11  and  C_32
REMARK    8  A    between atoms: N_11  and  C_33
REMARK    9  A    between atoms: C_18  and  C_20
REMARK   10  A    between atoms: C_21  and  C_24
REMARK   11  A    between atoms: C_25  and  C_31
REMARK                            x       y       z     vdW  Elec       q    Type
REMARK                         _______ _______ _______ _____ _____    ______ ____
ROOT
ATOM      2  O   UNL     1      15.853   8.996  19.955  0.00  0.00    -0.370 OA
ATOM      3  O   UNL     1      15.846   5.876  19.914  0.00  0.00    -0.370 OA
ATOM     12  C   UNL     1      15.247   6.850  20.785  0.00  0.00    +0.171 C 
ATOM     13  C   UNL     1      16.229   7.998  20.920  0.00  0.00    +0.171 C 
ATOM     14  C   UNL     1      14.040   7.474  20.123  0.00  0.00    +0.130 C 
ATOM     15  C   UNL     1      17.562   7.390  20.552  0.00  0.00    +0.130 C 
ATOM     16  C   UNL     1      14.663   8.569  19.275  0.00  0.00    +0.185 C 
ATOM     17  C   UNL     1      17.172   6.303  19.568  0.00  0.00    +0.185 C 
ENDROOT
BRANCH  15   8
ATOM      8  N   UNL     1      18.178   6.806  21.723  0.00  0.00    -0.306 N 
ATOM      9  N   UNL     1      20.269   7.642  21.154  0.00  0.00    -0.214 NA
ATOM     10  N   UNL     1      19.947   6.331  23.151  0.00  0.00    -0.223 NA
ATOM     19  C   UNL     1      19.524   6.932  22.023  0.00  0.00    +0.216 A 
ATOM     21  C   UNL     1      21.575   7.744  21.477  0.00  0.00    +0.076 A 
ATOM     22  C   UNL     1      21.263   6.475  23.412  0.00  0.00    +0.116 A 
ATOM     23  C   UNL     1      22.134   7.176  22.603  0.00  0.00    +0.048 A 
ATOM     35  H   UNL     1      17.603   6.318  22.400  0.00  0.00    +0.149 HD
BRANCH  21  24
ATOM     24  C   UNL     1      22.378   8.505  20.549  0.00  0.00    +0.001 A 
ATOM     26  C   UNL     1      21.911   9.726  20.062  0.00  0.00    +0.012 A 
ATOM     27  C   UNL     1      23.619   8.019  20.138  0.00  0.00    +0.012 A 
ATOM     28  C   UNL     1      23.927   9.973  18.753  0.00  0.00    +0.029 A 
ATOM     29  C   UNL     1      22.686  10.460  19.163  0.00  0.00    +0.024 A 
ATOM     30  C   UNL     1      24.394   8.753  19.240  0.00  0.00    +0.024 A 
BRANCH  28  11
ATOM     11  N   UNL     1      24.710  10.717  17.845  0.00  0.00    -0.336 N 
ATOM     32  C   UNL     1      24.727  12.165  17.905  0.00  0.00    +0.129 C 
ATOM     33  C   UNL     1      25.496  10.044  16.831  0.00  0.00    +0.129 C 
ENDBRANCH  28  11
ENDBRANCH  21  24
ENDBRANCH  15   8
BRANCH  14   7
ATOM      4  O   UNL     1      11.340   6.601  20.697  0.00  0.00    -0.275 OA
ATOM      7  N   UNL     1      13.133   8.024  21.102  0.00  0.00    -0.307 N 
ATOM     18  C   UNL     1      11.851   7.538  21.309  0.00  0.00    +0.223 C 
ATOM     34  H   UNL     1      13.437   8.843  21.620  0.00  0.00    +0.149 HD
BRANCH  18  20
ATOM     20  C   UNL     1      11.096   8.295  22.376  0.00  0.00    +0.165 C 
BRANCH  20   1
ATOM      1  S   UNL     1      11.014  10.041  21.910  0.00  0.00    -0.140 S 
BRANCH   1  25
ATOM     25  C   UNL     1      11.974  10.729  23.280  0.00  0.00    +0.189 C 
BRANCH  25  31
ATOM      6  O   UNL     1      11.219  11.096  25.540  0.00  0.00    -0.250 OA
ATOM     31  C   UNL     1      11.038  11.240  24.337  0.00  0.00    +0.315 C 
BRANCH  31   5
ATOM      5  O   UNL     1       9.969  11.895  23.819  0.00  0.00    -0.480 OA
ATOM     36  H   UNL     1       9.560  11.401  23.076  0.00  0.00    +0.295 HD
ENDBRANCH  31   5
ENDBRANCH  25  31
ENDBRANCH   1  25
ENDBRANCH  20   1
ENDBRANCH  18  20
ENDBRANCH  14   7
TORSDOF 9
ENDMDL
MODEL 3
REMARK VINA RESULT:      -6.6     19.184     21.624
REMARK  Name = 11911875
REMARK  11 active torsions:
REMARK  status: ('A' for Active; 'I' for Inactive)
REMARK    1  A    between atoms: S_1  and  C_20
REMARK    2  A    between atoms: S_1  and  C_25
REMARK    3  A    between atoms: O_5  and  C_31
REMARK    4  A    between atoms: N_7  and  C_14
REMARK    5  A    between atoms: N_8  and  C_15
REMARK    6  A    between atoms: N_11  and  C_28
REMARK    7  A    between atoms: N_11  and  C_32
REMARK    8  A    between atoms: N_11  and  C_33
REMARK    9  A    between atoms: C_18  and  C_20
REMARK   10  A    between atoms: C_21  and  C_24
REMARK   11  A    between atoms: C_25  and  C_31
REMARK                            x       y       z     vdW  Elec       q    Type
REMARK                         _______ _______ _______ _____ _____    ______ ____
ROOT
ATOM      2  O   UNL     1      -7.184 -11.839  15.975  0.00  0.00    -0.370 OA
ATOM      3  O   UNL     1      -6.073 -12.161  18.873  0.00  0.00    -0.370 OA
ATOM     12  C   UNL     1      -6.500 -11.025  18.103  0.00  0.00    +0.171 C 
ATOM     13  C   UNL     1      -6.065 -11.263  16.670  0.00  0.00    +0.171 C 
ATOM     14  C   UNL     1      -8.009 -10.979  18.027  0.00  0.00    +0.130 C 
ATOM     15  C   UNL     1      -4.945 -12.269  16.786  0.00  0.00    +0.130 C 
ATOM     16  C   UNL     1      -8.305 -11.915  16.868  0.00  0.00    +0.185 C 
ATOM     17  C   UNL     1      -5.326 -13.050  18.030  0.00  0.00    +0.185 C 
ENDROOT
BRANCH  15   8
ATOM      8  N   UNL     1      -3.686 -11.586  16.990  0.00  0.00    -0.306 N 
ATOM      9  N   UNL     1      -3.379 -11.272  14.709  0.00  0.00    -0.214 NA
ATOM     10  N   UNL     1      -1.762 -10.478  16.310  0.00  0.00    -0.223 NA
ATOM     19  C   UNL     1      -2.908 -11.091  15.958  0.00  0.00    +0.216 A 
ATOM     21  C   UNL     1      -2.596 -10.777  13.729  0.00  0.00    +0.076 A 
ATOM     22  C   UNL     1      -1.030 -10.006  15.280  0.00  0.00    +0.116 A 
ATOM     23  C   UNL     1      -1.400 -10.128  13.956  0.00  0.00    +0.048 A 
ATOM     35  H   UNL     1      -3.364 -11.406  17.934  0.00  0.00    +0.149 HD
BRANCH  21  24
ATOM     24  C   UNL     1      -3.097 -10.969  12.389  0.00  0.00    +0.001 A 
ATOM     26  C   UNL     1      -3.553  -9.877  11.651  0.00  0.00    +0.012 A 
ATOM     27  C   UNL     1      -3.128 -12.248  11.832  0.00  0.00    +0.012 A 
ATOM     28  C   UNL     1      -4.069 -11.341   9.801  0.00  0.00    +0.029 A 
ATOM     29  C   UNL     1      -4.039 -10.063  10.357  0.00  0.00    +0.024 A 
ATOM     30  C   UNL     1      -3.613 -12.434  10.538  0.00  0.00    +0.024 A 
BRANCH  28  11
ATOM     11  N   UNL     1      -4.560 -11.529   8.491  0.00  0.00    -0.336 N 
ATOM     32  C   UNL     1      -4.539 -12.843   7.880  0.00  0.00    +0.129 C 
ATOM     33  C   UNL     1      -5.080 -10.407   7.735  0.00  0.00    +0.129 C 
ENDBRANCH  28  11
ENDBRANCH  21  24
ENDBRANCH  15   8
BRANCH  14   7
ATOM      4  O   UNL     1     -10.754 -10.058  17.981  0.00  0.00    -0.275 OA
ATOM      7  N   UNL     1      -8.478  -9.643  17.752  0.00  0.00    -0.307 N 
ATOM     18  C   UNL     1      -9.820  -9.291  17.752  0.00  0.00    +0.223 C 
ATOM     34  H   UNL     1      -7.788  -8.945  17.489  0.00  0.00    +0.149 HD
BRANCH  18  20
ATOM     20  C   UNL     1     -10.050  -7.837  17.417  0.00  0.00    +0.165 C 
BRANCH  20   1
ATOM      1  S   UNL     1     -10.596  -7.709  15.697  0.00  0.00    -0.140 S 
BRANCH   1  25
ATOM     25  C   UNL     1     -11.056  -5.960  15.691  0.00  0.00    +0.189 C 
BRANCH  25  31
ATOM      6  O   UNL     1     -13.165  -6.326  14.582  0.00  0.00    -0.250 OA
ATOM     31  C   UNL     1     -12.101  -5.723  14.639  0.00  0.00    +0.315 C 
BRANCH  31   5
ATOM      5  O   UNL     1     -11.748  -4.752  13.759  0.00  0.00    -0.480 OA
ATOM     36  H   UNL     1     -11.358  -5.125  12.938  0.00  0.00    +0.295 HD
ENDBRANCH  31   5
ENDBRANCH  25  31
ENDBRANCH   1  25
ENDBRANCH  20   1
ENDBRANCH  18  20
ENDBRANCH  14   7
TORSDOF 9
ENDMDL
MODEL 4
REMARK VINA RESULT:      -6.5     21.441     22.848
REMARK  Name = 11911875
REMARK  11 active torsions:
REMARK  status: ('A' for Active; 'I' for Inactive)
REMARK    1  A    between atoms: S_1  and  C_20
REMARK    2  A    between atoms: S_1  and  C_25
REMARK    3  A    between atoms: O_5  and  C_31
REMARK    4  A    between atoms: N_7  and  C_14
REMARK    5  A    between atoms: N_8  and  C_15
REMARK    6  A    between atoms: N_11  and  C_28
REMARK    7  A    between atoms: N_11  and  C_32
REMARK    8  A    between atoms: N_11  and  C_33
REMARK    9  A    between atoms: C_18  and  C_20
REMARK   10  A    between atoms: C_21  and  C_24
REMARK   11  A    between atoms: C_25  and  C_31
REMARK                            x       y       z     vdW  Elec       q    Type
REMARK                         _______ _______ _______ _____ _____    ______ ____
ROOT
ATOM      2  O   UNL     1      -6.005 -11.483  10.078  0.00  0.00    -0.370 OA
ATOM      3  O   UNL     1      -3.986  -9.177   9.496  0.00  0.00    -0.370 OA
ATOM     12  C   UNL     1      -3.958 -10.594   9.255  0.00  0.00    +0.171 C 
ATOM     13  C   UNL     1      -4.630 -11.265  10.437  0.00  0.00    +0.171 C 
ATOM     14  C   UNL     1      -4.843 -10.944   8.081  0.00  0.00    +0.130 C 
ATOM     15  C   UNL     1      -4.533 -10.244  11.546  0.00  0.00    +0.130 C 
ATOM     16  C   UNL     1      -6.213 -11.049   8.726  0.00  0.00    +0.185 C 
ATOM     17  C   UNL     1      -4.554  -8.929  10.790  0.00  0.00    +0.185 C 
ENDROOT
BRANCH  15   8
ATOM      8  N   UNL     1      -3.280 -10.396  12.251  0.00  0.00    -0.306 N 
ATOM      9  N   UNL     1      -4.344 -10.508  14.312  0.00  0.00    -0.214 NA
ATOM     10  N   UNL     1      -1.945 -10.663  14.133  0.00  0.00    -0.223 NA
ATOM     19  C   UNL     1      -3.185 -10.528  13.626  0.00  0.00    +0.216 A 
ATOM     21  C   UNL     1      -4.215 -10.639  15.649  0.00  0.00    +0.076 A 
ATOM     22  C   UNL     1      -1.891 -10.790  15.475  0.00  0.00    +0.116 A 
ATOM     23  C   UNL     1      -3.003 -10.785  16.292  0.00  0.00    +0.048 A 
ATOM     35  H   UNL     1      -2.416 -10.464  11.725  0.00  0.00    +0.149 HD
BRANCH  21  24
ATOM     24  C   UNL     1      -5.454 -10.619  16.389  0.00  0.00    +0.001 A 
ATOM     26  C   UNL     1      -5.869 -11.753  17.086  0.00  0.00    +0.012 A 
ATOM     27  C   UNL     1      -6.238  -9.465  16.405  0.00  0.00    +0.012 A 
ATOM     28  C   UNL     1      -7.851 -10.580  17.815  0.00  0.00    +0.029 A 
ATOM     29  C   UNL     1      -7.068 -11.734  17.799  0.00  0.00    +0.024 A 
ATOM     30  C   UNL     1      -7.437  -9.445  17.118  0.00  0.00    +0.024 A 
BRANCH  28  11
ATOM     11  N   UNL     1      -9.063 -10.561  18.537  0.00  0.00    -0.336 N 
ATOM     32  C   UNL     1      -9.249 -11.431  19.682  0.00  0.00    +0.129 C 
ATOM     33  C   UNL     1     -10.143  -9.682  18.136  0.00  0.00    +0.129 C 
ENDBRANCH  28  11
ENDBRANCH  21  24
ENDBRANCH  15   8
BRANCH  14   7
ATOM      4  O   UNL     1      -4.410 -11.492   5.271  0.00  0.00    -0.275 OA
ATOM      7  N   UNL     1      -4.448 -12.198   7.486  0.00  0.00    -0.307 N 
ATOM     18  C   UNL     1      -4.263 -12.368   6.121  0.00  0.00    +0.223 C 
ATOM     34  H   UNL     1      -4.360 -13.005   8.097  0.00  0.00    +0.149 HD
BRANCH  18  20
ATOM     20  C   UNL     1      -3.870 -13.778   5.750  0.00  0.00    +0.165 C 
BRANCH  20   1
ATOM      1  S   UNL     1      -2.121 -13.797   5.288  0.00  0.00    -0.140 S 
BRANCH   1  25
ATOM     25  C   UNL     1      -2.297 -14.413   3.596  0.00  0.00    +0.189 C 
BRANCH  25  31
ATOM      6  O   UNL     1      -1.136 -13.489   1.696  0.00  0.00    -0.250 OA
ATOM     31  C   UNL     1      -1.913 -13.330   2.629  0.00  0.00    +0.315 C 
BRANCH  31   5
ATOM      5  O   UNL     1      -2.531 -12.151   2.890  0.00  0.00    -0.480 OA
ATOM     36  H   UNL     1      -2.782 -12.069   3.836  0.00  0.00    +0.295 HD
ENDBRANCH  31   5
ENDBRANCH  25  31
ENDBRANCH   1  25
ENDBRANCH  20   1
ENDBRANCH  18  20
ENDBRANCH  14   7
TORSDOF 9
ENDMDL
MODEL 5
REMARK VINA RESULT:      -6.5     22.262     25.076
REMARK  Name = 11911875
REMARK  11 active torsions:
REMARK  status: ('A' for Active; 'I' for Inactive)
REMARK    1  A    between atoms: S_1  and  C_20
REMARK    2  A    between atoms: S_1  and  C_25
REMARK    3  A    between atoms: O_5  and  C_31
REMARK    4  A    between atoms: N_7  and  C_14
REMARK    5  A    between atoms: N_8  and  C_15
REMARK    6  A    between atoms: N_11  and  C_28
REMARK    7  A    between atoms: N_11  and  C_32
REMARK    8  A    between atoms: N_11  and  C_33
REMARK    9  A    between atoms: C_18  and  C_20
REMARK   10  A    between atoms: C_21  and  C_24
REMARK   11  A    between atoms: C_25  and  C_31
REMARK                            x       y       z     vdW  Elec       q    Type
REMARK                         _______ _______ _______ _____ _____    ______ ____
ROOT
ATOM      2  O   UNL     1      -2.604 -12.934  12.673  0.00  0.00    -0.370 OA
ATOM      3  O   UNL     1      -1.785  -9.976  13.235  0.00  0.00    -0.370 OA
ATOM     12  C   UNL     1      -2.809 -10.831  13.768  0.00  0.00    +0.171 C 
ATOM     13  C   UNL     1      -3.320 -11.687  12.626  0.00  0.00    +0.171 C 
ATOM     14  C   UNL     1      -2.211 -11.827  14.735  0.00  0.00    +0.130 C 
ATOM     15  C   UNL     1      -2.943 -10.913  11.385  0.00  0.00    +0.130 C 
ATOM     16  C   UNL     1      -1.728 -12.930  13.810  0.00  0.00    +0.185 C 
ATOM     17  C   UNL     1      -1.685 -10.183  11.819  0.00  0.00    +0.185 C 
ENDROOT
BRANCH  15   8
ATOM      8  N   UNL     1      -3.984  -9.964  11.059  0.00  0.00    -0.306 N 
ATOM      9  N   UNL     1      -4.271 -10.865   8.938  0.00  0.00    -0.214 NA
ATOM     10  N   UNL     1      -5.592  -8.996   9.691  0.00  0.00    -0.223 NA
ATOM     19  C   UNL     1      -4.644  -9.940   9.842  0.00  0.00    +0.216 A 
ATOM     21  C   UNL     1      -4.935 -10.814   7.764  0.00  0.00    +0.076 A 
ATOM     22  C   UNL     1      -6.216  -9.003   8.494  0.00  0.00    +0.116 A 
ATOM     23  C   UNL     1      -5.925  -9.896   7.483  0.00  0.00    +0.048 A 
ATOM     35  H   UNL     1      -4.297  -9.305  11.762  0.00  0.00    +0.149 HD
BRANCH  21  24
ATOM     24  C   UNL     1      -4.538 -11.803   6.792  0.00  0.00    +0.001 A 
ATOM     26  C   UNL     1      -4.723 -11.559   5.431  0.00  0.00    +0.012 A 
ATOM     27  C   UNL     1      -3.970 -13.006   7.212  0.00  0.00    +0.012 A 
ATOM     28  C   UNL     1      -3.773 -13.718   4.913  0.00  0.00    +0.029 A 
ATOM     29  C   UNL     1      -4.341 -12.516   4.491  0.00  0.00    +0.024 A 
ATOM     30  C   UNL     1      -3.587 -13.964   6.273  0.00  0.00    +0.024 A 
BRANCH  28  11
ATOM     11  N   UNL     1      -3.386 -14.686   3.961  0.00  0.00    -0.336 N 
ATOM     32  C   UNL     1      -2.812 -15.946   4.388  0.00  0.00    +0.129 C 
ATOM     33  C   UNL     1      -3.544 -14.427   2.544  0.00  0.00    +0.129 C 
ENDBRANCH  28  11
ENDBRANCH  21  24
ENDBRANCH  15   8
BRANCH  14   7
ATOM      4  O   UNL     1      -3.658 -10.304  16.728  0.00  0.00    -0.275 OA
ATOM      7  N   UNL     1      -3.205 -12.319  15.660  0.00  0.00    -0.307 N 
ATOM     18  C   UNL     1      -3.850 -11.511  16.584  0.00  0.00    +0.223 C 
ATOM     34  H   UNL     1      -3.392 -13.317  15.665  0.00  0.00    +0.149 HD
BRANCH  18  20
ATOM     20  C   UNL     1      -4.831 -12.268  17.448  0.00  0.00    +0.165 C 
BRANCH  20   1
ATOM      1  S   UNL     1      -5.720 -11.092  18.497  0.00  0.00    -0.140 S 
BRANCH   1  25
ATOM     25  C   UNL     1      -7.236 -10.954  17.520  0.00  0.00    +0.189 C 
BRANCH  25  31
ATOM      6  O   UNL     1      -8.312  -8.804  17.337  0.00  0.00    -0.250 OA
ATOM     31  C   UNL     1      -7.385  -9.543  17.028  0.00  0.00    +0.315 C 
BRANCH  31   5
ATOM      5  O   UNL     1      -6.369  -9.162  16.213  0.00  0.00    -0.480 OA
ATOM     36  H   UNL     1      -6.276  -9.759  15.439  0.00  0.00    +0.295 HD
ENDBRANCH  31   5
ENDBRANCH  25  31
ENDBRANCH   1  25
ENDBRANCH  20   1
ENDBRANCH  18  20
ENDBRANCH  14   7
TORSDOF 9
ENDMDL
MODEL 6
REMARK VINA RESULT:      -6.4      3.932     11.695
REMARK  Name = 11911875
REMARK  11 active torsions:
REMARK  status: ('A' for Active; 'I' for Inactive)
REMARK    1  A    between atoms: S_1  and  C_20
REMARK    2  A    between atoms: S_1  and  C_25
REMARK    3  A    between atoms: O_5  and  C_31
REMARK    4  A    between atoms: N_7  and  C_14
REMARK    5  A    between atoms: N_8  and  C_15
REMARK    6  A    between atoms: N_11  and  C_28
REMARK    7  A    between atoms: N_11  and  C_32
REMARK    8  A    between atoms: N_11  and  C_33
REMARK    9  A    between atoms: C_18  and  C_20
REMARK   10  A    between atoms: C_21  and  C_24
REMARK   11  A    between atoms: C_25  and  C_31
REMARK                            x       y       z     vdW  Elec       q    Type
REMARK                         _______ _______ _______ _____ _____    ______ ____
ROOT
ATOM      2  O   UNL     1     -16.508   5.404  22.475  0.00  0.00    -0.370 OA
ATOM      3  O   UNL     1     -13.397   5.167  22.544  0.00  0.00    -0.370 OA
ATOM     12  C   UNL     1     -14.395   5.324  23.566  0.00  0.00    +0.171 C 
ATOM     13  C   UNL     1     -15.468   6.240  23.011  0.00  0.00    +0.171 C 
ATOM     14  C   UNL     1     -15.115   4.016  23.803  0.00  0.00    +0.130 C 
ATOM     15  C   UNL     1     -14.774   6.992  21.900  0.00  0.00    +0.130 C 
ATOM     16  C   UNL     1     -16.178   4.029  22.719  0.00  0.00    +0.185 C 
ATOM     17  C   UNL     1     -13.736   5.994  21.421  0.00  0.00    +0.185 C 
ENDROOT
BRANCH  15   8
ATOM      8  N   UNL     1     -14.127   8.172  22.429  0.00  0.00    -0.306 N 
ATOM      9  N   UNL     1     -13.136   8.660  20.386  0.00  0.00    -0.214 NA
ATOM     10  N   UNL     1     -12.784  10.063  22.314  0.00  0.00    -0.223 NA
ATOM     19  C   UNL     1     -13.313   9.001  21.677  0.00  0.00    +0.216 A 
ATOM     21  C   UNL     1     -12.338   9.490  19.683  0.00  0.00    +0.076 A 
ATOM     22  C   UNL     1     -11.997  10.850  21.551  0.00  0.00    +0.116 A 
ATOM     23  C   UNL     1     -11.735  10.609  20.217  0.00  0.00    +0.048 A 
ATOM     35  H   UNL     1     -14.307   8.453  23.387  0.00  0.00    +0.149 HD
BRANCH  21  24
ATOM     24  C   UNL     1     -12.145   9.127  18.299  0.00  0.00    +0.001 A 
ATOM     26  C   UNL     1     -10.858   9.070  17.766  0.00  0.00    +0.012 A 
ATOM     27  C   UNL     1     -13.247   8.836  17.494  0.00  0.00    +0.012 A 
ATOM     28  C   UNL     1     -11.774   8.430  15.624  0.00  0.00    +0.029 A 
ATOM     29  C   UNL     1     -10.672   8.722  16.428  0.00  0.00    +0.024 A 
ATOM     30  C   UNL     1     -13.062   8.488  16.157  0.00  0.00    +0.024 A 
BRANCH  28  11
ATOM     11  N   UNL     1     -11.585   8.078  14.271  0.00  0.00    -0.336 N 
ATOM     32  C   UNL     1     -12.608   8.370  13.287  0.00  0.00    +0.129 C 
ATOM     33  C   UNL     1     -10.372   7.406  13.850  0.00  0.00    +0.129 C 
ENDBRANCH  28  11
ENDBRANCH  21  24
ENDBRANCH  15   8
BRANCH  14   7
ATOM      4  O   UNL     1     -16.114   1.690  25.208  0.00  0.00    -0.275 OA
ATOM      7  N   UNL     1     -15.708   3.977  25.117  0.00  0.00    -0.307 N 
ATOM     18  C   UNL     1     -16.161   2.810  25.714  0.00  0.00    +0.223 C 
ATOM     34  H   UNL     1     -15.851   4.861  25.598  0.00  0.00    +0.149 HD
BRANCH  18  20
ATOM     20  C   UNL     1     -16.758   3.038  27.083  0.00  0.00    +0.165 C 
BRANCH  20   1
ATOM      1  S   UNL     1     -16.623   1.512  28.045  0.00  0.00    -0.140 S 
BRANCH   1  25
ATOM     25  C   UNL     1     -15.387   2.061  29.246  0.00  0.00    +0.189 C 
BRANCH  25  31
ATOM      6  O   UNL     1     -14.786  -0.258  29.516  0.00  0.00    -0.250 OA
ATOM     31  C   UNL     1     -14.462   0.922  29.565  0.00  0.00    +0.315 C 
BRANCH  31   5
ATOM      5  O   UNL     1     -13.215   1.337  29.900  0.00  0.00    -0.480 OA
ATOM     36  H   UNL     1     -13.034   2.249  29.582  0.00  0.00    +0.295 HD
ENDBRANCH  31   5
ENDBRANCH  25  31
ENDBRANCH   1  25
ENDBRANCH  20   1
ENDBRANCH  18  20
ENDBRANCH  14   7
TORSDOF 9
ENDMDL
MODEL 7
REMARK VINA RESULT:      -6.4     15.236     16.560
REMARK  Name = 11911875
REMARK  11 active torsions:
REMARK  status: ('A' for Active; 'I' for Inactive)
REMARK    1  A    between atoms: S_1  and  C_20
REMARK    2  A    between atoms: S_1  and  C_25
REMARK    3  A    between atoms: O_5  and  C_31
REMARK    4  A    between atoms: N_7  and  C_14
REMARK    5  A    between atoms: N_8  and  C_15
REMARK    6  A    between atoms: N_11  and  C_28
REMARK    7  A    between atoms: N_11  and  C_32
REMARK    8  A    between atoms: N_11  and  C_33
REMARK    9  A    between atoms: C_18  and  C_20
REMARK   10  A    between atoms: C_21  and  C_24
REMARK   11  A    between atoms: C_25  and  C_31
REMARK                            x       y       z     vdW  Elec       q    Type
REMARK                         _______ _______ _______ _____ _____    ______ ____
ROOT
ATOM      2  O   UNL     1     -12.205  -7.956  14.517  0.00  0.00    -0.370 OA
ATOM      3  O   UNL     1     -10.968  -6.205  16.784  0.00  0.00    -0.370 OA
ATOM     12  C   UNL     1     -10.867  -6.174  15.350  0.00  0.00    +0.171 C 
ATOM     13  C   UNL     1     -10.854  -7.612  14.869  0.00  0.00    +0.171 C 
ATOM     14  C   UNL     1     -12.127  -5.596  14.747  0.00  0.00    +0.130 C 
ATOM     15  C   UNL     1     -10.409  -8.402  16.077  0.00  0.00    +0.130 C 
ATOM     16  C   UNL     1     -13.044  -6.804  14.689  0.00  0.00    +0.185 C 
ATOM     17  C   UNL     1     -10.932  -7.567  17.231  0.00  0.00    +0.185 C 
ENDROOT
BRANCH  15   8
ATOM      8  N   UNL     1      -8.965  -8.468  16.121  0.00  0.00    -0.306 N 
ATOM      9  N   UNL     1      -8.997 -10.170  17.701  0.00  0.00    -0.214 NA
ATOM     10  N   UNL     1      -6.920  -9.288  16.855  0.00  0.00    -0.223 NA
ATOM     19  C   UNL     1      -8.263  -9.347  16.927  0.00  0.00    +0.216 A 
ATOM     21  C   UNL     1      -8.280 -11.012  18.474  0.00  0.00    +0.076 A 
ATOM     22  C   UNL     1      -6.268 -10.159  17.653  0.00  0.00    +0.116 A 
ATOM     23  C   UNL     1      -6.902 -11.052  18.492  0.00  0.00    +0.048 A 
ATOM     35  H   UNL     1      -8.419  -7.884  15.497  0.00  0.00    +0.149 HD
BRANCH  21  24
ATOM     24  C   UNL     1      -9.063 -11.896  19.304  0.00  0.00    +0.001 A 
ATOM     26  C   UNL     1     -10.380 -11.568  19.625  0.00  0.00    +0.012 A 
ATOM     27  C   UNL     1      -8.503 -13.078  19.788  0.00  0.00    +0.012 A 
ATOM     28  C   UNL     1     -10.575 -13.602  20.912  0.00  0.00    +0.029 A 
ATOM     29  C   UNL     1     -11.137 -12.420  20.429  0.00  0.00    +0.024 A 
ATOM     30  C   UNL     1      -9.258 -13.932  20.592  0.00  0.00    +0.024 A 
BRANCH  28  11
ATOM     11  N   UNL     1     -11.341 -14.465  21.725  0.00  0.00    -0.336 N 
ATOM     32  C   UNL     1     -11.135 -14.496  23.159  0.00  0.00    +0.129 C 
ATOM     33  C   UNL     1     -12.333 -15.341  21.135  0.00  0.00    +0.129 C 
ENDBRANCH  28  11
ENDBRANCH  21  24
ENDBRANCH  15   8
BRANCH  14   7
ATOM      4  O   UNL     1     -13.662  -3.574  13.355  0.00  0.00    -0.275 OA
ATOM      7  N   UNL     1     -11.878  -5.063  13.430  0.00  0.00    -0.307 N 
ATOM     18  C   UNL     1     -12.672  -4.091  12.839  0.00  0.00    +0.223 C 
ATOM     34  H   UNL     1     -11.117  -5.468  12.892  0.00  0.00    +0.149 HD
BRANCH  18  20
ATOM     20  C   UNL     1     -12.212  -3.716  11.450  0.00  0.00    +0.165 C 
BRANCH  20   1
ATOM      1  S   UNL     1     -12.140  -5.210  10.432  0.00  0.00    -0.140 S 
BRANCH   1  25
ATOM     25  C   UNL     1     -11.491  -4.469   8.915  0.00  0.00    +0.189 C 
BRANCH  25  31
ATOM      6  O   UNL     1      -9.639  -5.974   8.574  0.00  0.00    -0.250 OA
ATOM     31  C   UNL     1     -10.042  -4.833   8.764  0.00  0.00    +0.315 C 
BRANCH  31   5
ATOM      5  O   UNL     1      -9.220  -3.757   8.843  0.00  0.00    -0.480 OA
ATOM     36  H   UNL     1      -9.689  -2.921   8.631  0.00  0.00    +0.295 HD
ENDBRANCH  31   5
ENDBRANCH  25  31
ENDBRANCH   1  25
ENDBRANCH  20   1
ENDBRANCH  18  20
ENDBRANCH  14   7
TORSDOF 9
ENDMDL
MODEL 8
REMARK VINA RESULT:      -6.2     19.916     21.398
REMARK  Name = 11911875
REMARK  11 active torsions:
REMARK  status: ('A' for Active; 'I' for Inactive)
REMARK    1  A    between atoms: S_1  and  C_20
REMARK    2  A    between atoms: S_1  and  C_25
REMARK    3  A    between atoms: O_5  and  C_31
REMARK    4  A    between atoms: N_7  and  C_14
REMARK    5  A    between atoms: N_8  and  C_15
REMARK    6  A    between atoms: N_11  and  C_28
REMARK    7  A    between atoms: N_11  and  C_32
REMARK    8  A    between atoms: N_11  and  C_33
REMARK    9  A    between atoms: C_18  and  C_20
REMARK   10  A    between atoms: C_21  and  C_24
REMARK   11  A    between atoms: C_25  and  C_31
REMARK                            x       y       z     vdW  Elec       q    Type
REMARK                         _______ _______ _______ _____ _____    ______ ____
ROOT
ATOM      2  O   UNL     1      -3.563 -10.436  13.636  0.00  0.00    -0.370 OA
ATOM      3  O   UNL     1      -1.117 -11.615  15.174  0.00  0.00    -0.370 OA
ATOM     12  C   UNL     1      -2.207 -12.213  14.452  0.00  0.00    +0.171 C 
ATOM     13  C   UNL     1      -3.440 -11.372  14.721  0.00  0.00    +0.171 C 
ATOM     14  C   UNL     1      -1.987 -12.078  12.962  0.00  0.00    +0.130 C 
ATOM     15  C   UNL     1      -3.120 -10.646  16.006  0.00  0.00    +0.130 C 
ATOM     16  C   UNL     1      -2.522 -10.685  12.680  0.00  0.00    +0.185 C 
ATOM     17  C   UNL     1      -1.610 -10.509  15.943  0.00  0.00    +0.185 C 
ENDROOT
BRANCH  15   8
ATOM      8  N   UNL     1      -3.501 -11.458  17.141  0.00  0.00    -0.306 N 
ATOM      9  N   UNL     1      -5.697 -10.707  17.059  0.00  0.00    -0.214 NA
ATOM     10  N   UNL     1      -4.980 -12.296  18.723  0.00  0.00    -0.223 NA
ATOM     19  C   UNL     1      -4.782 -11.488  17.664  0.00  0.00    +0.216 A 
ATOM     21  C   UNL     1      -6.934 -10.761  17.595  0.00  0.00    +0.076 A 
ATOM     22  C   UNL     1      -6.239 -12.302  19.206  0.00  0.00    +0.116 A 
ATOM     23  C   UNL     1      -7.267 -11.547  18.678  0.00  0.00    +0.048 A 
ATOM     35  H   UNL     1      -2.821 -12.083  17.558  0.00  0.00    +0.149 HD
BRANCH  21  24
ATOM     24  C   UNL     1      -7.918  -9.925  16.950  0.00  0.00    +0.001 A 
ATOM     26  C   UNL     1      -8.187 -10.087  15.591  0.00  0.00    +0.012 A 
ATOM     27  C   UNL     1      -8.599  -8.954  17.685  0.00  0.00    +0.012 A 
ATOM     28  C   UNL     1      -9.817  -8.307  15.702  0.00  0.00    +0.029 A 
ATOM     29  C   UNL     1      -9.137  -9.278  14.967  0.00  0.00    +0.024 A 
ATOM     30  C   UNL     1      -9.548  -8.145  17.061  0.00  0.00    +0.024 A 
BRANCH  28  11
ATOM     11  N   UNL     1     -10.778  -7.489  15.070  0.00  0.00    -0.336 N 
ATOM     32  C   UNL     1     -11.601  -8.017  14.000  0.00  0.00    +0.129 C 
ATOM     33  C   UNL     1     -10.945  -6.107  15.473  0.00  0.00    +0.129 C 
ENDBRANCH  28  11
ENDBRANCH  21  24
ENDBRANCH  15   8
BRANCH  14   7
ATOM      4  O   UNL     1      -1.451 -14.921  12.855  0.00  0.00    -0.275 OA
ATOM      7  N   UNL     1      -2.726 -13.079  12.232  0.00  0.00    -0.307 N 
ATOM     18  C   UNL     1      -2.394 -14.426  12.240  0.00  0.00    +0.223 C 
ATOM     34  H   UNL     1      -3.490 -12.766  11.641  0.00  0.00    +0.149 HD
BRANCH  18  20
ATOM     20  C   UNL     1      -3.311 -15.266  11.382  0.00  0.00    +0.165 C 
BRANCH  20   1
ATOM      1  S   UNL     1      -5.021 -14.985  11.901  0.00  0.00    -0.140 S 
BRANCH   1  25
ATOM     25  C   UNL     1      -5.602 -14.094  10.437  0.00  0.00    +0.189 C 
BRANCH  25  31
ATOM      6  O   UNL     1      -6.622 -11.936  10.105  0.00  0.00    -0.250 OA
ATOM     31  C   UNL     1      -5.990 -12.697  10.826  0.00  0.00    +0.315 C 
BRANCH  31   5
ATOM      5  O   UNL     1      -5.578 -12.367  12.077  0.00  0.00    -0.480 OA
ATOM     36  H   UNL     1      -5.973 -12.952  12.759  0.00  0.00    +0.295 HD
ENDBRANCH  31   5
ENDBRANCH  25  31
ENDBRANCH   1  25
ENDBRANCH  20   1
ENDBRANCH  18  20
ENDBRANCH  14   7
TORSDOF 9
ENDMDL
MODEL 9
REMARK VINA RESULT:      -6.2      2.172      3.046
REMARK  Name = 11911875
REMARK  11 active torsions:
REMARK  status: ('A' for Active; 'I' for Inactive)
REMARK    1  A    between atoms: S_1  and  C_20
REMARK    2  A    between atoms: S_1  and  C_25
REMARK    3  A    between atoms: O_5  and  C_31
REMARK    4  A    between atoms: N_7  and  C_14
REMARK    5  A    between atoms: N_8  and  C_15
REMARK    6  A    between atoms: N_11  and  C_28
REMARK    7  A    between atoms: N_11  and  C_32
REMARK    8  A    between atoms: N_11  and  C_33
REMARK    9  A    between atoms: C_18  and  C_20
REMARK   10  A    between atoms: C_21  and  C_24
REMARK   11  A    between atoms: C_25  and  C_31
REMARK                            x       y       z     vdW  Elec       q    Type
REMARK                         _______ _______ _______ _____ _____    ______ ____
ROOT
ATOM      2  O   UNL     1     -13.866   5.126  23.221  0.00  0.00    -0.370 OA
ATOM      3  O   UNL     1     -16.501   5.806  21.694  0.00  0.00    -0.370 OA
ATOM     12  C   UNL     1     -15.427   6.610  22.209  0.00  0.00    +0.171 C 
ATOM     13  C   UNL     1     -14.982   5.984  23.517  0.00  0.00    +0.171 C 
ATOM     14  C   UNL     1     -14.212   6.498  21.316  0.00  0.00    +0.130 C 
ATOM     15  C   UNL     1     -16.172   5.163  23.957  0.00  0.00    +0.130 C 
ATOM     16  C   UNL     1     -13.550   5.230  21.826  0.00  0.00    +0.185 C 
ATOM     17  C   UNL     1     -16.811   4.771  22.638  0.00  0.00    +0.185 C 
ENDROOT
BRANCH  15   8
ATOM      8  N   UNL     1     -17.080   5.983  24.729  0.00  0.00    -0.306 N 
ATOM      9  N   UNL     1     -16.803   4.669  26.624  0.00  0.00    -0.214 NA
ATOM     10  N   UNL     1     -18.255   6.593  26.637  0.00  0.00    -0.223 NA
ATOM     19  C   UNL     1     -17.393   5.737  26.054  0.00  0.00    +0.216 A 
ATOM     21  C   UNL     1     -17.131   4.460  27.916  0.00  0.00    +0.076 A 
ATOM     22  C   UNL     1     -18.537   6.324  27.929  0.00  0.00    +0.116 A 
ATOM     23  C   UNL     1     -18.001   5.261  28.626  0.00  0.00    +0.048 A 
ATOM     35  H   UNL     1     -17.479   6.815  24.311  0.00  0.00    +0.149 HD
BRANCH  21  24
ATOM     24  C   UNL     1     -16.501   3.316  28.530  0.00  0.00    +0.001 A 
ATOM     26  C   UNL     1     -15.268   3.456  29.166  0.00  0.00    +0.012 A 
ATOM     27  C   UNL     1     -17.124   2.068  28.486  0.00  0.00    +0.012 A 
ATOM     28  C   UNL     1     -15.281   1.104  29.714  0.00  0.00    +0.029 A 
ATOM     29  C   UNL     1     -14.657   2.350  29.758  0.00  0.00    +0.024 A 
ATOM     30  C   UNL     1     -16.515   0.962  29.078  0.00  0.00    +0.024 A 
BRANCH  28  11
ATOM     11  N   UNL     1     -14.664  -0.014  30.314  0.00  0.00    -0.336 N 
ATOM     32  C   UNL     1     -15.131  -0.513  31.592  0.00  0.00    +0.129 C 
ATOM     33  C   UNL     1     -13.545  -0.670  29.667  0.00  0.00    +0.129 C 
ENDBRANCH  28  11
ENDBRANCH  21  24
ENDBRANCH  15   8
BRANCH  14   7
ATOM      4  O   UNL     1     -14.000   8.790  19.560  0.00  0.00    -0.275 OA
ATOM      7  N   UNL     1     -13.344   7.640  21.470  0.00  0.00    -0.307 N 
ATOM     18  C   UNL     1     -13.310   8.698  20.574  0.00  0.00    +0.223 C 
ATOM     34  H   UNL     1     -12.687   7.633  22.245  0.00  0.00    +0.149 HD
BRANCH  18  20
ATOM     20  C   UNL     1     -12.304   9.760  20.949  0.00  0.00    +0.165 C 
BRANCH  20   1
ATOM      1  S   UNL     1     -11.713  10.568  19.443  0.00  0.00    -0.140 S 
BRANCH   1  25
ATOM     25  C   UNL     1     -10.259   9.536  19.137  0.00  0.00    +0.189 C 
BRANCH  25  31
ATOM      6  O   UNL     1     -10.335   8.460  16.982  0.00  0.00    -0.250 OA
ATOM     31  C   UNL     1     -10.024   9.432  17.658  0.00  0.00    +0.315 C 
BRANCH  31   5
ATOM      5  O   UNL     1      -9.441  10.543  17.141  0.00  0.00    -0.480 OA
ATOM     36  H   UNL     1      -9.766  11.363  17.572  0.00  0.00    +0.295 HD
ENDBRANCH  31   5
ENDBRANCH  25  31
ENDBRANCH   1  25
ENDBRANCH  20   1
ENDBRANCH  18  20
ENDBRANCH  14   7
TORSDOF 9
ENDMDL
MODEL 10
REMARK VINA RESULT:      -6.1      6.407     10.987
REMARK  Name = 11911875
REMARK  11 active torsions:
REMARK  status: ('A' for Active; 'I' for Inactive)
REMARK    1  A    between atoms: S_1  and  C_20
REMARK    2  A    between atoms: S_1  and  C_25
REMARK    3  A    between atoms: O_5  and  C_31
REMARK    4  A    between atoms: N_7  and  C_14
REMARK    5  A    between atoms: N_8  and  C_15
REMARK    6  A    between atoms: N_11  and  C_28
REMARK    7  A    between atoms: N_11  and  C_32
REMARK    8  A    between atoms: N_11  and  C_33
REMARK    9  A    between atoms: C_18  and  C_20
REMARK   10  A    between atoms: C_21  and  C_24
REMARK   11  A    between atoms: C_25  and  C_31
REMARK                            x       y       z     vdW  Elec       q    Type
REMARK                         _______ _______ _______ _____ _____    ______ ____
ROOT
ATOM      2  O   UNL     1     -13.362   3.119  30.758  0.00  0.00    -0.370 OA
ATOM      3  O   UNL     1     -16.056   2.865  32.313  0.00  0.00    -0.370 OA
ATOM     12  C   UNL     1     -15.733   2.994  30.918  0.00  0.00    +0.171 C 
ATOM     13  C   UNL     1     -14.547   3.933  30.815  0.00  0.00    +0.171 C 
ATOM     14  C   UNL     1     -15.212   1.682  30.377  0.00  0.00    +0.130 C 
ATOM     15  C   UNL     1     -14.582   4.717  32.105  0.00  0.00    +0.130 C 
ATOM     16  C   UNL     1     -13.742   1.735  30.754  0.00  0.00    +0.185 C 
ATOM     17  C   UNL     1     -15.203   3.730  33.077  0.00  0.00    +0.185 C 
ENDROOT
BRANCH  15   8
ATOM      8  N   UNL     1     -15.435   5.876  31.957  0.00  0.00    -0.306 N 
ATOM      9  N   UNL     1     -14.145   7.130  33.425  0.00  0.00    -0.214 NA
ATOM     10  N   UNL     1     -16.100   8.062  32.369  0.00  0.00    -0.223 NA
ATOM     19  C   UNL     1     -15.217   7.075  32.612  0.00  0.00    +0.216 A 
ATOM     21  C   UNL     1     -13.963   8.313  34.048  0.00  0.00    +0.076 A 
ATOM     22  C   UNL     1     -15.856   9.217  33.023  0.00  0.00    +0.116 A 
ATOM     23  C   UNL     1     -14.794   9.402  33.884  0.00  0.00    +0.048 A 
ATOM     35  H   UNL     1     -16.209   5.845  31.303  0.00  0.00    +0.149 HD
BRANCH  21  24
ATOM     24  C   UNL     1     -12.815   8.376  34.920  0.00  0.00    +0.001 A 
ATOM     26  C   UNL     1     -11.798   9.298  34.670  0.00  0.00    +0.012 A 
ATOM     27  C   UNL     1     -12.719   7.513  36.012  0.00  0.00    +0.012 A 
ATOM     28  C   UNL     1     -10.593   8.495  36.603  0.00  0.00    +0.029 A 
ATOM     29  C   UNL     1     -10.687   9.358  35.511  0.00  0.00    +0.024 A 
ATOM     30  C   UNL     1     -11.609   7.573  36.854  0.00  0.00    +0.024 A 
BRANCH  28  11
ATOM     11  N   UNL     1      -9.470   8.556  37.455  0.00  0.00    -0.336 N 
ATOM     32  C   UNL     1      -9.641   8.696  38.887  0.00  0.00    +0.129 C 
ATOM     33  C   UNL     1      -8.129   8.495  36.907  0.00  0.00    +0.129 C 
ENDBRANCH  28  11
ENDBRANCH  21  24
ENDBRANCH  15   8
BRANCH  14   7
ATOM      4  O   UNL     1     -17.356   0.376  28.935  0.00  0.00    -0.275 OA
ATOM      7  N   UNL     1     -15.381   1.603  28.946  0.00  0.00    -0.307 N 
ATOM     18  C   UNL     1     -16.446   0.953  28.340  0.00  0.00    +0.223 C 
ATOM     34  H   UNL     1     -14.650   1.996  28.361  0.00  0.00    +0.149 HD
BRANCH  18  20
ATOM     20  C   UNL     1     -16.385   0.997  26.832  0.00  0.00    +0.165 C 
BRANCH  20   1
ATOM      1  S   UNL     1     -17.370   2.396  26.244  0.00  0.00    -0.140 S 
BRANCH   1  25
ATOM     25  C   UNL     1     -16.034   3.598  26.041  0.00  0.00    +0.189 C 
BRANCH  25  31
ATOM      6  O   UNL     1     -15.178   4.705  24.078  0.00  0.00    -0.250 OA
ATOM     31  C   UNL     1     -15.683   3.711  24.586  0.00  0.00    +0.315 C 
BRANCH  31   5
ATOM      5  O   UNL     1     -15.971   2.584  23.888  0.00  0.00    -0.480 OA
ATOM     36  H   UNL     1     -15.159   2.135  23.566  0.00  0.00    +0.295 HD
ENDBRANCH  31   5
ENDBRANCH  25  31
ENDBRANCH   1  25
ENDBRANCH  20   1
ENDBRANCH  18  20
ENDBRANCH  14   7
TORSDOF 9
ENDMDL
