MODEL 1
REMARK VINA RESULT:      -7.6      0.000      0.000
REMARK  Name = 7155494
REMARK  4 active torsions:
REMARK  status: ('A' for Active; 'I' for Inactive)
REMARK    1  A    between atoms: N_6  and  C_17
REMARK    2  A    between atoms: C_16  and  C_19
REMARK    3  A    between atoms: C_22  and  C_26
REMARK    4  A    between atoms: C_25  and  C_27
REMARK                            x       y       z     vdW  Elec       q    Type
REMARK                         _______ _______ _______ _____ _____    ______ ____
ROOT
ATOM      1  O   UNL     1     -12.300  -7.510   9.259  0.00  0.00    -0.266 OA
ATOM      2  O   UNL     1     -16.578  -5.011  10.747  0.00  0.00    -0.270 OA
ATOM      4  N   UNL     1     -14.810  -4.245  12.076  0.00  0.00    -0.297 N 
ATOM      5  N   UNL     1     -12.331  -5.791  10.840  0.00  0.00    -0.310 N 
ATOM      7  C   UNL     1     -13.445  -6.038  13.133  0.00  0.00    +0.027 C 
ATOM      8  C   UNL     1     -12.389  -3.903  12.509  0.00  0.00    +0.054 C 
ATOM      9  C   UNL     1     -12.431  -4.991  13.581  0.00  0.00    +0.018 C 
ATOM     10  C   UNL     1     -14.838  -5.402  12.971  0.00  0.00    +0.113 C 
ATOM     11  C   UNL     1     -12.949  -6.681  11.832  0.00  0.00    +0.130 C 
ATOM     12  C   UNL     1     -13.777  -3.244  12.386  0.00  0.00    +0.117 C 
ATOM     13  C   UNL     1     -11.976  -4.477  11.165  0.00  0.00    +0.027 A 
ATOM     14  C   UNL     1     -11.307  -3.718  10.282  0.00  0.00    +0.024 A 
ATOM     15  C   UNL     1     -12.024  -6.355   9.585  0.00  0.00    +0.273 A 
ATOM     16  C   UNL     1     -15.714  -4.177  11.012  0.00  0.00    +0.247 C 
ATOM     17  C   UNL     1     -11.303  -5.467   8.618  0.00  0.00    +0.099 A 
ATOM     18  C   UNL     1     -10.966  -4.226   8.983  0.00  0.00    +0.030 A 
ENDROOT
BRANCH  16  19
ATOM     19  C   UNL     1     -15.625  -3.025  10.109  0.00  0.00    +0.037 A 
ATOM     20  C   UNL     1     -16.362  -1.875  10.379  0.00  0.00    +0.013 A 
ATOM     21  C   UNL     1     -14.802  -3.087   8.988  0.00  0.00    +0.013 A 
ATOM     23  C   UNL     1     -16.275  -0.778   9.520  0.00  0.00    +0.009 A 
ATOM     24  C   UNL     1     -14.715  -1.991   8.129  0.00  0.00    +0.009 A 
ATOM     25  C   UNL     1     -15.452  -0.836   8.396  0.00  0.00    -0.018 A 
BRANCH  25  27
ATOM     27  C   UNL     1     -15.363   0.301   7.504  0.00  0.00    -0.018 A 
ATOM     30  C   UNL     1     -14.134   0.925   7.291  0.00  0.00    +0.008 A 
ATOM     31  C   UNL     1     -16.506   0.770   6.859  0.00  0.00    +0.008 A 
ATOM     34  C   UNL     1     -14.049   2.019   6.431  0.00  0.00    +0.001 A 
ATOM     35  C   UNL     1     -16.421   1.865   5.998  0.00  0.00    +0.001 A 
ATOM     37  C   UNL     1     -15.191   2.489   5.784  0.00  0.00    +0.000 A 
ENDBRANCH  25  27
ENDBRANCH  16  19
BRANCH  17   6
ATOM      3  O   UNL     1      -8.890  -6.803   7.885  0.00  0.00    -0.270 OA
ATOM      6  N   UNL     1     -11.004  -5.970   7.387  0.00  0.00    -0.277 N 
ATOM     22  C   UNL     1      -9.809  -6.611   7.092  0.00  0.00    +0.248 C 
ATOM     38  H   UNL     1     -11.652  -5.716   6.650  0.00  0.00    +0.155 HD
BRANCH  22  26
ATOM     26  C   UNL     1      -9.674  -7.112   5.699  0.00  0.00    +0.037 A 
ATOM     28  C   UNL     1     -10.749  -6.996   4.842  0.00  0.00    +0.013 A 
ATOM     29  C   UNL     1      -8.478  -7.676   5.308  0.00  0.00    +0.013 A 
ATOM     32  C   UNL     1     -10.621  -7.465   3.535  0.00  0.00    +0.001 A 
ATOM     33  C   UNL     1      -8.349  -8.146   4.002  0.00  0.00    +0.001 A 
ATOM     36  C   UNL     1      -9.421  -8.041   3.115  0.00  0.00    +0.000 A 
ENDBRANCH  22  26
ENDBRANCH  17   6
TORSDOF 4
ENDMDL
MODEL 2
REMARK VINA RESULT:      -7.6     26.042     29.034
REMARK  Name = 7155494
REMARK  4 active torsions:
REMARK  status: ('A' for Active; 'I' for Inactive)
REMARK    1  A    between atoms: N_6  and  C_17
REMARK    2  A    between atoms: C_16  and  C_19
REMARK    3  A    between atoms: C_22  and  C_26
REMARK    4  A    between atoms: C_25  and  C_27
REMARK                            x       y       z     vdW  Elec       q    Type
REMARK                         _______ _______ _______ _____ _____    ______ ____
ROOT
ATOM      1  O   UNL     1      14.720   8.061   0.466  0.00  0.00    -0.266 OA
ATOM      2  O   UNL     1       9.708   8.941   1.396  0.00  0.00    -0.270 OA
ATOM      4  N   UNL     1       9.896   6.789   0.495  0.00  0.00    -0.297 N 
ATOM      5  N   UNL     1      13.037   6.464   0.199  0.00  0.00    -0.310 N 
ATOM      7  C   UNL     1      11.227   6.647  -1.603  0.00  0.00    +0.027 C 
ATOM      8  C   UNL     1      11.206   4.748  -0.037  0.00  0.00    +0.054 C 
ATOM      9  C   UNL     1      11.186   5.125  -1.517  0.00  0.00    +0.018 C 
ATOM     10  C   UNL     1      10.009   7.259  -0.886  0.00  0.00    +0.113 C 
ATOM     11  C   UNL     1      12.553   7.141  -1.012  0.00  0.00    +0.130 C 
ATOM     12  C   UNL     1       9.960   5.328   0.662  0.00  0.00    +0.117 C 
ATOM     13  C   UNL     1      12.460   5.268   0.641  0.00  0.00    +0.027 A 
ATOM     14  C   UNL     1      12.991   4.604   1.682  0.00  0.00    +0.024 A 
ATOM     15  C   UNL     1      14.168   7.022   0.829  0.00  0.00    +0.273 A 
ATOM     16  C   UNL     1       9.761   7.719   1.529  0.00  0.00    +0.247 C 
ATOM     17  C   UNL     1      14.712   6.267   2.002  0.00  0.00    +0.099 A 
ATOM     18  C   UNL     1      14.140   5.117   2.374  0.00  0.00    +0.030 A 
ENDROOT
BRANCH  16  19
ATOM     19  C   UNL     1       9.697   7.213   2.904  0.00  0.00    +0.037 A 
ATOM     20  C   UNL     1      10.823   6.630   3.481  0.00  0.00    +0.013 A 
ATOM     21  C   UNL     1       8.512   7.320   3.626  0.00  0.00    +0.013 A 
ATOM     23  C   UNL     1      10.761   6.151   4.790  0.00  0.00    +0.009 A 
ATOM     24  C   UNL     1       8.450   6.841   4.935  0.00  0.00    +0.009 A 
ATOM     25  C   UNL     1       9.576   6.257   5.517  0.00  0.00    -0.018 A 
BRANCH  25  27
ATOM     27  C   UNL     1       9.512   5.758   6.874  0.00  0.00    -0.018 A 
ATOM     30  C   UNL     1       9.106   6.601   7.908  0.00  0.00    +0.008 A 
ATOM     31  C   UNL     1       9.855   4.435   7.146  0.00  0.00    +0.008 A 
ATOM     34  C   UNL     1       9.043   6.120   9.215  0.00  0.00    +0.001 A 
ATOM     35  C   UNL     1       9.793   3.953   8.454  0.00  0.00    +0.001 A 
ATOM     37  C   UNL     1       9.386   4.796   9.489  0.00  0.00    +0.000 A 
ENDBRANCH  25  27
ENDBRANCH  16  19
BRANCH  17   6
ATOM      3  O   UNL     1      14.651   7.995   4.273  0.00  0.00    -0.270 OA
ATOM      6  N   UNL     1      15.795   6.784   2.650  0.00  0.00    -0.277 N 
ATOM     22  C   UNL     1      15.700   7.622   3.752  0.00  0.00    +0.248 C 
ATOM     38  H   UNL     1      16.684   6.639   2.185  0.00  0.00    +0.155 HD
BRANCH  22  26
ATOM     26  C   UNL     1      16.991   8.067   4.337  0.00  0.00    +0.037 A 
ATOM     28  C   UNL     1      18.115   8.078   3.537  0.00  0.00    +0.013 A 
ATOM     29  C   UNL     1      17.025   8.453   5.660  0.00  0.00    +0.013 A 
ATOM     32  C   UNL     1      19.328   8.498   4.086  0.00  0.00    +0.001 A 
ATOM     33  C   UNL     1      18.236   8.872   6.210  0.00  0.00    +0.001 A 
ATOM     36  C   UNL     1      19.388   8.894   5.423  0.00  0.00    +0.000 A 
ENDBRANCH  22  26
ENDBRANCH  17   6
TORSDOF 4
ENDMDL
MODEL 3
REMARK VINA RESULT:      -7.5     32.977     35.687
REMARK  Name = 7155494
REMARK  4 active torsions:
REMARK  status: ('A' for Active; 'I' for Inactive)
REMARK    1  A    between atoms: N_6  and  C_17
REMARK    2  A    between atoms: C_16  and  C_19
REMARK    3  A    between atoms: C_22  and  C_26
REMARK    4  A    between atoms: C_25  and  C_27
REMARK                            x       y       z     vdW  Elec       q    Type
REMARK                         _______ _______ _______ _____ _____    ______ ____
ROOT
ATOM      1  O   UNL     1      13.072  10.613  23.149  0.00  0.00    -0.266 OA
ATOM      2  O   UNL     1      13.586   6.240  20.434  0.00  0.00    -0.270 OA
ATOM      4  N   UNL     1      13.941   8.031  18.970  0.00  0.00    -0.297 N 
ATOM      5  N   UNL     1      13.745  10.529  20.914  0.00  0.00    -0.310 N 
ATOM      7  C   UNL     1      12.182   9.790  19.024  0.00  0.00    +0.027 C 
ATOM      8  C   UNL     1      14.510  10.404  18.516  0.00  0.00    +0.054 C 
ATOM      9  C   UNL     1      13.054  10.679  18.145  0.00  0.00    +0.018 C 
ATOM     10  C   UNL     1      12.516   8.306  18.787  0.00  0.00    +0.113 C 
ATOM     11  C   UNL     1      12.377  10.198  20.489  0.00  0.00    +0.130 C 
ATOM     12  C   UNL     1      14.847   8.926  18.232  0.00  0.00    +0.117 C 
ATOM     13  C   UNL     1      14.769  10.715  19.979  0.00  0.00    +0.027 A 
ATOM     14  C   UNL     1      15.982  11.131  20.378  0.00  0.00    +0.024 A 
ATOM     15  C   UNL     1      13.946  10.747  22.291  0.00  0.00    +0.273 A 
ATOM     16  C   UNL     1      14.337   6.991  19.815  0.00  0.00    +0.247 C 
ATOM     17  C   UNL     1      15.320  11.182  22.699  0.00  0.00    +0.099 A 
ATOM     18  C   UNL     1      16.260  11.367  21.767  0.00  0.00    +0.030 A 
ENDROOT
BRANCH  16  19
ATOM     19  C   UNL     1      15.775   6.775  20.010  0.00  0.00    +0.037 A 
ATOM     20  C   UNL     1      16.493   6.017  19.088  0.00  0.00    +0.013 A 
ATOM     21  C   UNL     1      16.415   7.332  21.113  0.00  0.00    +0.013 A 
ATOM     23  C   UNL     1      17.861   5.813  19.273  0.00  0.00    +0.009 A 
ATOM     24  C   UNL     1      17.783   7.129  21.298  0.00  0.00    +0.009 A 
ATOM     25  C   UNL     1      18.505   6.370  20.377  0.00  0.00    -0.018 A 
BRANCH  25  27
ATOM     27  C   UNL     1      19.924   6.158  20.569  0.00  0.00    -0.018 A 
ATOM     30  C   UNL     1      20.770   7.247  20.778  0.00  0.00    +0.008 A 
ATOM     31  C   UNL     1      20.444   4.865  20.547  0.00  0.00    +0.008 A 
ATOM     34  C   UNL     1      22.137   7.042  20.965  0.00  0.00    +0.001 A 
ATOM     35  C   UNL     1      21.811   4.660  20.734  0.00  0.00    +0.001 A 
ATOM     37  C   UNL     1      22.658   5.749  20.944  0.00  0.00    +0.000 A 
ENDBRANCH  25  27
ENDBRANCH  16  19
BRANCH  17   6
ATOM      3  O   UNL     1      14.656  13.523  24.191  0.00  0.00    -0.270 OA
ATOM      6  N   UNL     1      15.560  11.386  24.026  0.00  0.00    -0.277 N 
ATOM     22  C   UNL     1      15.212  12.550  24.697  0.00  0.00    +0.248 C 
ATOM     38  H   UNL     1      16.147  10.688  24.469  0.00  0.00    +0.155 HD
BRANCH  22  26
ATOM     26  C   UNL     1      15.535  12.579  26.147  0.00  0.00    +0.037 A 
ATOM     28  C   UNL     1      14.552  12.954  27.040  0.00  0.00    +0.013 A 
ATOM     29  C   UNL     1      16.805  12.230  26.553  0.00  0.00    +0.013 A 
ATOM     32  C   UNL     1      14.855  12.979  28.402  0.00  0.00    +0.001 A 
ATOM     33  C   UNL     1      17.109  12.256  27.913  0.00  0.00    +0.001 A 
ATOM     36  C   UNL     1      16.134  12.631  28.838  0.00  0.00    +0.000 A 
ENDBRANCH  22  26
ENDBRANCH  17   6
TORSDOF 4
ENDMDL
MODEL 4
REMARK VINA RESULT:      -7.5     27.064     29.123
REMARK  Name = 7155494
REMARK  4 active torsions:
REMARK  status: ('A' for Active; 'I' for Inactive)
REMARK    1  A    between atoms: N_6  and  C_17
REMARK    2  A    between atoms: C_16  and  C_19
REMARK    3  A    between atoms: C_22  and  C_26
REMARK    4  A    between atoms: C_25  and  C_27
REMARK                            x       y       z     vdW  Elec       q    Type
REMARK                         _______ _______ _______ _____ _____    ______ ____
ROOT
ATOM      1  O   UNL     1      12.858   7.339   3.595  0.00  0.00    -0.266 OA
ATOM      2  O   UNL     1       9.349  10.877   4.985  0.00  0.00    -0.270 OA
ATOM      4  N   UNL     1       8.745   8.849   5.983  0.00  0.00    -0.297 N 
ATOM      5  N   UNL     1      11.130   6.945   5.117  0.00  0.00    -0.310 N 
ATOM      7  C   UNL     1       8.663   6.905   4.432  0.00  0.00    +0.027 C 
ATOM      8  C   UNL     1       9.284   6.563   6.789  0.00  0.00    +0.054 C 
ATOM      9  C   UNL     1       8.493   5.969   5.625  0.00  0.00    +0.018 C 
ATOM     10  C   UNL     1       8.131   8.309   4.770  0.00  0.00    +0.113 C 
ATOM     11  C   UNL     1      10.143   6.929   4.030  0.00  0.00    +0.130 C 
ATOM     12  C   UNL     1       8.714   7.950   7.148  0.00  0.00    +0.117 C 
ATOM     13  C   UNL     1      10.756   6.690   6.441  0.00  0.00    +0.027 A 
ATOM     14  C   UNL     1      11.689   6.593   7.402  0.00  0.00    +0.024 A 
ATOM     15  C   UNL     1      12.478   7.129   4.748  0.00  0.00    +0.273 A 
ATOM     16  C   UNL     1       9.320  10.122   5.955  0.00  0.00    +0.247 C 
ATOM     17  C   UNL     1      13.485   7.043   5.853  0.00  0.00    +0.099 A 
ATOM     18  C   UNL     1      13.081   6.775   7.099  0.00  0.00    +0.030 A 
ENDROOT
BRANCH  16  19
ATOM     19  C   UNL     1       9.967  10.610   7.177  0.00  0.00    +0.037 A 
ATOM     20  C   UNL     1       9.212  11.265   8.148  0.00  0.00    +0.013 A 
ATOM     21  C   UNL     1      11.333  10.415   7.362  0.00  0.00    +0.013 A 
ATOM     23  C   UNL     1       9.828  11.727   9.311  0.00  0.00    +0.009 A 
ATOM     24  C   UNL     1      11.949  10.877   8.526  0.00  0.00    +0.009 A 
ATOM     25  C   UNL     1      11.196  11.532   9.500  0.00  0.00    -0.018 A 
BRANCH  25  27
ATOM     27  C   UNL     1      11.835  12.013  10.707  0.00  0.00    -0.018 A 
ATOM     30  C   UNL     1      13.171  12.414  10.676  0.00  0.00    +0.008 A 
ATOM     31  C   UNL     1      11.115  12.076  11.898  0.00  0.00    +0.008 A 
ATOM     34  C   UNL     1      13.786  12.879  11.837  0.00  0.00    +0.001 A 
ATOM     35  C   UNL     1      11.730  12.541  13.061  0.00  0.00    +0.001 A 
ATOM     37  C   UNL     1      13.066  12.943  13.031  0.00  0.00    +0.000 A 
ENDBRANCH  25  27
ENDBRANCH  16  19
BRANCH  17   6
ATOM      3  O   UNL     1      14.981   9.441   6.247  0.00  0.00    -0.270 OA
ATOM      6  N   UNL     1      14.798   7.233   5.539  0.00  0.00    -0.277 N 
ATOM     22  C   UNL     1      15.472   8.427   5.756  0.00  0.00    +0.248 C 
ATOM     38  H   UNL     1      15.222   6.490   4.995  0.00  0.00    +0.155 HD
BRANCH  22  26
ATOM     26  C   UNL     1      16.907   8.436   5.369  0.00  0.00    +0.037 A 
ATOM     28  C   UNL     1      17.248   8.124   4.070  0.00  0.00    +0.013 A 
ATOM     29  C   UNL     1      17.850   8.756   6.322  0.00  0.00    +0.013 A 
ATOM     32  C   UNL     1      18.596   8.135   3.707  0.00  0.00    +0.001 A 
ATOM     33  C   UNL     1      19.197   8.766   5.961  0.00  0.00    +0.001 A 
ATOM     36  C   UNL     1      19.570   8.455   4.653  0.00  0.00    +0.000 A 
ENDBRANCH  22  26
ENDBRANCH  17   6
TORSDOF 4
ENDMDL
MODEL 5
REMARK VINA RESULT:      -7.4      8.373     12.948
REMARK  Name = 7155494
REMARK  4 active torsions:
REMARK  status: ('A' for Active; 'I' for Inactive)
REMARK    1  A    between atoms: N_6  and  C_17
REMARK    2  A    between atoms: C_16  and  C_19
REMARK    3  A    between atoms: C_22  and  C_26
REMARK    4  A    between atoms: C_25  and  C_27
REMARK                            x       y       z     vdW  Elec       q    Type
REMARK                         _______ _______ _______ _____ _____    ______ ____
ROOT
ATOM      1  O   UNL     1     -10.762  -9.185  18.180  0.00  0.00    -0.266 OA
ATOM      2  O   UNL     1      -5.808 -10.156  19.315  0.00  0.00    -0.270 OA
ATOM      4  N   UNL     1      -6.816 -12.188  18.737  0.00  0.00    -0.297 N 
ATOM      5  N   UNL     1      -9.744 -11.273  17.932  0.00  0.00    -0.310 N 
ATOM      7  C   UNL     1      -8.948 -12.672  19.925  0.00  0.00    +0.027 C 
ATOM      8  C   UNL     1      -8.609 -13.503  17.633  0.00  0.00    +0.054 C 
ATOM      9  C   UNL     1      -9.183 -13.863  19.002  0.00  0.00    +0.018 C 
ATOM     10  C   UNL     1      -7.443 -12.374  20.046  0.00  0.00    +0.113 C 
ATOM     11  C   UNL     1      -9.733 -11.468  19.389  0.00  0.00    +0.130 C 
ATOM     12  C   UNL     1      -7.093 -13.251  17.758  0.00  0.00    +0.117 C 
ATOM     13  C   UNL     1      -9.286 -12.270  17.064  0.00  0.00    +0.027 A 
ATOM     14  C   UNL     1      -9.413 -12.121  15.735  0.00  0.00    +0.024 A 
ATOM     15  C   UNL     1     -10.329 -10.082  17.456  0.00  0.00    +0.273 A 
ATOM     16  C   UNL     1      -6.043 -11.048  18.501  0.00  0.00    +0.247 C 
ATOM     17  C   UNL     1     -10.425  -9.941  15.968  0.00  0.00    +0.099 A 
ATOM     18  C   UNL     1      -9.993 -10.931  15.179  0.00  0.00    +0.030 A 
ENDROOT
BRANCH  16  19
ATOM     19  C   UNL     1      -5.469 -10.872  17.163  0.00  0.00    +0.037 A 
ATOM     20  C   UNL     1      -4.177 -11.319  16.900  0.00  0.00    +0.013 A 
ATOM     21  C   UNL     1      -6.220 -10.262  16.163  0.00  0.00    +0.013 A 
ATOM     23  C   UNL     1      -3.632 -11.154  15.626  0.00  0.00    +0.009 A 
ATOM     24  C   UNL     1      -5.676 -10.097  14.889  0.00  0.00    +0.009 A 
ATOM     25  C   UNL     1      -4.382 -10.544  14.621  0.00  0.00    -0.018 A 
BRANCH  25  27
ATOM     27  C   UNL     1      -3.816 -10.371  13.300  0.00  0.00    -0.018 A 
ATOM     30  C   UNL     1      -4.647 -10.084  12.217  0.00  0.00    +0.008 A 
ATOM     31  C   UNL     1      -2.440 -10.491  13.111  0.00  0.00    +0.008 A 
ATOM     34  C   UNL     1      -4.102  -9.916  10.945  0.00  0.00    +0.001 A 
ATOM     35  C   UNL     1      -1.894 -10.323  11.838  0.00  0.00    +0.001 A 
ATOM     37  C   UNL     1      -2.725 -10.035  10.754  0.00  0.00    +0.000 A 
ENDBRANCH  25  27
ENDBRANCH  16  19
BRANCH  17   6
ATOM      3  O   UNL     1     -13.180  -9.507  15.363  0.00  0.00    -0.270 OA
ATOM      6  N   UNL     1     -10.968  -8.795  15.467  0.00  0.00    -0.277 N 
ATOM     22  C   UNL     1     -12.321  -8.645  15.193  0.00  0.00    +0.248 C 
ATOM     38  H   UNL     1     -10.297  -8.098  15.164  0.00  0.00    +0.155 HD
BRANCH  22  26
ATOM     26  C   UNL     1     -12.728  -7.315  14.672  0.00  0.00    +0.037 A 
ATOM     28  C   UNL     1     -11.769  -6.334  14.526  0.00  0.00    +0.013 A 
ATOM     29  C   UNL     1     -14.052  -7.103  14.352  0.00  0.00    +0.013 A 
ATOM     32  C   UNL     1     -12.152  -5.085  14.036  0.00  0.00    +0.001 A 
ATOM     33  C   UNL     1     -14.436  -5.855  13.862  0.00  0.00    +0.001 A 
ATOM     36  C   UNL     1     -13.486  -4.846  13.704  0.00  0.00    +0.000 A 
ENDBRANCH  22  26
ENDBRANCH  17   6
TORSDOF 4
ENDMDL
MODEL 6
REMARK VINA RESULT:      -7.4     26.895     29.800
REMARK  Name = 7155494
REMARK  4 active torsions:
REMARK  status: ('A' for Active; 'I' for Inactive)
REMARK    1  A    between atoms: N_6  and  C_17
REMARK    2  A    between atoms: C_16  and  C_19
REMARK    3  A    between atoms: C_22  and  C_26
REMARK    4  A    between atoms: C_25  and  C_27
REMARK                            x       y       z     vdW  Elec       q    Type
REMARK                         _______ _______ _______ _____ _____    ______ ____
ROOT
ATOM      1  O   UNL     1      14.233   7.357   6.766  0.00  0.00    -0.266 OA
ATOM      2  O   UNL     1      10.543   4.250   4.896  0.00  0.00    -0.270 OA
ATOM      4  N   UNL     1       9.904   6.458   4.454  0.00  0.00    -0.297 N 
ATOM      5  N   UNL     1      12.394   8.101   5.531  0.00  0.00    -0.310 N 
ATOM      7  C   UNL     1       9.993   7.985   6.417  0.00  0.00    +0.027 C 
ATOM      8  C   UNL     1      10.424   8.868   4.159  0.00  0.00    +0.054 C 
ATOM      9  C   UNL     1       9.746   9.174   5.494  0.00  0.00    +0.018 C 
ATOM     10  C   UNL     1       9.404   6.700   5.808  0.00  0.00    +0.113 C 
ATOM     11  C   UNL     1      11.500   7.864   6.674  0.00  0.00    +0.130 C 
ATOM     12  C   UNL     1       9.796   7.604   3.537  0.00  0.00    +0.117 C 
ATOM     13  C   UNL     1      11.916   8.659   4.341  0.00  0.00    +0.027 A 
ATOM     14  C   UNL     1      12.769   8.976   3.352  0.00  0.00    +0.024 A 
ATOM     15  C   UNL     1      13.763   7.832   5.731  0.00  0.00    +0.273 A 
ATOM     16  C   UNL     1      10.450   5.212   4.135  0.00  0.00    +0.247 C 
ATOM     17  C   UNL     1      14.677   8.172   4.594  0.00  0.00    +0.099 A 
ATOM     18  C   UNL     1      14.176   8.725   3.484  0.00  0.00    +0.030 A 
ENDROOT
BRANCH  16  19
ATOM     19  C   UNL     1      10.982   5.021   2.782  0.00  0.00    +0.037 A 
ATOM     20  C   UNL     1      10.162   4.507   1.781  0.00  0.00    +0.013 A 
ATOM     21  C   UNL     1      12.304   5.359   2.505  0.00  0.00    +0.013 A 
ATOM     23  C   UNL     1      10.669   4.328   0.493  0.00  0.00    +0.009 A 
ATOM     24  C   UNL     1      12.811   5.180   1.218  0.00  0.00    +0.009 A 
ATOM     25  C   UNL     1      11.993   4.666   0.211  0.00  0.00    -0.018 A 
BRANCH  25  27
ATOM     27  C   UNL     1      12.519   4.479  -1.124  0.00  0.00    -0.018 A 
ATOM     30  C   UNL     1      13.261   5.493  -1.729  0.00  0.00    +0.008 A 
ATOM     31  C   UNL     1      12.284   3.285  -1.804  0.00  0.00    +0.008 A 
ATOM     34  C   UNL     1      13.770   5.313  -3.015  0.00  0.00    +0.001 A 
ATOM     35  C   UNL     1      12.792   3.105  -3.091  0.00  0.00    +0.001 A 
ATOM     37  C   UNL     1      13.536   4.118  -3.696  0.00  0.00    +0.000 A 
ENDBRANCH  25  27
ENDBRANCH  16  19
BRANCH  17   6
ATOM      3  O   UNL     1      16.653   9.988   5.564  0.00  0.00    -0.270 OA
ATOM      6  N   UNL     1      16.007   7.911   4.741  0.00  0.00    -0.277 N 
ATOM     22  C   UNL     1      16.921   8.839   5.219  0.00  0.00    +0.248 C 
ATOM     38  H   UNL     1      16.320   7.035   4.337  0.00  0.00    +0.155 HD
BRANCH  22  26
ATOM     26  C   UNL     1      18.324   8.363   5.330  0.00  0.00    +0.037 A 
ATOM     28  C   UNL     1      18.917   7.775   4.232  0.00  0.00    +0.013 A 
ATOM     29  C   UNL     1      18.989   8.525   6.527  0.00  0.00    +0.013 A 
ATOM     32  C   UNL     1      20.235   7.330   4.336  0.00  0.00    +0.001 A 
ATOM     33  C   UNL     1      20.306   8.079   6.633  0.00  0.00    +0.001 A 
ATOM     36  C   UNL     1      20.929   7.481   5.537  0.00  0.00    +0.000 A 
ENDBRANCH  22  26
ENDBRANCH  17   6
TORSDOF 4
ENDMDL
MODEL 7
REMARK VINA RESULT:      -7.3     27.623     31.148
REMARK  Name = 7155494
REMARK  4 active torsions:
REMARK  status: ('A' for Active; 'I' for Inactive)
REMARK    1  A    between atoms: N_6  and  C_17
REMARK    2  A    between atoms: C_16  and  C_19
REMARK    3  A    between atoms: C_22  and  C_26
REMARK    4  A    between atoms: C_25  and  C_27
REMARK                            x       y       z     vdW  Elec       q    Type
REMARK                         _______ _______ _______ _____ _____    ______ ____
ROOT
ATOM      1  O   UNL     1      -6.326  -8.007  38.852  0.00  0.00    -0.266 OA
ATOM      2  O   UNL     1      -6.397 -11.979  35.538  0.00  0.00    -0.270 OA
ATOM      4  N   UNL     1      -6.607 -12.853  37.699  0.00  0.00    -0.297 N 
ATOM      5  N   UNL     1      -6.713 -10.226  39.472  0.00  0.00    -0.310 N 
ATOM      7  C   UNL     1      -4.909 -12.039  39.326  0.00  0.00    +0.027 C 
ATOM      8  C   UNL     1      -7.170 -12.621  40.106  0.00  0.00    +0.054 C 
ATOM      9  C   UNL     1      -5.686 -12.704  40.458  0.00  0.00    +0.018 C 
ATOM     10  C   UNL     1      -5.177 -12.762  37.993  0.00  0.00    +0.113 C 
ATOM     11  C   UNL     1      -5.296 -10.556  39.266  0.00  0.00    +0.130 C 
ATOM     12  C   UNL     1      -7.434 -13.386  38.793  0.00  0.00    +0.117 C 
ATOM     13  C   UNL     1      -7.616 -11.179  39.955  0.00  0.00    +0.027 A 
ATOM     14  C   UNL     1      -8.879 -10.827  40.248  0.00  0.00    +0.024 A 
ATOM     15  C   UNL     1      -7.089  -8.885  39.258  0.00  0.00    +0.273 A 
ATOM     16  C   UNL     1      -7.083 -12.426  36.456  0.00  0.00    +0.247 C 
ATOM     17  C   UNL     1      -8.513  -8.539  39.569  0.00  0.00    +0.099 A 
ATOM     18  C   UNL     1      -9.333  -9.479  40.049  0.00  0.00    +0.030 A 
ENDROOT
BRANCH  16  19
ATOM     19  C   UNL     1      -8.528 -12.490  36.215  0.00  0.00    +0.037 A 
ATOM     20  C   UNL     1      -9.066 -13.566  35.514  0.00  0.00    +0.013 A 
ATOM     21  C   UNL     1      -9.353 -11.475  36.690  0.00  0.00    +0.013 A 
ATOM     23  C   UNL     1     -10.442 -13.627  35.287  0.00  0.00    +0.009 A 
ATOM     24  C   UNL     1     -10.729 -11.536  36.463  0.00  0.00    +0.009 A 
ATOM     25  C   UNL     1     -11.273 -12.612  35.762  0.00  0.00    -0.018 A 
BRANCH  25  27
ATOM     27  C   UNL     1     -12.699 -12.675  35.525  0.00  0.00    -0.018 A 
ATOM     30  C   UNL     1     -13.563 -13.034  36.560  0.00  0.00    +0.008 A 
ATOM     31  C   UNL     1     -13.209 -12.376  34.262  0.00  0.00    +0.008 A 
ATOM     34  C   UNL     1     -14.937 -13.092  36.332  0.00  0.00    +0.001 A 
ATOM     35  C   UNL     1     -14.584 -12.435  34.034  0.00  0.00    +0.001 A 
ATOM     37  C   UNL     1     -15.449 -12.793  35.069  0.00  0.00    +0.000 A 
ENDBRANCH  25  27
ENDBRANCH  16  19
BRANCH  17   6
ATOM      3  O   UNL     1      -8.444  -6.414  41.474  0.00  0.00    -0.270 OA
ATOM      6  N   UNL     1      -8.921  -7.255  39.358  0.00  0.00    -0.277 N 
ATOM     22  C   UNL     1      -8.863  -6.264  40.328  0.00  0.00    +0.248 C 
ATOM     38  H   UNL     1      -9.413  -7.099  38.486  0.00  0.00    +0.155 HD
BRANCH  22  26
ATOM     26  C   UNL     1      -9.332  -4.920  39.904  0.00  0.00    +0.037 A 
ATOM     28  C   UNL     1     -10.647  -4.766  39.512  0.00  0.00    +0.013 A 
ATOM     29  C   UNL     1      -8.440  -3.869  39.916  0.00  0.00    +0.013 A 
ATOM     32  C   UNL     1     -11.088  -3.504  39.116  0.00  0.00    +0.001 A 
ATOM     33  C   UNL     1      -8.880  -2.606  39.519  0.00  0.00    +0.001 A 
ATOM     36  C   UNL     1     -10.204  -2.424  39.119  0.00  0.00    +0.000 A 
ENDBRANCH  22  26
ENDBRANCH  17   6
TORSDOF 4
ENDMDL
MODEL 8
REMARK VINA RESULT:      -7.1      7.203      9.710
REMARK  Name = 7155494
REMARK  4 active torsions:
REMARK  status: ('A' for Active; 'I' for Inactive)
REMARK    1  A    between atoms: N_6  and  C_17
REMARK    2  A    between atoms: C_16  and  C_19
REMARK    3  A    between atoms: C_22  and  C_26
REMARK    4  A    between atoms: C_25  and  C_27
REMARK                            x       y       z     vdW  Elec       q    Type
REMARK                         _______ _______ _______ _____ _____    ______ ____
ROOT
ATOM      1  O   UNL     1      -8.418 -12.329  16.878  0.00  0.00    -0.266 OA
ATOM      2  O   UNL     1     -13.203 -11.949  14.949  0.00  0.00    -0.270 OA
ATOM      4  N   UNL     1     -13.165 -10.797  16.986  0.00  0.00    -0.297 N 
ATOM      5  N   UNL     1     -10.119 -11.042  17.833  0.00  0.00    -0.310 N 
ATOM      7  C   UNL     1     -12.208 -12.077  18.893  0.00  0.00    +0.027 C 
ATOM      8  C   UNL     1     -11.959  -9.629  18.816  0.00  0.00    +0.054 C 
ATOM      9  C   UNL     1     -12.230 -10.812  19.744  0.00  0.00    +0.018 C 
ATOM     10  C   UNL     1     -13.288 -12.008  17.798  0.00  0.00    +0.113 C 
ATOM     11  C   UNL     1     -10.802 -12.254  18.307  0.00  0.00    +0.130 C 
ATOM     12  C   UNL     1     -13.071  -9.543  17.750  0.00  0.00    +0.117 C 
ATOM     13  C   UNL     1     -10.610  -9.768  18.135  0.00  0.00    +0.027 A 
ATOM     14  C   UNL     1      -9.909  -8.674  17.794  0.00  0.00    +0.024 A 
ATOM     15  C   UNL     1      -8.899 -11.228  17.151  0.00  0.00    +0.273 A 
ATOM     16  C   UNL     1     -13.125 -10.904  15.593  0.00  0.00    +0.247 C 
ATOM     17  C   UNL     1      -8.163  -9.983  16.762  0.00  0.00    +0.099 A 
ATOM     18  C   UNL     1      -8.661  -8.787  17.092  0.00  0.00    +0.030 A 
ENDROOT
BRANCH  16  19
ATOM     19  C   UNL     1     -12.955  -9.673  14.815  0.00  0.00    +0.037 A 
ATOM     20  C   UNL     1     -14.075  -8.977  14.365  0.00  0.00    +0.013 A 
ATOM     21  C   UNL     1     -11.675  -9.206  14.531  0.00  0.00    +0.013 A 
ATOM     23  C   UNL     1     -13.912  -7.805  13.627  0.00  0.00    +0.009 A 
ATOM     24  C   UNL     1     -11.512  -8.034  13.792  0.00  0.00    +0.009 A 
ATOM     25  C   UNL     1     -12.631  -7.333  13.340  0.00  0.00    -0.018 A 
BRANCH  25  27
ATOM     27  C   UNL     1     -12.463  -6.118  12.573  0.00  0.00    -0.018 A 
ATOM     30  C   UNL     1     -12.452  -4.881  13.218  0.00  0.00    +0.008 A 
ATOM     31  C   UNL     1     -12.310  -6.184  11.189  0.00  0.00    +0.008 A 
ATOM     34  C   UNL     1     -12.287  -3.711  12.479  0.00  0.00    +0.001 A 
ATOM     35  C   UNL     1     -12.146  -5.013  10.449  0.00  0.00    +0.001 A 
ATOM     37  C   UNL     1     -12.134  -3.776  11.093  0.00  0.00    +0.000 A 
ENDBRANCH  25  27
ENDBRANCH  16  19
BRANCH  17   6
ATOM      3  O   UNL     1      -5.584 -10.368  17.923  0.00  0.00    -0.270 OA
ATOM      6  N   UNL     1      -6.987 -10.120  16.085  0.00  0.00    -0.277 N 
ATOM     22  C   UNL     1      -5.761 -10.305  16.709  0.00  0.00    +0.248 C 
ATOM     38  H   UNL     1      -7.039  -9.929  15.091  0.00  0.00    +0.155 HD
BRANCH  22  26
ATOM     26  C   UNL     1      -4.593 -10.456  15.803  0.00  0.00    +0.037 A 
ATOM     28  C   UNL     1      -4.805 -10.463  14.439  0.00  0.00    +0.013 A 
ATOM     29  C   UNL     1      -3.336 -10.584  16.353  0.00  0.00    +0.013 A 
ATOM     32  C   UNL     1      -3.708 -10.603  13.588  0.00  0.00    +0.001 A 
ATOM     33  C   UNL     1      -2.239 -10.725  15.504  0.00  0.00    +0.001 A 
ATOM     36  C   UNL     1      -2.425 -10.735  14.121  0.00  0.00    +0.000 A 
ENDBRANCH  22  26
ENDBRANCH  17   6
TORSDOF 4
ENDMDL
MODEL 9
REMARK VINA RESULT:      -7.1      4.335     11.145
REMARK  Name = 7155494
REMARK  4 active torsions:
REMARK  status: ('A' for Active; 'I' for Inactive)
REMARK    1  A    between atoms: N_6  and  C_17
REMARK    2  A    between atoms: C_16  and  C_19
REMARK    3  A    between atoms: C_22  and  C_26
REMARK    4  A    between atoms: C_25  and  C_27
REMARK                            x       y       z     vdW  Elec       q    Type
REMARK                         _______ _______ _______ _____ _____    ______ ____
ROOT
ATOM      1  O   UNL     1     -11.961  -8.012   7.481  0.00  0.00    -0.266 OA
ATOM      2  O   UNL     1      -9.227 -12.297   6.518  0.00  0.00    -0.270 OA
ATOM      4  N   UNL     1      -8.464 -10.627   5.067  0.00  0.00    -0.297 N 
ATOM      5  N   UNL     1     -10.164  -8.114   5.992  0.00  0.00    -0.310 N 
ATOM      7  C   UNL     1     -10.252  -9.443   3.805  0.00  0.00    +0.027 C 
ATOM      8  C   UNL     1      -8.194  -8.244   4.426  0.00  0.00    +0.054 C 
ATOM      9  C   UNL     1      -9.223  -8.430   3.313  0.00  0.00    +0.018 C 
ATOM     10  C   UNL     1      -9.572 -10.787   4.126  0.00  0.00    +0.113 C 
ATOM     11  C   UNL     1     -10.979  -8.858   5.022  0.00  0.00    +0.130 C 
ATOM     12  C   UNL     1      -7.488  -9.585   4.709  0.00  0.00    +0.117 C 
ATOM     13  C   UNL     1      -8.850  -7.734   5.696  0.00  0.00    +0.027 A 
ATOM     14  C   UNL     1      -8.163  -6.955   6.547  0.00  0.00    +0.024 A 
ATOM     15  C   UNL     1     -10.803  -7.718   7.185  0.00  0.00    +0.273 A 
ATOM     16  C   UNL     1      -8.415 -11.426   6.213  0.00  0.00    +0.247 C 
ATOM     17  C   UNL     1      -9.993  -6.874   8.120  0.00  0.00    +0.099 A 
ATOM     18  C   UNL     1      -8.749  -6.519   7.784  0.00  0.00    +0.030 A 
ENDROOT
BRANCH  16  19
ATOM     19  C   UNL     1      -7.315 -11.205   7.157  0.00  0.00    +0.037 A 
ATOM     20  C   UNL     1      -6.147 -11.956   7.047  0.00  0.00    +0.013 A 
ATOM     21  C   UNL     1      -7.443 -10.245   8.156  0.00  0.00    +0.013 A 
ATOM     23  C   UNL     1      -5.099 -11.744   7.944  0.00  0.00    +0.009 A 
ATOM     24  C   UNL     1      -6.395 -10.032   9.053  0.00  0.00    +0.009 A 
ATOM     25  C   UNL     1      -5.223 -10.782   8.947  0.00  0.00    -0.018 A 
BRANCH  25  27
ATOM     27  C   UNL     1      -4.137 -10.563   9.878  0.00  0.00    -0.018 A 
ATOM     30  C   UNL     1      -3.396  -9.383   9.820  0.00  0.00    +0.008 A 
ATOM     31  C   UNL     1      -3.834 -11.531  10.833  0.00  0.00    +0.008 A 
ATOM     34  C   UNL     1      -2.351  -9.172  10.718  0.00  0.00    +0.001 A 
ATOM     35  C   UNL     1      -2.788 -11.320  11.732  0.00  0.00    +0.001 A 
ATOM     37  C   UNL     1      -2.046 -10.140  11.675  0.00  0.00    +0.000 A 
ENDBRANCH  25  27
ENDBRANCH  16  19
BRANCH  17   6
ATOM      3  O   UNL     1     -11.576  -4.534   8.525  0.00  0.00    -0.270 OA
ATOM      6  N   UNL     1     -10.569  -6.485   9.293  0.00  0.00    -0.277 N 
ATOM     22  C   UNL     1     -11.330  -5.332   9.427  0.00  0.00    +0.248 C 
ATOM     38  H   UNL     1     -10.284  -7.016  10.109  0.00  0.00    +0.155 HD
BRANCH  22  26
ATOM     26  C   UNL     1     -11.894  -5.086  10.779  0.00  0.00    +0.037 A 
ATOM     28  C   UNL     1     -11.958  -3.790  11.249  0.00  0.00    +0.013 A 
ATOM     29  C   UNL     1     -12.337  -6.161  11.521  0.00  0.00    +0.013 A 
ATOM     32  C   UNL     1     -12.490  -3.560  12.518  0.00  0.00    +0.001 A 
ATOM     33  C   UNL     1     -12.868  -5.932  12.790  0.00  0.00    +0.001 A 
ATOM     36  C   UNL     1     -12.944  -4.630  13.289  0.00  0.00    +0.000 A 
ENDBRANCH  22  26
ENDBRANCH  17   6
TORSDOF 4
ENDMDL
MODEL 10
REMARK VINA RESULT:      -7.1     30.744     33.785
REMARK  Name = 7155494
REMARK  4 active torsions:
REMARK  status: ('A' for Active; 'I' for Inactive)
REMARK    1  A    between atoms: N_6  and  C_17
REMARK    2  A    between atoms: C_16  and  C_19
REMARK    3  A    between atoms: C_22  and  C_26
REMARK    4  A    between atoms: C_25  and  C_27
REMARK                            x       y       z     vdW  Elec       q    Type
REMARK                         _______ _______ _______ _____ _____    ______ ____
ROOT
ATOM      1  O   UNL     1      -8.070  12.831  36.476  0.00  0.00    -0.266 OA
ATOM      2  O   UNL     1      -7.113  11.441  41.366  0.00  0.00    -0.270 OA
ATOM      4  N   UNL     1      -8.586   9.866  40.456  0.00  0.00    -0.297 N 
ATOM      5  N   UNL     1      -8.846  10.856  37.454  0.00  0.00    -0.310 N 
ATOM      7  C   UNL     1     -10.586  10.833  39.334  0.00  0.00    +0.027 C 
ATOM      8  C   UNL     1      -9.632   8.713  38.522  0.00  0.00    +0.054 C 
ATOM      9  C   UNL     1     -10.942   9.451  38.795  0.00  0.00    +0.018 C 
ATOM     10  C   UNL     1      -9.768  10.709  40.633  0.00  0.00    +0.113 C 
ATOM     11  C   UNL     1      -9.829  11.607  38.248  0.00  0.00    +0.130 C 
ATOM     12  C   UNL     1      -8.843   8.556  39.837  0.00  0.00    +0.117 C 
ATOM     13  C   UNL     1      -8.788   9.459  37.506  0.00  0.00    +0.027 A 
ATOM     14  C   UNL     1      -7.963   8.786  36.687  0.00  0.00    +0.024 A 
ATOM     15  C   UNL     1      -8.042  11.603  36.570  0.00  0.00    +0.273 A 
ATOM     16  C   UNL     1      -7.334  10.347  40.849  0.00  0.00    +0.247 C 
ATOM     17  C   UNL     1      -7.116  10.817  35.694  0.00  0.00    +0.099 A 
ATOM     18  C   UNL     1      -7.110   9.482  35.764  0.00  0.00    +0.030 A 
ENDROOT
BRANCH  16  19
ATOM     19  C   UNL     1      -6.165   9.493  40.614  0.00  0.00    +0.037 A 
ATOM     20  C   UNL     1      -5.504   9.545  39.389  0.00  0.00    +0.013 A 
ATOM     21  C   UNL     1      -5.722   8.635  41.617  0.00  0.00    +0.013 A 
ATOM     23  C   UNL     1      -4.391   8.734  39.167  0.00  0.00    +0.009 A 
ATOM     24  C   UNL     1      -4.609   7.823  41.394  0.00  0.00    +0.009 A 
ATOM     25  C   UNL     1      -3.943   7.873  40.169  0.00  0.00    -0.018 A 
BRANCH  25  27
ATOM     27  C   UNL     1      -2.790   7.031  39.937  0.00  0.00    -0.018 A 
ATOM     30  C   UNL     1      -1.835   7.401  38.989  0.00  0.00    +0.008 A 
ATOM     31  C   UNL     1      -2.633   5.851  40.662  0.00  0.00    +0.008 A 
ATOM     34  C   UNL     1      -0.723   6.590  38.768  0.00  0.00    +0.001 A 
ATOM     35  C   UNL     1      -1.520   5.039  40.440  0.00  0.00    +0.001 A 
ATOM     37  C   UNL     1      -0.564   5.409  39.493  0.00  0.00    +0.000 A 
ENDBRANCH  25  27
ENDBRANCH  16  19
BRANCH  17   6
ATOM      3  O   UNL     1      -4.335  11.346  36.060  0.00  0.00    -0.270 OA
ATOM      6  N   UNL     1      -6.307  11.504  34.837  0.00  0.00    -0.277 N 
ATOM     22  C   UNL     1      -4.958  11.730  35.072  0.00  0.00    +0.248 C 
ATOM     38  H   UNL     1      -6.787  11.975  34.078  0.00  0.00    +0.155 HD
BRANCH  22  26
ATOM     26  C   UNL     1      -4.236  12.480  34.012  0.00  0.00    +0.037 A 
ATOM     28  C   UNL     1      -4.795  12.557  32.753  0.00  0.00    +0.013 A 
ATOM     29  C   UNL     1      -3.031  13.074  34.321  0.00  0.00    +0.013 A 
ATOM     32  C   UNL     1      -4.118  13.263  31.758  0.00  0.00    +0.001 A 
ATOM     33  C   UNL     1      -2.353  13.779  33.327  0.00  0.00    +0.001 A 
ATOM     36  C   UNL     1      -2.896  13.873  32.045  0.00  0.00    +0.000 A 
ENDBRANCH  22  26
ENDBRANCH  17   6
TORSDOF 4
ENDMDL
