REMARK  Name = 75367110
REMARK  6 active torsions:
REMARK  status: ('A' for Active; 'I' for Inactive)
REMARK    1  A    between atoms: O_2  and  C_9
REMARK    2  A    between atoms: N_4  and  C_7
REMARK    3  A    between atoms: N_4  and  C_8
REMARK    4  A    between atoms: N_5  and  C_17
REMARK    5  A    between atoms: C_12  and  C_17
REMARK    6  A    between atoms: C_18  and  C_19
REMARK                            x       y       z     vdW  Elec       q    Type
REMARK                         _______ _______ _______ _____ _____    ______ ____
ROOT
ATOM      1  O   UNL     1      -0.094   0.526  -0.909  0.00  0.00    -0.371 OA
ATOM      7  C   UNL     1      -2.190  -0.327  -0.188  0.00  0.00    +0.111 C 
ATOM      9  C   UNL     1      -1.200  -1.472  -0.296  0.00  0.00    +0.164 C 
ATOM     12  C   UNL     1       0.123  -0.723  -0.232  0.00  0.00    +0.165 C 
ATOM     13  C   UNL     1      -1.512   0.738  -1.034  0.00  0.00    +0.181 C 
ENDROOT
BRANCH   9   2
ATOM      2  O   UNL     1      -1.329  -2.406   0.758  0.00  0.00    -0.388 OA
ATOM     25  H   UNL     1      -1.233  -1.932   1.601  0.00  0.00    +0.210 HD
ENDBRANCH   9   2
BRANCH   7   4
ATOM      4  N   UNL     1      -3.523  -0.662  -0.662  0.00  0.00    -0.306 NA
ATOM     24  H   UNL     1      -3.795  -1.584  -0.323  0.00  0.00    +0.123 HD
BRANCH   4   8
ATOM      8  C   UNL     1      -4.495   0.336  -0.219  0.00  0.00    +0.054 C 
ATOM     10  C   UNL     1      -5.744   0.276  -1.107  0.00  0.00    +0.019 C 
ATOM     11  C   UNL     1      -4.851   0.100   1.252  0.00  0.00    +0.019 C 
ATOM     14  C   UNL     1      -6.815   1.253  -0.626  0.00  0.00    +0.002 C 
ATOM     15  C   UNL     1      -5.923   1.078   1.730  0.00  0.00    +0.002 C 
ATOM     16  C   UNL     1      -7.164   1.029   0.842  0.00  0.00    +0.000 C 
ENDBRANCH   4   8
ENDBRANCH   7   4
BRANCH  12  17
ATOM     17  C   UNL     1       1.270  -1.470  -0.889  0.00  0.00    +0.138 C 
BRANCH  17   5
ATOM      3  O   UNL     1       3.219  -1.599   1.214  0.00  0.00    -0.270 OA
ATOM      5  N   UNL     1       2.493  -0.726  -0.808  0.00  0.00    -0.309 N 
ATOM     18  C   UNL     1       3.383  -0.852   0.254  0.00  0.00    +0.244 C 
ATOM     26  H   UNL     1       2.657  -0.040  -1.537  0.00  0.00    +0.149 HD
BRANCH  18  19
ATOM      6  N   UNL     1       6.867   1.632   0.104  0.00  0.00    -0.263 NA
ATOM     19  C   UNL     1       4.593   0.008   0.202  0.00  0.00    +0.040 A 
ATOM     20  C   UNL     1       5.227   0.392   1.378  0.00  0.00    +0.033 A 
ATOM     21  C   UNL     1       5.094   0.435  -1.023  0.00  0.00    +0.033 A 
ATOM     22  C   UNL     1       6.350   1.198   1.276  0.00  0.00    +0.111 A 
ATOM     23  C   UNL     1       6.223   1.238  -1.018  0.00  0.00    +0.111 A 
ENDBRANCH  18  19
ENDBRANCH  17   5
ENDBRANCH  12  17
TORSDOF 6
