MODEL 1
REMARK VINA RESULT:      -5.8      0.000      0.000
REMARK  Name = 71694084
REMARK  7 active torsions:
REMARK  status: ('A' for Active; 'I' for Inactive)
REMARK    1  A    between atoms: O_3  and  C_18
REMARK    2  A    between atoms: N_4  and  C_7
REMARK    3  A    between atoms: N_4  and  C_12
REMARK    4  A    between atoms: C_7  and  C_10
REMARK    5  A    between atoms: C_10  and  C_11
REMARK    6  A    between atoms: C_12  and  C_13
REMARK    7  A    between atoms: C_15  and  C_18
REMARK                            x       y       z     vdW  Elec       q    Type
REMARK                         _______ _______ _______ _____ _____    ______ ____
ROOT
ATOM      1  O   UNL     1      12.148   8.282   5.517  0.00  0.00    -0.376 OA
ATOM      7  C   UNL     1      11.026   6.517   5.078  0.00  0.00    +0.072 C 
ATOM      8  C   UNL     1      11.389   7.827   4.366  0.00  0.00    +0.184 C 
ATOM      9  C   UNL     1      12.074   6.957   6.108  0.00  0.00    +0.184 C 
ENDROOT
BRANCH   7   4
ATOM      4  N   UNL     1      11.575   5.402   4.300  0.00  0.00    -0.302 NA
ATOM     21  H   UNL     1      12.421   5.615   3.774  0.00  0.00    +0.123 HD
BRANCH   4  12
ATOM     12  C   UNL     1      10.545   4.878   3.411  0.00  0.00    +0.117 C 
BRANCH  12  13
ATOM      6  N   UNL     1      12.176   3.629  -0.368  0.00  0.00    -0.263 NA
ATOM     13  C   UNL     1      11.117   4.440   2.088  0.00  0.00    -0.031 A 
ATOM     16  C   UNL     1      12.316   3.739   2.044  0.00  0.00    +0.024 A 
ATOM     17  C   UNL     1      10.446   4.737   0.907  0.00  0.00    +0.024 A 
ATOM     19  C   UNL     1      12.798   3.359   0.801  0.00  0.00    +0.111 A 
ATOM     20  C   UNL     1      11.013   4.313  -0.284  0.00  0.00    +0.111 A 
ENDBRANCH  12  13
ENDBRANCH   4  12
ENDBRANCH   7   4
BRANCH   7  10
ATOM     10  C   UNL     1       9.603   6.292   5.519  0.00  0.00    +0.085 C 
BRANCH  10  11
ATOM      2  O   UNL     1       9.818   3.928   8.240  0.00  0.00    -0.357 OA
ATOM      5  N   UNL     1       9.977   4.288   6.907  0.00  0.00    -0.083 NA
ATOM     11  C   UNL     1       9.569   5.558   6.841  0.00  0.00    +0.086 A 
ATOM     14  C   UNL     1       9.144   6.048   8.088  0.00  0.00    +0.073 A 
ATOM     15  C   UNL     1       9.320   4.984   8.932  0.00  0.00    +0.163 A 
BRANCH  15  18
ATOM     18  C   UNL     1       9.088   4.777  10.367  0.00  0.00    +0.232 C 
BRANCH  18   3
ATOM      3  O   UNL     1      10.182   4.065  10.950  0.00  0.00    -0.387 OA
ATOM     22  H   UNL     1       9.802   3.329  11.459  0.00  0.00    +0.210 HD
ENDBRANCH  18   3
ENDBRANCH  15  18
ENDBRANCH  10  11
ENDBRANCH   7  10
TORSDOF 7
ENDMDL
MODEL 2
REMARK VINA RESULT:      -5.6     14.661     16.489
REMARK  Name = 71694084
REMARK  7 active torsions:
REMARK  status: ('A' for Active; 'I' for Inactive)
REMARK    1  A    between atoms: O_3  and  C_18
REMARK    2  A    between atoms: N_4  and  C_7
REMARK    3  A    between atoms: N_4  and  C_12
REMARK    4  A    between atoms: C_7  and  C_10
REMARK    5  A    between atoms: C_10  and  C_11
REMARK    6  A    between atoms: C_12  and  C_13
REMARK    7  A    between atoms: C_15  and  C_18
REMARK                            x       y       z     vdW  Elec       q    Type
REMARK                         _______ _______ _______ _____ _____    ______ ____
ROOT
ATOM      1  O   UNL     1      13.141  10.121  17.703  0.00  0.00    -0.376 OA
ATOM      7  C   UNL     1      13.951   9.154  19.427  0.00  0.00    +0.072 C 
ATOM      8  C   UNL     1      12.972   8.808  18.298  0.00  0.00    +0.184 C 
ATOM      9  C   UNL     1      14.274  10.385  18.571  0.00  0.00    +0.184 C 
ENDROOT
BRANCH   7   4
ATOM      4  N   UNL     1      15.084   8.225  19.356  0.00  0.00    -0.302 NA
ATOM     21  H   UNL     1      14.840   7.260  19.142  0.00  0.00    +0.123 HD
BRANCH   4  12
ATOM     12  C   UNL     1      15.842   8.291  20.600  0.00  0.00    +0.117 C 
BRANCH  12  13
ATOM      6  N   UNL     1      19.364   5.826  20.461  0.00  0.00    -0.263 NA
ATOM     13  C   UNL     1      17.075   7.428  20.550  0.00  0.00    -0.031 A 
ATOM     16  C   UNL     1      17.183   6.419  19.600  0.00  0.00    +0.024 A 
ATOM     17  C   UNL     1      18.109   7.638  21.456  0.00  0.00    +0.024 A 
ATOM     19  C   UNL     1      18.339   5.653  19.598  0.00  0.00    +0.111 A 
ATOM     20  C   UNL     1      19.222   6.817  21.370  0.00  0.00    +0.111 A 
ENDBRANCH  12  13
ENDBRANCH   4  12
ENDBRANCH   7   4
BRANCH   7  10
ATOM     10  C   UNL     1      13.422   9.342  20.825  0.00  0.00    +0.085 C 
BRANCH  10  11
ATOM      2  O   UNL     1      10.450   7.464  21.649  0.00  0.00    -0.357 OA
ATOM      5  N   UNL     1      11.126   8.654  21.406  0.00  0.00    -0.083 NA
ATOM     11  C   UNL     1      12.384   8.289  21.144  0.00  0.00    +0.086 A 
ATOM     14  C   UNL     1      12.560   6.896  21.209  0.00  0.00    +0.073 A 
ATOM     15  C   UNL     1      11.315   6.425  21.530  0.00  0.00    +0.163 A 
BRANCH  15  18
ATOM     18  C   UNL     1      10.764   5.084  21.758  0.00  0.00    +0.232 C 
BRANCH  18   3
ATOM      3  O   UNL     1      10.769   4.332  20.542  0.00  0.00    -0.387 OA
ATOM     22  H   UNL     1      10.492   4.937  19.833  0.00  0.00    +0.210 HD
ENDBRANCH  18   3
ENDBRANCH  15  18
ENDBRANCH  10  11
ENDBRANCH   7  10
TORSDOF 7
ENDMDL
MODEL 3
REMARK VINA RESULT:      -5.5     13.448     15.832
REMARK  Name = 71694084
REMARK  7 active torsions:
REMARK  status: ('A' for Active; 'I' for Inactive)
REMARK    1  A    between atoms: O_3  and  C_18
REMARK    2  A    between atoms: N_4  and  C_7
REMARK    3  A    between atoms: N_4  and  C_12
REMARK    4  A    between atoms: C_7  and  C_10
REMARK    5  A    between atoms: C_10  and  C_11
REMARK    6  A    between atoms: C_12  and  C_13
REMARK    7  A    between atoms: C_15  and  C_18
REMARK                            x       y       z     vdW  Elec       q    Type
REMARK                         _______ _______ _______ _____ _____    ______ ____
ROOT
ATOM      1  O   UNL     1      13.269  10.135  16.537  0.00  0.00    -0.376 OA
ATOM      7  C   UNL     1      13.469   8.559  17.965  0.00  0.00    +0.072 C 
ATOM      8  C   UNL     1      13.905   8.830  16.519  0.00  0.00    +0.184 C 
ATOM      9  C   UNL     1      13.089  10.045  17.975  0.00  0.00    +0.184 C 
ENDROOT
BRANCH   7   4
ATOM      4  N   UNL     1      14.672   8.379  18.784  0.00  0.00    -0.302 NA
ATOM     21  H   UNL     1      15.498   8.877  18.456  0.00  0.00    +0.123 HD
BRANCH   4  12
ATOM     12  C   UNL     1      14.959   6.956  18.917  0.00  0.00    +0.117 C 
BRANCH  12  13
ATOM      6  N   UNL     1      18.786   6.259  20.753  0.00  0.00    -0.263 NA
ATOM     13  C   UNL     1      16.299   6.712  19.560  0.00  0.00    -0.031 A 
ATOM     16  C   UNL     1      16.627   7.348  20.751  0.00  0.00    +0.024 A 
ATOM     17  C   UNL     1      17.211   5.849  18.964  0.00  0.00    +0.024 A 
ATOM     19  C   UNL     1      17.872   7.089  21.302  0.00  0.00    +0.111 A 
ATOM     20  C   UNL     1      18.430   5.658  19.595  0.00  0.00    +0.111 A 
ENDBRANCH  12  13
ENDBRANCH   4  12
ENDBRANCH   7   4
BRANCH   7  10
ATOM     10  C   UNL     1      12.409   7.522  18.229  0.00  0.00    +0.085 C 
BRANCH  10  11
ATOM      2  O   UNL     1      11.325   7.031  21.638  0.00  0.00    -0.357 OA
ATOM      5  N   UNL     1      11.845   6.571  20.434  0.00  0.00    -0.083 NA
ATOM     11  C   UNL     1      11.886   7.647  19.643  0.00  0.00    +0.086 A 
ATOM     14  C   UNL     1      11.408   8.802  20.286  0.00  0.00    +0.073 A 
ATOM     15  C   UNL     1      11.069   8.360  21.537  0.00  0.00    +0.163 A 
BRANCH  15  18
ATOM     18  C   UNL     1      10.510   9.012  22.727  0.00  0.00    +0.232 C 
BRANCH  18   3
ATOM      3  O   UNL     1      10.536  10.434  22.574  0.00  0.00    -0.387 OA
ATOM     22  H   UNL     1       9.676  10.694  22.202  0.00  0.00    +0.210 HD
ENDBRANCH  18   3
ENDBRANCH  15  18
ENDBRANCH  10  11
ENDBRANCH   7  10
TORSDOF 7
ENDMDL
MODEL 4
REMARK VINA RESULT:      -5.5     15.242     18.027
REMARK  Name = 71694084
REMARK  7 active torsions:
REMARK  status: ('A' for Active; 'I' for Inactive)
REMARK    1  A    between atoms: O_3  and  C_18
REMARK    2  A    between atoms: N_4  and  C_7
REMARK    3  A    between atoms: N_4  and  C_12
REMARK    4  A    between atoms: C_7  and  C_10
REMARK    5  A    between atoms: C_10  and  C_11
REMARK    6  A    between atoms: C_12  and  C_13
REMARK    7  A    between atoms: C_15  and  C_18
REMARK                            x       y       z     vdW  Elec       q    Type
REMARK                         _______ _______ _______ _____ _____    ______ ____
ROOT
ATOM      1  O   UNL     1      11.212   8.317  18.634  0.00  0.00    -0.376 OA
ATOM      7  C   UNL     1      12.440   8.387  20.381  0.00  0.00    +0.072 C 
ATOM      8  C   UNL     1      12.622   8.569  18.868  0.00  0.00    +0.184 C 
ATOM      9  C   UNL     1      10.941   8.422  20.057  0.00  0.00    +0.184 C 
ENDROOT
BRANCH   7   4
ATOM      4  N   UNL     1      12.804   9.643  21.044  0.00  0.00    -0.302 NA
ATOM     21  H   UNL     1      13.803   9.842  21.077  0.00  0.00    +0.123 HD
BRANCH   4  12
ATOM     12  C   UNL     1      12.241   9.662  22.388  0.00  0.00    +0.117 C 
BRANCH  12  13
ATOM      6  N   UNL     1      10.400  13.441  23.301  0.00  0.00    -0.263 NA
ATOM     13  C   UNL     1      11.596  10.986  22.707  0.00  0.00    -0.031 A 
ATOM     16  C   UNL     1      11.431  11.940  21.710  0.00  0.00    +0.024 A 
ATOM     17  C   UNL     1      11.164  11.256  24.000  0.00  0.00    +0.024 A 
ATOM     19  C   UNL     1      10.832  13.141  22.056  0.00  0.00    +0.111 A 
ATOM     20  C   UNL     1      10.578  12.488  24.243  0.00  0.00    +0.111 A 
ENDBRANCH  12  13
ENDBRANCH   4  12
ENDBRANCH   7   4
BRANCH   7  10
ATOM     10  C   UNL     1      13.025   7.170  21.049  0.00  0.00    +0.085 C 
BRANCH  10  11
ATOM      2  O   UNL     1      16.596   7.678  21.213  0.00  0.00    -0.357 OA
ATOM      5  N   UNL     1      15.294   7.958  21.610  0.00  0.00    -0.083 NA
ATOM     11  C   UNL     1      14.527   7.143  20.879  0.00  0.00    +0.086 A 
ATOM     14  C   UNL     1      15.282   6.335  20.012  0.00  0.00    +0.073 A 
ATOM     15  C   UNL     1      16.575   6.710  20.261  0.00  0.00    +0.163 A 
BRANCH  15  18
ATOM     18  C   UNL     1      17.876   6.291  19.725  0.00  0.00    +0.232 C 
BRANCH  18   3
ATOM      3  O   UNL     1      17.696   5.486  18.557  0.00  0.00    -0.387 OA
ATOM     22  H   UNL     1      16.875   5.785  18.131  0.00  0.00    +0.210 HD
ENDBRANCH  18   3
ENDBRANCH  15  18
ENDBRANCH  10  11
ENDBRANCH   7  10
TORSDOF 7
ENDMDL
MODEL 5
REMARK VINA RESULT:      -5.3     21.367     24.048
REMARK  Name = 71694084
REMARK  7 active torsions:
REMARK  status: ('A' for Active; 'I' for Inactive)
REMARK    1  A    between atoms: O_3  and  C_18
REMARK    2  A    between atoms: N_4  and  C_7
REMARK    3  A    between atoms: N_4  and  C_12
REMARK    4  A    between atoms: C_7  and  C_10
REMARK    5  A    between atoms: C_10  and  C_11
REMARK    6  A    between atoms: C_12  and  C_13
REMARK    7  A    between atoms: C_15  and  C_18
REMARK                            x       y       z     vdW  Elec       q    Type
REMARK                         _______ _______ _______ _____ _____    ______ ____
ROOT
ATOM      1  O   UNL     1      -0.893 -11.363  15.481  0.00  0.00    -0.376 OA
ATOM      7  C   UNL     1      -2.976 -11.236  15.024  0.00  0.00    +0.072 C 
ATOM      8  C   UNL     1      -1.997 -10.581  16.007  0.00  0.00    +0.184 C 
ATOM      9  C   UNL     1      -1.710 -11.789  14.358  0.00  0.00    +0.184 C 
ENDROOT
BRANCH   7   4
ATOM      4  N   UNL     1      -3.537 -10.188  14.165  0.00  0.00    -0.302 NA
ATOM     21  H   UNL     1      -4.024  -9.440  14.655  0.00  0.00    +0.123 HD
BRANCH   4  12
ATOM     12  C   UNL     1      -4.415 -10.796  13.171  0.00  0.00    +0.117 C 
BRANCH  12  13
ATOM      6  N   UNL     1      -4.458  -8.563   9.495  0.00  0.00    -0.263 NA
ATOM     13  C   UNL     1      -4.430 -10.013  11.884  0.00  0.00    -0.031 A 
ATOM     16  C   UNL     1      -5.566  -9.304  11.513  0.00  0.00    +0.024 A 
ATOM     17  C   UNL     1      -3.308 -10.000  11.064  0.00  0.00    +0.024 A 
ATOM     19  C   UNL     1      -5.529  -8.600  10.319  0.00  0.00    +0.111 A 
ATOM     20  C   UNL     1      -3.372  -9.266   9.890  0.00  0.00    +0.111 A 
ENDBRANCH  12  13
ENDBRANCH   4  12
ENDBRANCH   7   4
BRANCH   7  10
ATOM     10  C   UNL     1      -4.014 -12.193  15.551  0.00  0.00    +0.085 C 
BRANCH  10  11
ATOM      2  O   UNL     1      -6.192 -10.207  17.637  0.00  0.00    -0.357 OA
ATOM      5  N   UNL     1      -5.641 -10.549  16.407  0.00  0.00    -0.083 NA
ATOM     11  C   UNL     1      -4.803 -11.554  16.672  0.00  0.00    +0.086 A 
ATOM     14  C   UNL     1      -4.781 -11.886  18.038  0.00  0.00    +0.073 A 
ATOM     15  C   UNL     1      -5.671 -11.010  18.599  0.00  0.00    +0.163 A 
BRANCH  15  18
ATOM     18  C   UNL     1      -6.146 -10.783  19.970  0.00  0.00    +0.232 C 
BRANCH  18   3
ATOM      3  O   UNL     1      -7.525 -10.402  19.961  0.00  0.00    -0.387 OA
ATOM     22  H   UNL     1      -7.873 -10.619  19.080  0.00  0.00    +0.210 HD
ENDBRANCH  18   3
ENDBRANCH  15  18
ENDBRANCH  10  11
ENDBRANCH   7  10
TORSDOF 7
ENDMDL
MODEL 6
REMARK VINA RESULT:      -5.1     13.071     17.532
REMARK  Name = 71694084
REMARK  7 active torsions:
REMARK  status: ('A' for Active; 'I' for Inactive)
REMARK    1  A    between atoms: O_3  and  C_18
REMARK    2  A    between atoms: N_4  and  C_7
REMARK    3  A    between atoms: N_4  and  C_12
REMARK    4  A    between atoms: C_7  and  C_10
REMARK    5  A    between atoms: C_10  and  C_11
REMARK    6  A    between atoms: C_12  and  C_13
REMARK    7  A    between atoms: C_15  and  C_18
REMARK                            x       y       z     vdW  Elec       q    Type
REMARK                         _______ _______ _______ _____ _____    ______ ____
ROOT
ATOM      1  O   UNL     1      11.190   6.315  21.910  0.00  0.00    -0.376 OA
ATOM      7  C   UNL     1      11.570   8.133  20.854  0.00  0.00    +0.072 C 
ATOM      8  C   UNL     1      10.578   7.631  21.911  0.00  0.00    +0.184 C 
ATOM      9  C   UNL     1      12.311   6.820  21.137  0.00  0.00    +0.184 C 
ENDROOT
BRANCH   7   4
ATOM      4  N   UNL     1      12.340   9.239  21.431  0.00  0.00    -0.302 NA
ATOM     21  H   UNL     1      12.459   9.203  22.442  0.00  0.00    +0.123 HD
BRANCH   4  12
ATOM     12  C   UNL     1      11.737  10.506  21.037  0.00  0.00    +0.117 C 
BRANCH  12  13
ATOM      6  N   UNL     1      10.622  12.877  24.449  0.00  0.00    -0.263 NA
ATOM     13  C   UNL     1      11.347  11.336  22.232  0.00  0.00    -0.031 A 
ATOM     16  C   UNL     1      11.319  10.765  23.499  0.00  0.00    +0.024 A 
ATOM     17  C   UNL     1      11.013  12.676  22.071  0.00  0.00    +0.024 A 
ATOM     19  C   UNL     1      10.953  11.572  24.565  0.00  0.00    +0.111 A 
ATOM     20  C   UNL     1      10.660  13.397  23.200  0.00  0.00    +0.111 A 
ENDBRANCH  12  13
ENDBRANCH   4  12
ENDBRANCH   7   4
BRANCH   7  10
ATOM     10  C   UNL     1      11.074   8.416  19.459  0.00  0.00    +0.085 C 
BRANCH  10  11
ATOM      2  O   UNL     1      14.118   8.089  17.546  0.00  0.00    -0.357 OA
ATOM      5  N   UNL     1      13.239   7.675  18.540  0.00  0.00    -0.083 NA
ATOM     11  C   UNL     1      12.236   8.556  18.502  0.00  0.00    +0.086 A 
ATOM     14  C   UNL     1      12.426   9.540  17.516  0.00  0.00    +0.073 A 
ATOM     15  C   UNL     1      13.623   9.200  16.945  0.00  0.00    +0.163 A 
BRANCH  15  18
ATOM     18  C   UNL     1      14.433   9.776  15.864  0.00  0.00    +0.232 C 
BRANCH  18   3
ATOM      3  O   UNL     1      14.598   8.826  14.807  0.00  0.00    -0.387 OA
ATOM     22  H   UNL     1      15.492   8.454  14.899  0.00  0.00    +0.210 HD
ENDBRANCH  18   3
ENDBRANCH  15  18
ENDBRANCH  10  11
ENDBRANCH   7  10
TORSDOF 7
ENDMDL
MODEL 7
REMARK VINA RESULT:      -5.0     25.742     29.062
REMARK  Name = 71694084
REMARK  7 active torsions:
REMARK  status: ('A' for Active; 'I' for Inactive)
REMARK    1  A    between atoms: O_3  and  C_18
REMARK    2  A    between atoms: N_4  and  C_7
REMARK    3  A    between atoms: N_4  and  C_12
REMARK    4  A    between atoms: C_7  and  C_10
REMARK    5  A    between atoms: C_10  and  C_11
REMARK    6  A    between atoms: C_12  and  C_13
REMARK    7  A    between atoms: C_15  and  C_18
REMARK                            x       y       z     vdW  Elec       q    Type
REMARK                         _______ _______ _______ _____ _____    ______ ____
ROOT
ATOM      1  O   UNL     1     -15.102   9.813  21.682  0.00  0.00    -0.376 OA
ATOM      7  C   UNL     1     -13.859   8.130  21.251  0.00  0.00    +0.072 C 
ATOM      8  C   UNL     1     -14.357   9.380  20.514  0.00  0.00    +0.184 C 
ATOM      9  C   UNL     1     -14.434   8.815  22.497  0.00  0.00    +0.184 C 
ENDROOT
BRANCH   7   4
ATOM      4  N   UNL     1     -12.395   8.187  21.320  0.00  0.00    -0.302 NA
ATOM     21  H   UNL     1     -11.995   9.123  21.271  0.00  0.00    +0.123 HD
BRANCH   4  12
ATOM     12  C   UNL     1     -11.828   7.341  20.277  0.00  0.00    +0.117 C 
BRANCH  12  13
ATOM      6  N   UNL     1      -9.976   9.658  17.163  0.00  0.00    -0.263 NA
ATOM     13  C   UNL     1     -11.179   8.152  19.187  0.00  0.00    -0.031 A 
ATOM     16  C   UNL     1     -10.681   9.420  19.464  0.00  0.00    +0.024 A 
ATOM     17  C   UNL     1     -11.076   7.636  17.901  0.00  0.00    +0.024 A 
ATOM     19  C   UNL     1     -10.093  10.126  18.425  0.00  0.00    +0.111 A 
ATOM     20  C   UNL     1     -10.472   8.421  16.933  0.00  0.00    +0.111 A 
ENDBRANCH  12  13
ENDBRANCH   4  12
ENDBRANCH   7   4
BRANCH   7  10
ATOM     10  C   UNL     1     -14.383   6.778  20.841  0.00  0.00    +0.085 C 
BRANCH  10  11
ATOM      2  O   UNL     1     -13.748   4.556  23.614  0.00  0.00    -0.357 OA
ATOM      5  N   UNL     1     -13.330   5.346  22.550  0.00  0.00    -0.083 NA
ATOM     11  C   UNL     1     -14.453   5.853  22.034  0.00  0.00    +0.086 A 
ATOM     14  C   UNL     1     -15.599   5.422  22.724  0.00  0.00    +0.073 A 
ATOM     15  C   UNL     1     -15.101   4.609  23.707  0.00  0.00    +0.163 A 
BRANCH  15  18
ATOM     18  C   UNL     1     -15.715   3.826  24.786  0.00  0.00    +0.232 C 
BRANCH  18   3
ATOM      3  O   UNL     1     -15.718   2.436  24.450  0.00  0.00    -0.387 OA
ATOM     22  H   UNL     1     -16.637   2.127  24.533  0.00  0.00    +0.210 HD
ENDBRANCH  18   3
ENDBRANCH  15  18
ENDBRANCH  10  11
ENDBRANCH   7  10
TORSDOF 7
ENDMDL
MODEL 8
REMARK VINA RESULT:      -4.9     21.659     24.441
REMARK  Name = 71694084
REMARK  7 active torsions:
REMARK  status: ('A' for Active; 'I' for Inactive)
REMARK    1  A    between atoms: O_3  and  C_18
REMARK    2  A    between atoms: N_4  and  C_7
REMARK    3  A    between atoms: N_4  and  C_12
REMARK    4  A    between atoms: C_7  and  C_10
REMARK    5  A    between atoms: C_10  and  C_11
REMARK    6  A    between atoms: C_12  and  C_13
REMARK    7  A    between atoms: C_15  and  C_18
REMARK                            x       y       z     vdW  Elec       q    Type
REMARK                         _______ _______ _______ _____ _____    ______ ____
ROOT
ATOM      1  O   UNL     1      -2.227 -13.847  12.637  0.00  0.00    -0.376 OA
ATOM      7  C   UNL     1      -2.474 -12.177  13.947  0.00  0.00    +0.072 C 
ATOM      8  C   UNL     1      -3.354 -13.009  13.004  0.00  0.00    +0.184 C 
ATOM      9  C   UNL     1      -1.436 -13.283  13.717  0.00  0.00    +0.184 C 
ENDROOT
BRANCH   7   4
ATOM      4  N   UNL     1      -3.003 -12.309  15.308  0.00  0.00    -0.302 NA
ATOM     21  H   UNL     1      -3.942 -12.697  15.372  0.00  0.00    +0.123 HD
BRANCH   4  12
ATOM     12  C   UNL     1      -2.944 -11.016  15.978  0.00  0.00    +0.117 C 
BRANCH  12  13
ATOM      6  N   UNL     1      -6.639 -10.074  17.968  0.00  0.00    -0.263 NA
ATOM     13  C   UNL     1      -4.237 -10.686  16.675  0.00  0.00    -0.031 A 
ATOM     16  C   UNL     1      -4.469 -11.142  17.968  0.00  0.00    +0.024 A 
ATOM     17  C   UNL     1      -5.203  -9.924  16.028  0.00  0.00    +0.024 A 
ATOM     19  C   UNL     1      -5.675 -10.811  18.565  0.00  0.00    +0.111 A 
ATOM     20  C   UNL     1      -6.376  -9.649  16.712  0.00  0.00    +0.111 A 
ENDBRANCH  12  13
ENDBRANCH   4  12
ENDBRANCH   7   4
BRANCH   7  10
ATOM     10  C   UNL     1      -2.137 -10.757  13.574  0.00  0.00    +0.085 C 
BRANCH  10  11
ATOM      2  O   UNL     1      -4.795  -9.715  11.364  0.00  0.00    -0.357 OA
ATOM      5  N   UNL     1      -4.317 -10.147  12.595  0.00  0.00    -0.083 NA
ATOM     11  C   UNL     1      -3.001 -10.293  12.422  0.00  0.00    +0.086 A 
ATOM     14  C   UNL     1      -2.594  -9.972  11.116  0.00  0.00    +0.073 A 
ATOM     15  C   UNL     1      -3.760  -9.615  10.492  0.00  0.00    +0.163 A 
BRANCH  15  18
ATOM     18  C   UNL     1      -4.088  -9.169   9.132  0.00  0.00    +0.232 C 
BRANCH  18   3
ATOM      3  O   UNL     1      -5.011  -8.077   9.177  0.00  0.00    -0.387 OA
ATOM     22  H   UNL     1      -5.442  -8.035   8.306  0.00  0.00    +0.210 HD
ENDBRANCH  18   3
ENDBRANCH  15  18
ENDBRANCH  10  11
ENDBRANCH   7  10
TORSDOF 7
ENDMDL
MODEL 9
REMARK VINA RESULT:      -4.9     26.150     27.452
REMARK  Name = 71694084
REMARK  7 active torsions:
REMARK  status: ('A' for Active; 'I' for Inactive)
REMARK    1  A    between atoms: O_3  and  C_18
REMARK    2  A    between atoms: N_4  and  C_7
REMARK    3  A    between atoms: N_4  and  C_12
REMARK    4  A    between atoms: C_7  and  C_10
REMARK    5  A    between atoms: C_10  and  C_11
REMARK    6  A    between atoms: C_12  and  C_13
REMARK    7  A    between atoms: C_15  and  C_18
REMARK                            x       y       z     vdW  Elec       q    Type
REMARK                         _______ _______ _______ _____ _____    ______ ____
ROOT
ATOM      1  O   UNL     1      -8.209 -11.539  14.478  0.00  0.00    -0.376 OA
ATOM      7  C   UNL     1      -8.049 -10.204  16.138  0.00  0.00    +0.072 C 
ATOM      8  C   UNL     1      -8.496 -10.129  14.672  0.00  0.00    +0.184 C 
ATOM      9  C   UNL     1      -8.055 -11.721  15.910  0.00  0.00    +0.184 C 
ENDROOT
BRANCH   7   4
ATOM      4  N   UNL     1      -9.192  -9.855  16.988  0.00  0.00    -0.302 NA
ATOM     21  H   UNL     1     -10.093 -10.205  16.667  0.00  0.00    +0.123 HD
BRANCH   4  12
ATOM     12  C   UNL     1      -9.245  -8.408  17.159  0.00  0.00    +0.117 C 
BRANCH  12  13
ATOM      6  N   UNL     1     -12.988  -6.771  15.815  0.00  0.00    -0.263 NA
ATOM     13  C   UNL     1     -10.555  -7.835  16.688  0.00  0.00    -0.031 A 
ATOM     16  C   UNL     1     -10.595  -6.575  16.102  0.00  0.00    +0.024 A 
ATOM     17  C   UNL     1     -11.729  -8.564  16.838  0.00  0.00    +0.024 A 
ATOM     19  C   UNL     1     -11.826  -6.093  15.685  0.00  0.00    +0.111 A 
ATOM     20  C   UNL     1     -12.909  -7.993  16.389  0.00  0.00    +0.111 A 
ENDBRANCH  12  13
ENDBRANCH   4  12
ENDBRANCH   7   4
BRANCH   7  10
ATOM     10  C   UNL     1      -6.771  -9.522  16.550  0.00  0.00    +0.085 C 
BRANCH  10  11
ATOM      2  O   UNL     1      -5.790 -11.113  19.639  0.00  0.00    -0.357 OA
ATOM      5  N   UNL     1      -6.653 -10.338  18.875  0.00  0.00    -0.083 NA
ATOM     11  C   UNL     1      -6.094 -10.291  17.662  0.00  0.00    +0.086 A 
ATOM     14  C   UNL     1      -4.889 -11.011  17.602  0.00  0.00    +0.073 A 
ATOM     15  C   UNL     1      -4.743 -11.508  18.870  0.00  0.00    +0.163 A 
BRANCH  15  18
ATOM     18  C   UNL     1      -3.726 -12.341  19.524  0.00  0.00    +0.232 C 
BRANCH  18   3
ATOM      3  O   UNL     1      -2.418 -11.831  19.255  0.00  0.00    -0.387 OA
ATOM     22  H   UNL     1      -1.948 -11.794  20.105  0.00  0.00    +0.210 HD
ENDBRANCH  18   3
ENDBRANCH  15  18
ENDBRANCH  10  11
ENDBRANCH   7  10
TORSDOF 7
ENDMDL
MODEL 10
REMARK VINA RESULT:      -4.8      4.099      5.378
REMARK  Name = 71694084
REMARK  7 active torsions:
REMARK  status: ('A' for Active; 'I' for Inactive)
REMARK    1  A    between atoms: O_3  and  C_18
REMARK    2  A    between atoms: N_4  and  C_7
REMARK    3  A    between atoms: N_4  and  C_12
REMARK    4  A    between atoms: C_7  and  C_10
REMARK    5  A    between atoms: C_10  and  C_11
REMARK    6  A    between atoms: C_12  and  C_13
REMARK    7  A    between atoms: C_15  and  C_18
REMARK                            x       y       z     vdW  Elec       q    Type
REMARK                         _______ _______ _______ _____ _____    ______ ____
ROOT
ATOM      1  O   UNL     1       9.231  10.430   6.584  0.00  0.00    -0.376 OA
ATOM      7  C   UNL     1      10.728   8.906   6.608  0.00  0.00    +0.072 C 
ATOM      8  C   UNL     1      10.321  10.070   5.695  0.00  0.00    +0.184 C 
ATOM      9  C   UNL     1       9.750   9.538   7.606  0.00  0.00    +0.184 C 
ENDROOT
BRANCH   7   4
ATOM      4  N   UNL     1      12.096   9.145   7.079  0.00  0.00    -0.302 NA
ATOM     21  H   UNL     1      12.373  10.124   7.128  0.00  0.00    +0.123 HD
BRANCH   4  12
ATOM     12  C   UNL     1      13.032   8.396   6.248  0.00  0.00    +0.117 C 
BRANCH  12  13
ATOM      6  N   UNL     1      16.944  10.184   6.239  0.00  0.00    -0.263 NA
ATOM     13  C   UNL     1      14.402   9.022   6.245  0.00  0.00    -0.031 A 
ATOM     16  C   UNL     1      15.511   8.271   5.873  0.00  0.00    +0.024 A 
ATOM     17  C   UNL     1      14.561  10.353   6.614  0.00  0.00    +0.024 A 
ATOM     19  C   UNL     1      16.749   8.894   5.886  0.00  0.00    +0.111 A 
ATOM     20  C   UNL     1      15.842  10.882   6.595  0.00  0.00    +0.111 A 
ENDBRANCH  12  13
ENDBRANCH   4  12
ENDBRANCH   7   4
BRANCH   7  10
ATOM     10  C   UNL     1      10.498   7.492   6.141  0.00  0.00    +0.085 C 
BRANCH  10  11
ATOM      2  O   UNL     1      10.976   5.200   8.889  0.00  0.00    -0.357 OA
ATOM      5  N   UNL     1      11.449   5.973   7.835  0.00  0.00    -0.083 NA
ATOM     11  C   UNL     1      10.363   6.558   7.323  0.00  0.00    +0.086 A 
ATOM     14  C   UNL     1       9.189   6.195   8.004  0.00  0.00    +0.073 A 
ATOM     15  C   UNL     1       9.630   5.340   8.979  0.00  0.00    +0.163 A 
BRANCH  15  18
ATOM     18  C   UNL     1       8.962   4.585  10.046  0.00  0.00    +0.232 C 
BRANCH  18   3
ATOM      3  O   UNL     1       9.858   4.369  11.138  0.00  0.00    -0.387 OA
ATOM     22  H   UNL     1       9.313   4.260  11.936  0.00  0.00    +0.210 HD
ENDBRANCH  18   3
ENDBRANCH  15  18
ENDBRANCH  10  11
ENDBRANCH   7  10
TORSDOF 7
ENDMDL
