MODEL 1
REMARK VINA RESULT:      -8.9      0.000      0.000
REMARK  Name = 7051976
REMARK  6 active torsions:
REMARK  status: ('A' for Active; 'I' for Inactive)
REMARK    1  A    between atoms: N_3  and  C_16
REMARK    2  A    between atoms: N_5  and  C_27
REMARK    3  A    between atoms: N_6  and  C_20
REMARK    4  A    between atoms: N_7  and  C_31
REMARK    5  A    between atoms: C_16  and  C_19
REMARK    6  A    between atoms: C_34  and  C_37
REMARK                            x       y       z     vdW  Elec       q    Type
REMARK                         _______ _______ _______ _____ _____    ______ ____
ROOT
ATOM      1  O   UNL     1      -6.975 -10.410  10.575  0.00  0.00    -0.266 OA
ATOM      3  N   UNL     1      -3.478 -11.093  14.100  0.00  0.00    -0.297 NA
ATOM      4  N   UNL     1      -4.806 -11.010  11.199  0.00  0.00    -0.310 N 
ATOM      9  C   UNL     1      -4.297 -13.015  12.713  0.00  0.00    +0.024 C 
ATOM     10  C   UNL     1      -2.461 -11.625  11.881  0.00  0.00    +0.050 C 
ATOM     11  C   UNL     1      -2.974 -13.059  11.959  0.00  0.00    +0.017 C 
ATOM     12  C   UNL     1      -4.080 -12.432  14.126  0.00  0.00    +0.090 C 
ATOM     13  C   UNL     1      -2.238 -11.077  13.309  0.00  0.00    +0.094 C 
ATOM     14  C   UNL     1      -5.309 -12.205  11.891  0.00  0.00    +0.130 C 
ATOM     15  C   UNL     1      -3.435 -10.744  11.119  0.00  0.00    +0.026 A 
ATOM     17  C   UNL     1      -2.989  -9.708  10.391  0.00  0.00    +0.024 A 
ATOM     18  C   UNL     1      -5.761 -10.206  10.545  0.00  0.00    +0.273 A 
ATOM     20  C   UNL     1      -5.225  -9.048   9.763  0.00  0.00    +0.100 A 
ATOM     21  C   UNL     1      -3.905  -8.842   9.702  0.00  0.00    +0.030 A 
ENDROOT
BRANCH  20   6
ATOM      2  O   UNL     1      -6.553  -9.617   7.313  0.00  0.00    -0.252 OA
ATOM      6  N   UNL     1      -6.118  -8.238   9.126  0.00  0.00    -0.265 N 
ATOM      7  N   UNL     1      -7.603  -7.529   7.526  0.00  0.00    -0.269 N 
ATOM     29  C   UNL     1      -6.747  -8.564   7.916  0.00  0.00    +0.308 C 
ATOM     38  H   UNL     1      -6.139  -7.262   9.411  0.00  0.00    +0.157 HD
ATOM     39  H   UNL     1      -7.653  -6.723   8.144  0.00  0.00    +0.156 HD
BRANCH   7  31
ATOM     31  C   UNL     1      -8.418  -7.465   6.373  0.00  0.00    +0.036 A 
ATOM     32  C   UNL     1      -7.861  -7.727   5.131  0.00  0.00    +0.042 A 
ATOM     33  C   UNL     1      -9.758  -7.141   6.507  0.00  0.00    +0.023 A 
ATOM     34  C   UNL     1      -8.666  -7.663   3.993  0.00  0.00    +0.054 A 
ATOM     35  C   UNL     1     -10.564  -7.078   5.369  0.00  0.00    +0.003 A 
ATOM     36  C   UNL     1     -10.017  -7.339   4.113  0.00  0.00    +0.019 A 
BRANCH  34  37
ATOM      8  N   UNL     1      -7.652  -8.149   1.660  0.00  0.00    -0.191 NA
ATOM     37  C   UNL     1      -8.107  -7.931   2.707  0.00  0.00    +0.099 C 
ENDBRANCH  34  37
ENDBRANCH   7  31
ENDBRANCH  20   6
BRANCH   3  16
ATOM     16  C   UNL     1      -3.241 -10.599  15.454  0.00  0.00    +0.121 C 
BRANCH  16  19
ATOM      5  N   UNL     1      -6.564  -9.766  16.719  0.00  0.00    -0.349 N 
ATOM     19  C   UNL     1      -4.526 -10.398  16.211  0.00  0.00    -0.008 A 
ATOM     22  C   UNL     1      -4.794 -10.871  17.509  0.00  0.00    +0.004 A 
ATOM     23  C   UNL     1      -5.609  -9.727  15.738  0.00  0.00    +0.091 A 
ATOM     24  C   UNL     1      -6.093 -10.459  17.812  0.00  0.00    +0.049 A 
ATOM     25  C   UNL     1      -4.074 -11.609  18.470  0.00  0.00    +0.010 A 
ATOM     26  C   UNL     1      -6.711 -10.748  19.033  0.00  0.00    +0.026 A 
ATOM     27  C   UNL     1      -7.874  -9.164  16.607  0.00  0.00    +0.149 C 
ATOM     28  C   UNL     1      -4.680 -11.906  19.696  0.00  0.00    +0.001 A 
ATOM     30  C   UNL     1      -5.979 -11.482  19.971  0.00  0.00    +0.002 A 
ENDBRANCH  16  19
ENDBRANCH   3  16
TORSDOF 5
ENDMDL
MODEL 2
REMARK VINA RESULT:      -8.4      1.843      2.569
REMARK  Name = 7051976
REMARK  6 active torsions:
REMARK  status: ('A' for Active; 'I' for Inactive)
REMARK    1  A    between atoms: N_3  and  C_16
REMARK    2  A    between atoms: N_5  and  C_27
REMARK    3  A    between atoms: N_6  and  C_20
REMARK    4  A    between atoms: N_7  and  C_31
REMARK    5  A    between atoms: C_16  and  C_19
REMARK    6  A    between atoms: C_34  and  C_37
REMARK                            x       y       z     vdW  Elec       q    Type
REMARK                         _______ _______ _______ _____ _____    ______ ____
ROOT
ATOM      1  O   UNL     1      -5.416 -11.729  10.287  0.00  0.00    -0.266 OA
ATOM      3  N   UNL     1      -3.371 -10.899  14.788  0.00  0.00    -0.297 NA
ATOM      4  N   UNL     1      -3.538 -11.467  11.652  0.00  0.00    -0.310 N 
ATOM      9  C   UNL     1      -2.985 -13.063  13.580  0.00  0.00    +0.024 C 
ATOM     10  C   UNL     1      -1.521 -11.153  13.127  0.00  0.00    +0.050 C 
ATOM     11  C   UNL     1      -1.542 -12.669  13.296  0.00  0.00    +0.017 C 
ATOM     12  C   UNL     1      -3.481 -12.361  14.863  0.00  0.00    +0.090 C 
ATOM     13  C   UNL     1      -2.007 -10.481  14.432  0.00  0.00    +0.094 C 
ATOM     14  C   UNL     1      -3.842 -12.722  12.354  0.00  0.00    +0.130 C 
ATOM     15  C   UNL     1      -2.389 -10.729  11.956  0.00  0.00    +0.026 A 
ATOM     17  C   UNL     1      -2.072  -9.644  11.231  0.00  0.00    +0.024 A 
ATOM     18  C   UNL     1      -4.403 -11.101  10.601  0.00  0.00    +0.273 A 
ATOM     20  C   UNL     1      -4.026  -9.874   9.831  0.00  0.00    +0.100 A 
ATOM     21  C   UNL     1      -2.909  -9.209  10.148  0.00  0.00    +0.030 A 
ENDROOT
BRANCH  20   6
ATOM      2  O   UNL     1      -6.559  -8.611  10.111  0.00  0.00    -0.252 OA
ATOM      6  N   UNL     1      -4.843  -9.480   8.815  0.00  0.00    -0.265 N 
ATOM      7  N   UNL     1      -6.677  -8.580   7.767  0.00  0.00    -0.269 N 
ATOM     29  C   UNL     1      -6.086  -8.860   9.004  0.00  0.00    +0.308 C 
ATOM     38  H   UNL     1      -4.656  -9.871   7.895  0.00  0.00    +0.157 HD
ATOM     39  H   UNL     1      -6.149  -8.848   6.940  0.00  0.00    +0.156 HD
BRANCH   7  31
ATOM     31  C   UNL     1      -7.924  -7.962   7.521  0.00  0.00    +0.036 A 
ATOM     32  C   UNL     1      -8.229  -6.769   8.157  0.00  0.00    +0.042 A 
ATOM     33  C   UNL     1      -8.817  -8.561   6.648  0.00  0.00    +0.023 A 
ATOM     34  C   UNL     1      -9.461  -6.160   7.915  0.00  0.00    +0.054 A 
ATOM     35  C   UNL     1     -10.049  -7.951   6.404  0.00  0.00    +0.003 A 
ATOM     36  C   UNL     1     -10.370  -6.752   7.038  0.00  0.00    +0.019 A 
BRANCH  34  37
ATOM      8  N   UNL     1     -10.056  -3.931   9.092  0.00  0.00    -0.191 NA
ATOM     37  C   UNL     1      -9.789  -4.930   8.563  0.00  0.00    +0.099 C 
ENDBRANCH  34  37
ENDBRANCH   7  31
ENDBRANCH  20   6
BRANCH   3  16
ATOM     16  C   UNL     1      -3.800 -10.277  16.038  0.00  0.00    +0.121 C 
BRANCH  16  19
ATOM      5  N   UNL     1      -7.428 -10.063  15.686  0.00  0.00    -0.349 N 
ATOM     19  C   UNL     1      -5.299 -10.261  16.171  0.00  0.00    -0.008 A 
ATOM     22  C   UNL     1      -6.018 -10.541  17.347  0.00  0.00    +0.004 A 
ATOM     23  C   UNL     1      -6.165  -9.971  15.165  0.00  0.00    +0.091 A 
ATOM     24  C   UNL     1      -7.368 -10.411  17.017  0.00  0.00    +0.049 A 
ATOM     25  C   UNL     1      -5.674 -10.895  18.667  0.00  0.00    +0.010 A 
ATOM     26  C   UNL     1      -8.396 -10.616  17.944  0.00  0.00    +0.026 A 
ATOM     27  C   UNL     1      -8.641  -9.828  14.932  0.00  0.00    +0.149 C 
ATOM     28  C   UNL     1      -6.691 -11.104  19.605  0.00  0.00    +0.001 A 
ATOM     30  C   UNL     1      -8.032 -10.966  19.247  0.00  0.00    +0.002 A 
ENDBRANCH  16  19
ENDBRANCH   3  16
TORSDOF 5
ENDMDL
MODEL 3
REMARK VINA RESULT:      -8.0     25.377     28.660
REMARK  Name = 7051976
REMARK  6 active torsions:
REMARK  status: ('A' for Active; 'I' for Inactive)
REMARK    1  A    between atoms: N_3  and  C_16
REMARK    2  A    between atoms: N_5  and  C_27
REMARK    3  A    between atoms: N_6  and  C_20
REMARK    4  A    between atoms: N_7  and  C_31
REMARK    5  A    between atoms: C_16  and  C_19
REMARK    6  A    between atoms: C_34  and  C_37
REMARK                            x       y       z     vdW  Elec       q    Type
REMARK                         _______ _______ _______ _____ _____    ______ ____
ROOT
ATOM      1  O   UNL     1      13.738   7.114   6.899  0.00  0.00    -0.266 OA
ATOM      3  N   UNL     1      10.890   4.750   3.519  0.00  0.00    -0.297 NA
ATOM      4  N   UNL     1      11.977   7.117   5.364  0.00  0.00    -0.310 N 
ATOM      9  C   UNL     1       9.891   5.652   5.635  0.00  0.00    +0.024 C 
ATOM     10  C   UNL     1      10.102   7.116   3.683  0.00  0.00    +0.050 C 
ATOM     11  C   UNL     1       9.194   6.760   4.856  0.00  0.00    +0.017 C 
ATOM     12  C   UNL     1      10.115   4.427   4.723  0.00  0.00    +0.090 C 
ATOM     13  C   UNL     1      10.293   5.874   2.782  0.00  0.00    +0.094 C 
ATOM     14  C   UNL     1      11.202   6.203   6.214  0.00  0.00    +0.130 C 
ATOM     15  C   UNL     1      11.444   7.627   4.176  0.00  0.00    +0.026 A 
ATOM     17  C   UNL     1      12.124   8.543   3.468  0.00  0.00    +0.024 A 
ATOM     18  C   UNL     1      13.235   7.524   5.852  0.00  0.00    +0.273 A 
ATOM     20  C   UNL     1      13.971   8.531   5.024  0.00  0.00    +0.100 A 
ATOM     21  C   UNL     1      13.414   9.002   3.902  0.00  0.00    +0.030 A 
ENDROOT
BRANCH  20   6
ATOM      2  O   UNL     1      16.430   7.153   4.643  0.00  0.00    -0.252 OA
ATOM      6  N   UNL     1      15.197   8.941   5.455  0.00  0.00    -0.265 N 
ATOM      7  N   UNL     1      17.465   8.910   5.805  0.00  0.00    -0.269 N 
ATOM     29  C   UNL     1      16.383   8.225   5.242  0.00  0.00    +0.308 C 
ATOM     38  H   UNL     1      15.215   9.667   6.167  0.00  0.00    +0.157 HD
ATOM     39  H   UNL     1      17.255   9.792   6.265  0.00  0.00    +0.156 HD
BRANCH   7  31
ATOM     31  C   UNL     1      18.827   8.529   5.809  0.00  0.00    +0.036 A 
ATOM     32  C   UNL     1      19.383   7.981   4.664  0.00  0.00    +0.042 A 
ATOM     33  C   UNL     1      19.578   8.709   6.959  0.00  0.00    +0.023 A 
ATOM     34  C   UNL     1      20.726   7.604   4.669  0.00  0.00    +0.054 A 
ATOM     35  C   UNL     1      20.922   8.333   6.964  0.00  0.00    +0.003 A 
ATOM     36  C   UNL     1      21.494   7.780   5.819  0.00  0.00    +0.019 A 
BRANCH  34  37
ATOM      8  N   UNL     1      21.792   6.580   2.542  0.00  0.00    -0.191 NA
ATOM     37  C   UNL     1      21.313   7.039   3.496  0.00  0.00    +0.099 C 
ENDBRANCH  34  37
ENDBRANCH   7  31
ENDBRANCH  20   6
BRANCH   3  16
ATOM     16  C   UNL     1      11.035   3.579   2.659  0.00  0.00    +0.121 C 
BRANCH  16  19
ATOM      5  N   UNL     1      11.830   4.557  -0.769  0.00  0.00    -0.349 N 
ATOM     19  C   UNL     1      11.635   3.933   1.325  0.00  0.00    -0.008 A 
ATOM     22  C   UNL     1      13.006   3.903   1.011  0.00  0.00    +0.004 A 
ATOM     23  C   UNL     1      10.927   4.333   0.236  0.00  0.00    +0.091 A 
ATOM     24  C   UNL     1      13.108   4.303  -0.323  0.00  0.00    +0.049 A 
ATOM     25  C   UNL     1      14.184   3.578   1.714  0.00  0.00    +0.010 A 
ATOM     26  C   UNL     1      14.333   4.394  -0.992  0.00  0.00    +0.026 A 
ATOM     27  C   UNL     1      11.477   5.000  -2.100  0.00  0.00    +0.149 C 
ATOM     28  C   UNL     1      15.416   3.666   1.057  0.00  0.00    +0.001 A 
ATOM     30  C   UNL     1      15.488   4.068  -0.276  0.00  0.00    +0.002 A 
ENDBRANCH  16  19
ENDBRANCH   3  16
TORSDOF 5
ENDMDL
MODEL 4
REMARK VINA RESULT:      -8.0     22.728     26.794
REMARK  Name = 7051976
REMARK  6 active torsions:
REMARK  status: ('A' for Active; 'I' for Inactive)
REMARK    1  A    between atoms: N_3  and  C_16
REMARK    2  A    between atoms: N_5  and  C_27
REMARK    3  A    between atoms: N_6  and  C_20
REMARK    4  A    between atoms: N_7  and  C_31
REMARK    5  A    between atoms: C_16  and  C_19
REMARK    6  A    between atoms: C_34  and  C_37
REMARK                            x       y       z     vdW  Elec       q    Type
REMARK                         _______ _______ _______ _____ _____    ______ ____
ROOT
ATOM      1  O   UNL     1      12.949   7.205   1.017  0.00  0.00    -0.266 OA
ATOM      3  N   UNL     1      10.859   4.812  -2.861  0.00  0.00    -0.297 NA
ATOM      4  N   UNL     1      12.918   5.429  -0.502  0.00  0.00    -0.310 N 
ATOM      9  C   UNL     1      13.177   5.755  -3.031  0.00  0.00    +0.024 C 
ATOM     10  C   UNL     1      12.856   3.504  -2.123  0.00  0.00    +0.050 C 
ATOM     11  C   UNL     1      13.770   4.353  -3.000  0.00  0.00    +0.017 C 
ATOM     12  C   UNL     1      11.747   5.710  -3.610  0.00  0.00    +0.090 C 
ATOM     13  C   UNL     1      11.438   3.466  -2.738  0.00  0.00    +0.094 C 
ATOM     14  C   UNL     1      13.220   6.342  -1.613  0.00  0.00    +0.130 C 
ATOM     15  C   UNL     1      12.807   4.050  -0.708  0.00  0.00    +0.026 A 
ATOM     17  C   UNL     1      12.638   3.222   0.336  0.00  0.00    +0.024 A 
ATOM     18  C   UNL     1      12.842   5.999   0.785  0.00  0.00    +0.273 A 
ATOM     20  C   UNL     1      12.631   5.045   1.919  0.00  0.00    +0.100 A 
ATOM     21  C   UNL     1      12.547   3.733   1.675  0.00  0.00    +0.030 A 
ENDROOT
BRANCH  20   6
ATOM      2  O   UNL     1      10.268   5.215   3.493  0.00  0.00    -0.252 OA
ATOM      6  N   UNL     1      12.540   5.559   3.179  0.00  0.00    -0.265 N 
ATOM      7  N   UNL     1      11.587   6.198   5.167  0.00  0.00    -0.269 N 
ATOM     29  C   UNL     1      11.349   5.620   3.915  0.00  0.00    +0.308 C 
ATOM     38  H   UNL     1      13.311   6.139   3.497  0.00  0.00    +0.157 HD
ATOM     39  H   UNL     1      12.546   6.477   5.363  0.00  0.00    +0.156 HD
BRANCH   7  31
ATOM     31  C   UNL     1      10.656   6.440   6.203  0.00  0.00    +0.036 A 
ATOM     32  C   UNL     1      10.704   5.669   7.354  0.00  0.00    +0.042 A 
ATOM     33  C   UNL     1       9.715   7.444   6.047  0.00  0.00    +0.023 A 
ATOM     34  C   UNL     1       9.785   5.908   8.375  0.00  0.00    +0.054 A 
ATOM     35  C   UNL     1       8.796   7.684   7.070  0.00  0.00    +0.003 A 
ATOM     36  C   UNL     1       8.831   6.915   8.233  0.00  0.00    +0.019 A 
BRANCH  34  37
ATOM      8  N   UNL     1       9.851   4.481  10.536  0.00  0.00    -0.191 NA
ATOM     37  C   UNL     1       9.821   5.121   9.567  0.00  0.00    +0.099 C 
ENDBRANCH  34  37
ENDBRANCH   7  31
ENDBRANCH  20   6
BRANCH   3  16
ATOM     16  C   UNL     1       9.533   4.757  -3.471  0.00  0.00    +0.121 C 
BRANCH  16  19
ATOM      5  N   UNL     1       7.979   7.723  -2.013  0.00  0.00    -0.349 N 
ATOM     19  C   UNL     1       8.670   5.913  -3.040  0.00  0.00    -0.008 A 
ATOM     22  C   UNL     1       7.375   6.188  -3.515  0.00  0.00    +0.004 A 
ATOM     23  C   UNL     1       9.030   6.852  -2.126  0.00  0.00    +0.091 A 
ATOM     24  C   UNL     1       6.955   7.342  -2.851  0.00  0.00    +0.049 A 
ATOM     25  C   UNL     1       6.503   5.584  -4.443  0.00  0.00    +0.010 A 
ATOM     26  C   UNL     1       5.701   7.924  -3.068  0.00  0.00    +0.026 A 
ATOM     27  C   UNL     1       7.964   8.874  -1.137  0.00  0.00    +0.149 C 
ATOM     28  C   UNL     1       5.247   6.155  -4.671  0.00  0.00    +0.001 A 
ATOM     30  C   UNL     1       4.853   7.308  -3.993  0.00  0.00    +0.002 A 
ENDBRANCH  16  19
ENDBRANCH   3  16
TORSDOF 5
ENDMDL
MODEL 5
REMARK VINA RESULT:      -7.8     20.254     23.910
REMARK  Name = 7051976
REMARK  6 active torsions:
REMARK  status: ('A' for Active; 'I' for Inactive)
REMARK    1  A    between atoms: N_3  and  C_16
REMARK    2  A    between atoms: N_5  and  C_27
REMARK    3  A    between atoms: N_6  and  C_20
REMARK    4  A    between atoms: N_7  and  C_31
REMARK    5  A    between atoms: C_16  and  C_19
REMARK    6  A    between atoms: C_34  and  C_37
REMARK                            x       y       z     vdW  Elec       q    Type
REMARK                         _______ _______ _______ _____ _____    ______ ____
ROOT
ATOM      1  O   UNL     1     -16.091   4.229  21.909  0.00  0.00    -0.266 OA
ATOM      3  N   UNL     1     -16.559   7.965  18.601  0.00  0.00    -0.297 NA
ATOM      4  N   UNL     1     -17.370   5.901  20.895  0.00  0.00    -0.310 N 
ATOM      9  C   UNL     1     -17.950   5.889  18.399  0.00  0.00    +0.024 C 
ATOM     10  C   UNL     1     -18.728   7.727  19.817  0.00  0.00    +0.050 C 
ATOM     11  C   UNL     1     -19.192   6.655  18.836  0.00  0.00    +0.017 C 
ATOM     12  C   UNL     1     -16.946   6.850  17.728  0.00  0.00    +0.090 C 
ATOM     13  C   UNL     1     -17.737   8.681  19.111  0.00  0.00    +0.094 C 
ATOM     14  C   UNL     1     -17.355   5.173  19.619  0.00  0.00    +0.130 C 
ATOM     15  C   UNL     1     -18.081   7.097  21.038  0.00  0.00    +0.026 A 
ATOM     17  C   UNL     1     -18.172   7.690  22.239  0.00  0.00    +0.024 A 
ATOM     18  C   UNL     1     -16.716   5.288  21.983  0.00  0.00    +0.273 A 
ATOM     20  C   UNL     1     -16.823   5.992  23.300  0.00  0.00    +0.100 A 
ATOM     21  C   UNL     1     -17.527   7.126  23.391  0.00  0.00    +0.030 A 
ENDROOT
BRANCH  20   6
ATOM      2  O   UNL     1     -17.953   4.129  25.128  0.00  0.00    -0.252 OA
ATOM      6  N   UNL     1     -16.194   5.438  24.375  0.00  0.00    -0.265 N 
ATOM      7  N   UNL     1     -15.889   4.142  26.245  0.00  0.00    -0.269 N 
ATOM     29  C   UNL     1     -16.795   4.522  25.249  0.00  0.00    +0.308 C 
ATOM     38  H   UNL     1     -15.342   5.892  24.694  0.00  0.00    +0.157 HD
ATOM     39  H   UNL     1     -14.963   4.559  26.199  0.00  0.00    +0.156 HD
BRANCH   7  31
ATOM     31  C   UNL     1     -16.101   3.241  27.313  0.00  0.00    +0.036 A 
ATOM     32  C   UNL     1     -15.900   3.670  28.615  0.00  0.00    +0.042 A 
ATOM     33  C   UNL     1     -16.506   1.945  27.037  0.00  0.00    +0.023 A 
ATOM     34  C   UNL     1     -16.109   2.780  29.669  0.00  0.00    +0.054 A 
ATOM     35  C   UNL     1     -16.716   1.055  28.091  0.00  0.00    +0.003 A 
ATOM     36  C   UNL     1     -16.517   1.473  29.406  0.00  0.00    +0.019 A 
BRANCH  34  37
ATOM      8  N   UNL     1     -15.739   3.556  32.113  0.00  0.00    -0.191 NA
ATOM     37  C   UNL     1     -15.906   3.208  31.017  0.00  0.00    +0.099 C 
ENDBRANCH  34  37
ENDBRANCH   7  31
ENDBRANCH  20   6
BRANCH   3  16
ATOM     16  C   UNL     1     -15.650   8.878  17.912  0.00  0.00    +0.121 C 
BRANCH  16  19
ATOM      5  N   UNL     1     -12.072   8.177  17.709  0.00  0.00    -0.349 N 
ATOM     19  C   UNL     1     -14.210   8.478  18.092  0.00  0.00    -0.008 A 
ATOM     22  C   UNL     1     -13.674   7.841  19.226  0.00  0.00    +0.004 A 
ATOM     23  C   UNL     1     -13.228   8.678  17.173  0.00  0.00    +0.091 A 
ATOM     24  C   UNL     1     -12.315   7.660  18.963  0.00  0.00    +0.049 A 
ATOM     25  C   UNL     1     -14.191   7.395  20.458  0.00  0.00    +0.010 A 
ATOM     26  C   UNL     1     -11.444   7.052  19.873  0.00  0.00    +0.026 A 
ATOM     27  C   UNL     1     -10.788   8.197  17.043  0.00  0.00    +0.149 C 
ATOM     28  C   UNL     1     -13.332   6.785  21.378  0.00  0.00    +0.001 A 
ATOM     30  C   UNL     1     -11.979   6.617  21.089  0.00  0.00    +0.002 A 
ENDBRANCH  16  19
ENDBRANCH   3  16
TORSDOF 5
ENDMDL
MODEL 6
REMARK VINA RESULT:      -7.5     23.730     27.463
REMARK  Name = 7051976
REMARK  6 active torsions:
REMARK  status: ('A' for Active; 'I' for Inactive)
REMARK    1  A    between atoms: N_3  and  C_16
REMARK    2  A    between atoms: N_5  and  C_27
REMARK    3  A    between atoms: N_6  and  C_20
REMARK    4  A    between atoms: N_7  and  C_31
REMARK    5  A    between atoms: C_16  and  C_19
REMARK    6  A    between atoms: C_34  and  C_37
REMARK                            x       y       z     vdW  Elec       q    Type
REMARK                         _______ _______ _______ _____ _____    ______ ____
ROOT
ATOM      1  O   UNL     1      12.319   7.329   1.520  0.00  0.00    -0.266 OA
ATOM      3  N   UNL     1      14.485   5.577  -2.647  0.00  0.00    -0.297 NA
ATOM      4  N   UNL     1      13.988   6.081   0.465  0.00  0.00    -0.310 N 
ATOM      9  C   UNL     1      15.722   7.123  -1.108  0.00  0.00    +0.024 C 
ATOM     10  C   UNL     1      15.764   4.713  -0.682  0.00  0.00    +0.050 C 
ATOM     11  C   UNL     1      16.613   5.979  -0.643  0.00  0.00    +0.017 C 
ATOM     12  C   UNL     1      15.213   6.848  -2.538  0.00  0.00    +0.090 C 
ATOM     13  C   UNL     1      15.284   4.456  -2.129  0.00  0.00    +0.094 C 
ATOM     14  C   UNL     1      14.579   7.302  -0.099  0.00  0.00    +0.130 C 
ATOM     15  C   UNL     1      14.578   4.829   0.259  0.00  0.00    +0.026 A 
ATOM     17  C   UNL     1      14.086   3.741   0.872  0.00  0.00    +0.024 A 
ATOM     18  C   UNL     1      12.862   6.246   1.297  0.00  0.00    +0.273 A 
ATOM     20  C   UNL     1      12.331   5.005   1.944  0.00  0.00    +0.100 A 
ATOM     21  C   UNL     1      12.938   3.833   1.730  0.00  0.00    +0.030 A 
ENDROOT
BRANCH  20   6
ATOM      2  O   UNL     1      12.266   6.177   4.536  0.00  0.00    -0.252 OA
ATOM      6  N   UNL     1      11.235   5.121   2.747  0.00  0.00    -0.265 N 
ATOM      7  N   UNL     1       9.974   5.674   4.584  0.00  0.00    -0.269 N 
ATOM     29  C   UNL     1      11.254   5.708   4.019  0.00  0.00    +0.308 C 
ATOM     38  H   UNL     1      10.432   4.542   2.516  0.00  0.00    +0.157 HD
ATOM     39  H   UNL     1       9.240   5.252   4.020  0.00  0.00    +0.156 HD
BRANCH   7  31
ATOM     31  C   UNL     1       9.569   6.160   5.848  0.00  0.00    +0.036 A 
ATOM     32  C   UNL     1       9.861   5.423   6.985  0.00  0.00    +0.042 A 
ATOM     33  C   UNL     1       8.889   7.364   5.925  0.00  0.00    +0.023 A 
ATOM     34  C   UNL     1       9.461   5.903   8.232  0.00  0.00    +0.054 A 
ATOM     35  C   UNL     1       8.489   7.845   7.173  0.00  0.00    +0.003 A 
ATOM     36  C   UNL     1       8.775   7.114   8.325  0.00  0.00    +0.019 A 
BRANCH  34  37
ATOM      8  N   UNL     1       9.992   4.547  10.374  0.00  0.00    -0.191 NA
ATOM     37  C   UNL     1       9.754   5.155   9.413  0.00  0.00    +0.099 C 
ENDBRANCH  34  37
ENDBRANCH   7  31
ENDBRANCH  20   6
BRANCH   3  16
ATOM     16  C   UNL     1      14.066   5.329  -4.024  0.00  0.00    +0.121 C 
BRANCH  16  19
ATOM      5  N   UNL     1      10.850   3.758  -4.750  0.00  0.00    -0.349 N 
ATOM     19  C   UNL     1      12.647   4.833  -4.097  0.00  0.00    -0.008 A 
ATOM     22  C   UNL     1      11.604   5.209  -3.232  0.00  0.00    +0.004 A 
ATOM     23  C   UNL     1      12.180   3.950  -5.019  0.00  0.00    +0.091 A 
ATOM     24  C   UNL     1      10.472   4.515  -3.663  0.00  0.00    +0.049 A 
ATOM     25  C   UNL     1      11.490   6.067  -2.120  0.00  0.00    +0.010 A 
ATOM     26  C   UNL     1       9.227   4.636  -3.037  0.00  0.00    +0.026 A 
ATOM     27  C   UNL     1       9.983   2.882  -5.507  0.00  0.00    +0.149 C 
ATOM     28  C   UNL     1      10.251   6.199  -1.483  0.00  0.00    +0.001 A 
ATOM     30  C   UNL     1       9.137   5.493  -1.936  0.00  0.00    +0.002 A 
ENDBRANCH  16  19
ENDBRANCH   3  16
TORSDOF 5
ENDMDL
MODEL 7
REMARK VINA RESULT:      -7.4      5.137     10.983
REMARK  Name = 7051976
REMARK  6 active torsions:
REMARK  status: ('A' for Active; 'I' for Inactive)
REMARK    1  A    between atoms: N_3  and  C_16
REMARK    2  A    between atoms: N_5  and  C_27
REMARK    3  A    between atoms: N_6  and  C_20
REMARK    4  A    between atoms: N_7  and  C_31
REMARK    5  A    between atoms: C_16  and  C_19
REMARK    6  A    between atoms: C_34  and  C_37
REMARK                            x       y       z     vdW  Elec       q    Type
REMARK                         _______ _______ _______ _____ _____    ______ ____
ROOT
ATOM      1  O   UNL     1      -9.007  -9.561  17.510  0.00  0.00    -0.266 OA
ATOM      3  N   UNL     1      -5.171 -11.991  15.387  0.00  0.00    -0.297 NA
ATOM      4  N   UNL     1      -7.191 -11.022  17.661  0.00  0.00    -0.310 N 
ATOM      9  C   UNL     1      -4.777 -10.296  17.193  0.00  0.00    +0.024 C 
ATOM     10  C   UNL     1      -5.249 -12.620  17.804  0.00  0.00    +0.050 C 
ATOM     11  C   UNL     1      -4.412 -11.400  18.176  0.00  0.00    +0.017 C 
ATOM     12  C   UNL     1      -4.473 -10.752  15.750  0.00  0.00    +0.090 C 
ATOM     13  C   UNL     1      -4.909 -13.060  16.362  0.00  0.00    +0.094 C 
ATOM     14  C   UNL     1      -6.253  -9.923  17.393  0.00  0.00    +0.130 C 
ATOM     15  C   UNL     1      -6.731 -12.315  17.932  0.00  0.00    +0.026 A 
ATOM     17  C   UNL     1      -7.597 -13.281  18.280  0.00  0.00    +0.024 A 
ATOM     18  C   UNL     1      -8.558 -10.688  17.725  0.00  0.00    +0.273 A 
ATOM     20  C   UNL     1      -9.493 -11.797  18.095  0.00  0.00    +0.100 A 
ATOM     21  C   UNL     1      -9.006 -13.014  18.361  0.00  0.00    +0.030 A 
ENDROOT
BRANCH  20   6
ATOM      2  O   UNL     1     -11.022 -11.430  20.465  0.00  0.00    -0.252 OA
ATOM      6  N   UNL     1     -10.826 -11.517  18.156  0.00  0.00    -0.265 N 
ATOM      7  N   UNL     1     -12.880 -11.069  19.077  0.00  0.00    -0.269 N 
ATOM     29  C   UNL     1     -11.536 -11.345  19.352  0.00  0.00    +0.308 C 
ATOM     38  H   UNL     1     -11.370 -11.683  17.314  0.00  0.00    +0.157 HD
ATOM     39  H   UNL     1     -13.144 -11.029  18.095  0.00  0.00    +0.156 HD
BRANCH   7  31
ATOM     31  C   UNL     1     -13.924 -10.832  20.000  0.00  0.00    +0.036 A 
ATOM     32  C   UNL     1     -14.376  -9.536  20.197  0.00  0.00    +0.042 A 
ATOM     33  C   UNL     1     -14.476 -11.899  20.689  0.00  0.00    +0.023 A 
ATOM     34  C   UNL     1     -15.406  -9.303  21.108  0.00  0.00    +0.054 A 
ATOM     35  C   UNL     1     -15.507 -11.666  21.600  0.00  0.00    +0.003 A 
ATOM     36  C   UNL     1     -15.971 -10.368  21.809  0.00  0.00    +0.019 A 
BRANCH  34  37
ATOM      8  N   UNL     1     -16.269  -6.892  21.497  0.00  0.00    -0.191 NA
ATOM     37  C   UNL     1     -15.883  -7.973  21.322  0.00  0.00    +0.099 C 
ENDBRANCH  34  37
ENDBRANCH   7  31
ENDBRANCH  20   6
BRANCH   3  16
ATOM     16  C   UNL     1      -4.816 -12.417  14.036  0.00  0.00    +0.121 C 
BRANCH  16  19
ATOM      5  N   UNL     1      -6.265  -9.959  11.756  0.00  0.00    -0.349 N 
ATOM     19  C   UNL     1      -5.141 -11.362  13.012  0.00  0.00    -0.008 A 
ATOM     22  C   UNL     1      -4.207 -10.701  12.194  0.00  0.00    +0.004 A 
ATOM     23  C   UNL     1      -6.391 -10.904  12.739  0.00  0.00    +0.091 A 
ATOM     24  C   UNL     1      -4.941  -9.815  11.404  0.00  0.00    +0.049 A 
ATOM     25  C   UNL     1      -2.808 -10.755  12.032  0.00  0.00    +0.010 A 
ATOM     26  C   UNL     1      -4.345  -8.976  10.456  0.00  0.00    +0.026 A 
ATOM     27  C   UNL     1      -7.372  -9.226  11.182  0.00  0.00    +0.149 C 
ATOM     28  C   UNL     1      -2.198  -9.922  11.088  0.00  0.00    +0.001 A 
ATOM     30  C   UNL     1      -2.956  -9.045  10.313  0.00  0.00    +0.002 A 
ENDBRANCH  16  19
ENDBRANCH   3  16
TORSDOF 5
ENDMDL
MODEL 8
REMARK VINA RESULT:      -7.3      3.371      5.861
REMARK  Name = 7051976
REMARK  6 active torsions:
REMARK  status: ('A' for Active; 'I' for Inactive)
REMARK    1  A    between atoms: N_3  and  C_16
REMARK    2  A    between atoms: N_5  and  C_27
REMARK    3  A    between atoms: N_6  and  C_20
REMARK    4  A    between atoms: N_7  and  C_31
REMARK    5  A    between atoms: C_16  and  C_19
REMARK    6  A    between atoms: C_34  and  C_37
REMARK                            x       y       z     vdW  Elec       q    Type
REMARK                         _______ _______ _______ _____ _____    ______ ____
ROOT
ATOM      1  O   UNL     1      -4.791 -13.655  13.925  0.00  0.00    -0.266 OA
ATOM      3  N   UNL     1      -6.588 -10.948  17.742  0.00  0.00    -0.297 NA
ATOM      4  N   UNL     1      -4.472 -12.514  15.939  0.00  0.00    -0.310 N 
ATOM      9  C   UNL     1      -5.597 -13.218  18.132  0.00  0.00    +0.024 C 
ATOM     10  C   UNL     1      -4.133 -11.255  18.093  0.00  0.00    +0.050 C 
ATOM     11  C   UNL     1      -4.373 -12.592  18.787  0.00  0.00    +0.017 C 
ATOM     12  C   UNL     1      -6.817 -12.288  18.296  0.00  0.00    +0.090 C 
ATOM     13  C   UNL     1      -5.366 -10.342  18.290  0.00  0.00    +0.094 C 
ATOM     14  C   UNL     1      -5.274 -13.511  16.660  0.00  0.00    +0.130 C 
ATOM     15  C   UNL     1      -3.853 -11.457  16.615  0.00  0.00    +0.026 A 
ATOM     17  C   UNL     1      -3.036 -10.619  15.956  0.00  0.00    +0.024 A 
ATOM     18  C   UNL     1      -4.280 -12.730  14.560  0.00  0.00    +0.273 A 
ATOM     20  C   UNL     1      -3.380 -11.762  13.857  0.00  0.00    +0.100 A 
ATOM     21  C   UNL     1      -2.798 -10.776  14.549  0.00  0.00    +0.030 A 
ENDROOT
BRANCH  20   6
ATOM      2  O   UNL     1      -5.117 -10.893  11.779  0.00  0.00    -0.252 OA
ATOM      6  N   UNL     1      -3.179 -11.929  12.519  0.00  0.00    -0.265 N 
ATOM      7  N   UNL     1      -3.576 -11.806  10.262  0.00  0.00    -0.269 N 
ATOM     29  C   UNL     1      -4.067 -11.483  11.531  0.00  0.00    +0.308 C 
ATOM     38  H   UNL     1      -2.485 -12.618  12.241  0.00  0.00    +0.157 HD
ATOM     39  H   UNL     1      -2.684 -12.293  10.231  0.00  0.00    +0.156 HD
BRANCH   7  31
ATOM     31  C   UNL     1      -4.167 -11.533   9.007  0.00  0.00    +0.036 A 
ATOM     32  C   UNL     1      -4.304 -12.557   8.083  0.00  0.00    +0.042 A 
ATOM     33  C   UNL     1      -4.597 -10.247   8.725  0.00  0.00    +0.023 A 
ATOM     34  C   UNL     1      -4.887 -12.287   6.845  0.00  0.00    +0.054 A 
ATOM     35  C   UNL     1      -5.181  -9.977   7.487  0.00  0.00    +0.003 A 
ATOM     36  C   UNL     1      -5.325 -10.997   6.547  0.00  0.00    +0.019 A 
BRANCH  34  37
ATOM      8  N   UNL     1      -5.157 -14.183   5.101  0.00  0.00    -0.191 NA
ATOM     37  C   UNL     1      -5.036 -13.333   5.882  0.00  0.00    +0.099 C 
ENDBRANCH  34  37
ENDBRANCH   7  31
ENDBRANCH  20   6
BRANCH   3  16
ATOM     16  C   UNL     1      -7.745 -10.084  17.964  0.00  0.00    +0.121 C 
BRANCH  16  19
ATOM      5  N   UNL     1      -8.972  -9.664  14.550  0.00  0.00    -0.349 N 
ATOM     19  C   UNL     1      -8.423  -9.712  16.673  0.00  0.00    -0.008 A 
ATOM     22  C   UNL     1      -9.430  -8.740  16.528  0.00  0.00    +0.004 A 
ATOM     23  C   UNL     1      -8.150 -10.270  15.464  0.00  0.00    +0.091 A 
ATOM     24  C   UNL     1      -9.764  -8.726  15.173  0.00  0.00    +0.049 A 
ATOM     25  C   UNL     1     -10.102  -7.862  17.402  0.00  0.00    +0.010 A 
ATOM     26  C   UNL     1     -10.740  -7.874  14.644  0.00  0.00    +0.026 A 
ATOM     27  C   UNL     1      -8.993  -9.979  13.138  0.00  0.00    +0.149 C 
ATOM     28  C   UNL     1     -11.081  -7.004  16.888  0.00  0.00    +0.001 A 
ATOM     30  C   UNL     1     -11.394  -7.012  15.529  0.00  0.00    +0.002 A 
ENDBRANCH  16  19
ENDBRANCH   3  16
TORSDOF 5
ENDMDL
MODEL 9
REMARK VINA RESULT:      -7.1     27.537     31.589
REMARK  Name = 7051976
REMARK  6 active torsions:
REMARK  status: ('A' for Active; 'I' for Inactive)
REMARK    1  A    between atoms: N_3  and  C_16
REMARK    2  A    between atoms: N_5  and  C_27
REMARK    3  A    between atoms: N_6  and  C_20
REMARK    4  A    between atoms: N_7  and  C_31
REMARK    5  A    between atoms: C_16  and  C_19
REMARK    6  A    between atoms: C_34  and  C_37
REMARK                            x       y       z     vdW  Elec       q    Type
REMARK                         _______ _______ _______ _____ _____    ______ ____
ROOT
ATOM      1  O   UNL     1      18.720  -1.740  29.406  0.00  0.00    -0.266 OA
ATOM      3  N   UNL     1      17.194  -5.857  26.988  0.00  0.00    -0.297 NA
ATOM      4  N   UNL     1      18.048  -3.977  29.422  0.00  0.00    -0.310 N 
ATOM      9  C   UNL     1      19.365  -5.835  28.244  0.00  0.00    +0.024 C 
ATOM     10  C   UNL     1      17.293  -6.380  29.430  0.00  0.00    +0.050 C 
ATOM     11  C   UNL     1      18.772  -6.733  29.322  0.00  0.00    +0.017 C 
ATOM     12  C   UNL     1      18.644  -6.076  26.901  0.00  0.00    +0.090 C 
ATOM     13  C   UNL     1      16.597  -6.647  28.075  0.00  0.00    +0.094 C 
ATOM     14  C   UNL     1      19.270  -4.375  28.710  0.00  0.00    +0.130 C 
ATOM     15  C   UNL     1      17.113  -4.929  29.842  0.00  0.00    +0.026 A 
ATOM     17  C   UNL     1      16.058  -4.558  30.584  0.00  0.00    +0.024 A 
ATOM     18  C   UNL     1      17.915  -2.611  29.740  0.00  0.00    +0.273 A 
ATOM     20  C   UNL     1      16.714  -2.235  30.551  0.00  0.00    +0.100 A 
ATOM     21  C   UNL     1      15.856  -3.183  30.944  0.00  0.00    +0.030 A 
ENDROOT
BRANCH  20   6
ATOM      2  O   UNL     1      17.577  -0.964  32.945  0.00  0.00    -0.252 OA
ATOM      6  N   UNL     1      16.543  -0.921  30.870  0.00  0.00    -0.265 N 
ATOM      7  N   UNL     1      16.660   1.020  32.090  0.00  0.00    -0.269 N 
ATOM     29  C   UNL     1      16.987  -0.340  32.066  0.00  0.00    +0.308 C 
ATOM     38  H   UNL     1      15.854  -0.402  30.331  0.00  0.00    +0.157 HD
ATOM     39  H   UNL     1      16.173   1.385  31.275  0.00  0.00    +0.156 HD
BRANCH   7  31
ATOM     31  C   UNL     1      16.929   1.960  33.111  0.00  0.00    +0.036 A 
ATOM     32  C   UNL     1      16.049   2.078  34.175  0.00  0.00    +0.042 A 
ATOM     33  C   UNL     1      18.068   2.744  33.028  0.00  0.00    +0.023 A 
ATOM     34  C   UNL     1      16.315   3.006  35.182  0.00  0.00    +0.054 A 
ATOM     35  C   UNL     1      18.335   3.671  34.037  0.00  0.00    +0.003 A 
ATOM     36  C   UNL     1      17.458   3.802  35.112  0.00  0.00    +0.019 A 
BRANCH  34  37
ATOM      8  N   UNL     1      14.686   3.248  37.182  0.00  0.00    -0.191 NA
ATOM     37  C   UNL     1      15.417   3.140  36.285  0.00  0.00    +0.099 C 
ENDBRANCH  34  37
ENDBRANCH   7  31
ENDBRANCH  20   6
BRANCH   3  16
ATOM     16  C   UNL     1      16.543  -6.146  25.713  0.00  0.00    +0.121 C 
BRANCH  16  19
ATOM      5  N   UNL     1      18.573  -5.178  22.835  0.00  0.00    -0.349 N 
ATOM     19  C   UNL     1      17.254  -5.490  24.559  0.00  0.00    -0.008 A 
ATOM     22  C   UNL     1      17.090  -4.155  24.150  0.00  0.00    +0.004 A 
ATOM     23  C   UNL     1      18.159  -6.106  23.754  0.00  0.00    +0.091 A 
ATOM     24  C   UNL     1      17.935  -3.978  23.053  0.00  0.00    +0.049 A 
ATOM     25  C   UNL     1      16.311  -3.065  24.589  0.00  0.00    +0.010 A 
ATOM     26  C   UNL     1      18.043  -2.761  22.371  0.00  0.00    +0.026 A 
ATOM     27  C   UNL     1      19.540  -5.439  21.791  0.00  0.00    +0.149 C 
ATOM     28  C   UNL     1      16.407  -1.842  23.916  0.00  0.00    +0.001 A 
ATOM     30  C   UNL     1      17.261  -1.694  22.823  0.00  0.00    +0.002 A 
ENDBRANCH  16  19
ENDBRANCH   3  16
TORSDOF 5
ENDMDL
MODEL 10
REMARK VINA RESULT:      -7.0     23.589     26.169
REMARK  Name = 7051976
REMARK  6 active torsions:
REMARK  status: ('A' for Active; 'I' for Inactive)
REMARK    1  A    between atoms: N_3  and  C_16
REMARK    2  A    between atoms: N_5  and  C_27
REMARK    3  A    between atoms: N_6  and  C_20
REMARK    4  A    between atoms: N_7  and  C_31
REMARK    5  A    between atoms: C_16  and  C_19
REMARK    6  A    between atoms: C_34  and  C_37
REMARK                            x       y       z     vdW  Elec       q    Type
REMARK                         _______ _______ _______ _____ _____    ______ ____
ROOT
ATOM      1  O   UNL     1      10.496   4.491   3.690  0.00  0.00    -0.266 OA
ATOM      3  N   UNL     1       8.734   8.996   5.005  0.00  0.00    -0.297 NA
ATOM      4  N   UNL     1      10.667   6.457   4.940  0.00  0.00    -0.310 N 
ATOM      9  C   UNL     1       8.929   7.151   6.692  0.00  0.00    +0.024 C 
ATOM     10  C   UNL     1      10.858   8.595   6.258  0.00  0.00    +0.050 C 
ATOM     11  C   UNL     1      10.101   7.858   7.358  0.00  0.00    +0.017 C 
ATOM     12  C   UNL     1       8.017   8.183   5.995  0.00  0.00    +0.090 C 
ATOM     13  C   UNL     1       9.923   9.631   5.592  0.00  0.00    +0.094 C 
ATOM     14  C   UNL     1       9.475   6.096   5.719  0.00  0.00    +0.130 C 
ATOM     15  C   UNL     1      11.393   7.619   5.225  0.00  0.00    +0.026 A 
ATOM     17  C   UNL     1      12.538   7.877   4.574  0.00  0.00    +0.024 A 
ATOM     18  C   UNL     1      11.093   5.534   3.965  0.00  0.00    +0.273 A 
ATOM     20  C   UNL     1      12.363   5.867   3.247  0.00  0.00    +0.100 A 
ATOM     21  C   UNL     1      13.031   6.982   3.564  0.00  0.00    +0.030 A 
ENDROOT
BRANCH  20   6
ATOM      2  O   UNL     1      11.663   5.929   0.490  0.00  0.00    -0.252 OA
ATOM      6  N   UNL     1      12.802   5.005   2.287  0.00  0.00    -0.265 N 
ATOM      7  N   UNL     1      13.046   4.053   0.212  0.00  0.00    -0.269 N 
ATOM     29  C   UNL     1      12.427   5.077   0.938  0.00  0.00    +0.308 C 
ATOM     38  H   UNL     1      13.219   4.134   2.606  0.00  0.00    +0.157 HD
ATOM     39  H   UNL     1      13.657   3.431   0.735  0.00  0.00    +0.156 HD
BRANCH   7  31
ATOM     31  C   UNL     1      12.932   3.778  -1.170  0.00  0.00    +0.036 A 
ATOM     32  C   UNL     1      13.735   4.463  -2.068  0.00  0.00    +0.042 A 
ATOM     33  C   UNL     1      12.021   2.827  -1.599  0.00  0.00    +0.023 A 
ATOM     34  C   UNL     1      13.622   4.192  -3.432  0.00  0.00    +0.054 A 
ATOM     35  C   UNL     1      11.908   2.555  -2.963  0.00  0.00    +0.003 A 
ATOM     36  C   UNL     1      12.708   3.237  -3.878  0.00  0.00    +0.019 A 
BRANCH  34  37
ATOM      8  N   UNL     1      15.109   5.457  -5.133  0.00  0.00    -0.191 NA
ATOM     37  C   UNL     1      14.442   4.890  -4.370  0.00  0.00    +0.099 C 
ENDBRANCH  34  37
ENDBRANCH   7  31
ENDBRANCH  20   6
BRANCH   3  16
ATOM     16  C   UNL     1       7.850   9.994   4.407  0.00  0.00    +0.121 C 
BRANCH  16  19
ATOM      5  N   UNL     1       7.940   9.211   0.841  0.00  0.00    -0.349 N 
ATOM     19  C   UNL     1       7.604   9.722   2.947  0.00  0.00    -0.008 A 
ATOM     22  C   UNL     1       6.358   9.801   2.299  0.00  0.00    +0.004 A 
ATOM     23  C   UNL     1       8.562   9.362   2.052  0.00  0.00    +0.091 A 
ATOM     24  C   UNL     1       6.594   9.472   0.963  0.00  0.00    +0.049 A 
ATOM     25  C   UNL     1       5.044  10.117   2.698  0.00  0.00    +0.010 A 
ATOM     26  C   UNL     1       5.578   9.444   0.001  0.00  0.00    +0.026 A 
ATOM     27  C   UNL     1       8.616   8.829  -0.380  0.00  0.00    +0.149 C 
ATOM     28  C   UNL     1       4.018  10.092   1.748  0.00  0.00    +0.001 A 
ATOM     30  C   UNL     1       4.282   9.760   0.420  0.00  0.00    +0.002 A 
ENDBRANCH  16  19
ENDBRANCH   3  16
TORSDOF 5
ENDMDL
