MODEL 1
REMARK VINA RESULT:      -7.6      0.000      0.000
REMARK  Name = 75368458
REMARK  5 active torsions:
REMARK  status: ('A' for Active; 'I' for Inactive)
REMARK    1  A    between atoms: O_5  and  C_28
REMARK    2  A    between atoms: O_5  and  C_30
REMARK    3  A    between atoms: N_7  and  C_15
REMARK    4  A    between atoms: C_15  and  C_17
REMARK    5  A    between atoms: C_16  and  C_18
REMARK                            x       y       z     vdW  Elec       q    Type
REMARK                         _______ _______ _______ _____ _____    ______ ____
ROOT
ATOM      1  O   UNL     1     -17.147   2.081  22.628  0.00  0.00    -0.252 OA
ATOM      2  O   UNL     1     -16.514   0.189  29.323  0.00  0.00    -0.270 OA
ATOM      6  N   UNL     1     -16.615   2.212  24.913  0.00  0.00    -0.278 N 
ATOM      7  N   UNL     1     -16.557   4.099  23.695  0.00  0.00    -0.279 N 
ATOM      8  N   UNL     1     -16.889   1.768  27.642  0.00  0.00    -0.294 N 
ATOM      9  C   UNL     1     -16.111   3.223  25.827  0.00  0.00    +0.112 C 
ATOM     10  C   UNL     1     -16.281   4.528  25.055  0.00  0.00    +0.133 C 
ATOM     11  C   UNL     1     -16.866   3.160  27.151  0.00  0.00    +0.132 C 
ATOM     12  C   UNL     1     -16.759   0.838  25.362  0.00  0.00    +0.128 C 
ATOM     13  C   UNL     1     -17.479   0.799  26.708  0.00  0.00    +0.127 C 
ATOM     14  C   UNL     1     -16.812   2.716  23.620  0.00  0.00    +0.306 C 
ATOM     16  C   UNL     1     -16.454   1.342  28.898  0.00  0.00    +0.247 C 
ENDROOT
BRANCH  16  18
ATOM      3  O   UNL     1     -16.718   5.056  32.109  0.00  0.00    -0.453 OA
ATOM      4  O   UNL     1     -14.323   5.163  32.349  0.00  0.00    -0.453 OA
ATOM     18  C   UNL     1     -15.858   2.338  29.799  0.00  0.00    +0.041 A 
ATOM     21  C   UNL     1     -16.684   3.211  30.509  0.00  0.00    +0.062 A 
ATOM     22  C   UNL     1     -14.461   2.400  29.939  0.00  0.00    +0.017 A 
ATOM     23  C   UNL     1     -16.079   4.129  31.343  0.00  0.00    +0.167 A 
ATOM     26  C   UNL     1     -13.873   3.338  30.791  0.00  0.00    +0.050 A 
ATOM     27  C   UNL     1     -14.711   4.190  31.482  0.00  0.00    +0.166 A 
ATOM     29  C   UNL     1     -15.599   5.707  32.743  0.00  0.00    +0.466 C 
ENDBRANCH  16  18
BRANCH   7  15
ATOM     15  C   UNL     1     -16.681   5.043  22.607  0.00  0.00    +0.144 C 
BRANCH  15  17
ATOM     17  C   UNL     1     -15.345   5.554  22.151  0.00  0.00    -0.030 A 
ATOM     19  C   UNL     1     -14.188   4.828  22.435  0.00  0.00    +0.009 A 
ATOM     20  C   UNL     1     -15.260   6.754  21.445  0.00  0.00    +0.009 A 
ATOM     24  C   UNL     1     -12.946   5.303  22.011  0.00  0.00    +0.046 A 
ATOM     25  C   UNL     1     -14.019   7.228  21.021  0.00  0.00    +0.046 A 
ATOM     28  C   UNL     1     -12.862   6.502  21.305  0.00  0.00    +0.120 A 
BRANCH  28   5
ATOM      5  O   UNL     1     -11.650   6.966  20.893  0.00  0.00    -0.495 OA
ATOM     30  C   UNL     1     -11.507   7.267  19.506  0.00  0.00    +0.277 C 
ENDBRANCH  28   5
ENDBRANCH  15  17
ENDBRANCH   7  15
TORSDOF 4
ENDMDL
MODEL 2
REMARK VINA RESULT:      -7.3     27.572     31.576
REMARK  Name = 75368458
REMARK  5 active torsions:
REMARK  status: ('A' for Active; 'I' for Inactive)
REMARK    1  A    between atoms: O_5  and  C_28
REMARK    2  A    between atoms: O_5  and  C_30
REMARK    3  A    between atoms: N_7  and  C_15
REMARK    4  A    between atoms: C_15  and  C_17
REMARK    5  A    between atoms: C_16  and  C_18
REMARK                            x       y       z     vdW  Elec       q    Type
REMARK                         _______ _______ _______ _____ _____    ______ ____
ROOT
ATOM      1  O   UNL     1      10.638   8.604  19.817  0.00  0.00    -0.252 OA
ATOM      2  O   UNL     1      17.174   6.328  18.860  0.00  0.00    -0.270 OA
ATOM      6  N   UNL     1      12.945   8.320  20.165  0.00  0.00    -0.278 N 
ATOM      7  N   UNL     1      11.736   9.304  21.783  0.00  0.00    -0.279 N 
ATOM      8  N   UNL     1      15.391   7.003  20.211  0.00  0.00    -0.294 N 
ATOM      9  C   UNL     1      13.924   8.726  21.158  0.00  0.00    +0.112 C 
ATOM     10  C   UNL     1      13.075   9.194  22.336  0.00  0.00    +0.133 C 
ATOM     11  C   UNL     1      14.869   7.570  21.470  0.00  0.00    +0.132 C 
ATOM     12  C   UNL     1      13.382   7.664  18.944  0.00  0.00    +0.128 C 
ATOM     13  C   UNL     1      14.359   6.538  19.275  0.00  0.00    +0.127 C 
ATOM     14  C   UNL     1      11.647   8.729  20.500  0.00  0.00    +0.306 C 
ATOM     16  C   UNL     1      16.740   6.841  19.890  0.00  0.00    +0.247 C 
ENDROOT
BRANCH  16  18
ATOM      3  O   UNL     1      20.297   6.191  23.222  0.00  0.00    -0.453 OA
ATOM      4  O   UNL     1      20.579   8.562  23.544  0.00  0.00    -0.453 OA
ATOM     18  C   UNL     1      17.743   7.330  20.846  0.00  0.00    +0.041 A 
ATOM     21  C   UNL     1      18.524   6.417  21.558  0.00  0.00    +0.062 A 
ATOM     22  C   UNL     1      17.907   8.713  21.034  0.00  0.00    +0.017 A 
ATOM     23  C   UNL     1      19.452   6.923  22.444  0.00  0.00    +0.167 A 
ATOM     26  C   UNL     1      18.855   9.200  21.937  0.00  0.00    +0.050 A 
ATOM     27  C   UNL     1      19.615   8.277  22.628  0.00  0.00    +0.166 A 
ATOM     29  C   UNL     1      21.007   7.237  23.915  0.00  0.00    +0.466 C 
ENDBRANCH  16  18
BRANCH   7  15
ATOM     15  C   UNL     1      10.631   9.827  22.554  0.00  0.00    +0.144 C 
BRANCH  15  17
ATOM     17  C   UNL     1      10.916  11.201  23.086  0.00  0.00    -0.030 A 
ATOM     19  C   UNL     1      11.090  12.268  22.204  0.00  0.00    +0.009 A 
ATOM     20  C   UNL     1      11.009  11.412  24.462  0.00  0.00    +0.009 A 
ATOM     24  C   UNL     1      11.355  13.545  22.698  0.00  0.00    +0.046 A 
ATOM     25  C   UNL     1      11.274  12.689  24.956  0.00  0.00    +0.046 A 
ATOM     28  C   UNL     1      11.447  13.756  24.073  0.00  0.00    +0.120 A 
BRANCH  28   5
ATOM      5  O   UNL     1      11.708  15.002  24.555  0.00  0.00    -0.495 OA
ATOM     30  C   UNL     1      10.872  15.478  25.609  0.00  0.00    +0.277 C 
ENDBRANCH  28   5
ENDBRANCH  15  17
ENDBRANCH   7  15
TORSDOF 4
ENDMDL
MODEL 3
REMARK VINA RESULT:      -7.2     19.239     21.537
REMARK  Name = 75368458
REMARK  5 active torsions:
REMARK  status: ('A' for Active; 'I' for Inactive)
REMARK    1  A    between atoms: O_5  and  C_28
REMARK    2  A    between atoms: O_5  and  C_30
REMARK    3  A    between atoms: N_7  and  C_15
REMARK    4  A    between atoms: C_15  and  C_17
REMARK    5  A    between atoms: C_16  and  C_18
REMARK                            x       y       z     vdW  Elec       q    Type
REMARK                         _______ _______ _______ _____ _____    ______ ____
ROOT
ATOM      1  O   UNL     1      -1.134 -11.434  15.104  0.00  0.00    -0.252 OA
ATOM      2  O   UNL     1      -6.833 -10.768  19.088  0.00  0.00    -0.270 OA
ATOM      6  N   UNL     1      -3.359 -10.980  15.706  0.00  0.00    -0.278 N 
ATOM      7  N   UNL     1      -2.850 -11.103  13.521  0.00  0.00    -0.279 N 
ATOM      8  N   UNL     1      -5.759 -11.274  17.076  0.00  0.00    -0.294 N 
ATOM      9  C   UNL     1      -4.588 -10.617  15.023  0.00  0.00    +0.112 C 
ATOM     10  C   UNL     1      -4.290 -10.912  13.556  0.00  0.00    +0.133 C 
ATOM     11  C   UNL     1      -5.765 -11.394  15.604  0.00  0.00    +0.132 C 
ATOM     12  C   UNL     1      -3.311 -10.980  17.158  0.00  0.00    +0.128 C 
ATOM     13  C   UNL     1      -4.519 -11.727  17.722  0.00  0.00    +0.127 C 
ATOM     14  C   UNL     1      -2.300 -11.199  14.814  0.00  0.00    +0.306 C 
ATOM     16  C   UNL     1      -6.824 -10.827  17.860  0.00  0.00    +0.247 C 
ENDROOT
BRANCH  16  18
ATOM      3  O   UNL     1      -9.740  -7.354  15.962  0.00  0.00    -0.453 OA
ATOM      4  O   UNL     1     -11.397  -8.963  15.278  0.00  0.00    -0.453 OA
ATOM     18  C   UNL     1      -8.042 -10.370  17.177  0.00  0.00    +0.041 A 
ATOM     21  C   UNL     1      -8.228  -9.009  16.929  0.00  0.00    +0.062 A 
ATOM     22  C   UNL     1      -9.009 -11.310  16.778  0.00  0.00    +0.017 A 
ATOM     23  C   UNL     1      -9.387  -8.628  16.285  0.00  0.00    +0.167 A 
ATOM     26  C   UNL     1     -10.174 -10.898  16.127  0.00  0.00    +0.050 A 
ATOM     27  C   UNL     1     -10.334  -9.547  15.894  0.00  0.00    +0.166 A 
ATOM     29  C   UNL     1     -11.015  -7.575  15.324  0.00  0.00    +0.466 C 
ENDBRANCH  16  18
BRANCH   7  15
ATOM     15  C   UNL     1      -2.135 -11.302  12.281  0.00  0.00    +0.144 C 
BRANCH  15  17
ATOM     17  C   UNL     1      -2.936 -10.857  11.092  0.00  0.00    -0.030 A 
ATOM     19  C   UNL     1      -3.676 -11.788  10.363  0.00  0.00    +0.009 A 
ATOM     20  C   UNL     1      -2.939  -9.515  10.715  0.00  0.00    +0.009 A 
ATOM     24  C   UNL     1      -4.420 -11.375   9.257  0.00  0.00    +0.046 A 
ATOM     25  C   UNL     1      -3.683  -9.102   9.610  0.00  0.00    +0.046 A 
ATOM     28  C   UNL     1      -4.424 -10.033   8.881  0.00  0.00    +0.120 A 
BRANCH  28   5
ATOM      5  O   UNL     1      -5.149  -9.630   7.802  0.00  0.00    -0.495 OA
ATOM     30  C   UNL     1      -5.386 -10.599   6.781  0.00  0.00    +0.277 C 
ENDBRANCH  28   5
ENDBRANCH  15  17
ENDBRANCH   7  15
TORSDOF 4
ENDMDL
MODEL 4
REMARK VINA RESULT:      -7.0      4.450      8.206
REMARK  Name = 75368458
REMARK  5 active torsions:
REMARK  status: ('A' for Active; 'I' for Inactive)
REMARK    1  A    between atoms: O_5  and  C_28
REMARK    2  A    between atoms: O_5  and  C_30
REMARK    3  A    between atoms: N_7  and  C_15
REMARK    4  A    between atoms: C_15  and  C_17
REMARK    5  A    between atoms: C_16  and  C_18
REMARK                            x       y       z     vdW  Elec       q    Type
REMARK                         _______ _______ _______ _____ _____    ______ ____
ROOT
ATOM      1  O   UNL     1     -14.328   4.698  34.894  0.00  0.00    -0.252 OA
ATOM      2  O   UNL     1     -15.706  -0.241  30.150  0.00  0.00    -0.270 OA
ATOM      6  N   UNL     1     -15.167   3.690  32.945  0.00  0.00    -0.278 N 
ATOM      7  N   UNL     1     -15.200   5.932  33.083  0.00  0.00    -0.279 N 
ATOM      8  N   UNL     1     -15.227   1.960  30.771  0.00  0.00    -0.294 N 
ATOM      9  C   UNL     1     -15.861   4.120  31.743  0.00  0.00    +0.112 C 
ATOM     10  C   UNL     1     -15.686   5.637  31.746  0.00  0.00    +0.133 C 
ATOM     11  C   UNL     1     -15.286   3.413  30.520  0.00  0.00    +0.132 C 
ATOM     12  C   UNL     1     -14.984   2.272  33.205  0.00  0.00    +0.128 C 
ATOM     13  C   UNL     1     -14.449   1.574  31.957  0.00  0.00    +0.127 C 
ATOM     14  C   UNL     1     -14.837   4.764  33.782  0.00  0.00    +0.306 C 
ATOM     16  C   UNL     1     -15.793   0.971  29.964  0.00  0.00    +0.247 C 
ENDROOT
BRANCH  16  18
ATOM      3  O   UNL     1     -16.675   1.195  25.132  0.00  0.00    -0.453 OA
ATOM      4  O   UNL     1     -18.666   2.515  25.445  0.00  0.00    -0.453 OA
ATOM     18  C   UNL     1     -16.574   1.396  28.794  0.00  0.00    +0.041 A 
ATOM     21  C   UNL     1     -16.158   1.031  27.513  0.00  0.00    +0.062 A 
ATOM     22  C   UNL     1     -17.736   2.166  28.978  0.00  0.00    +0.017 A 
ATOM     23  C   UNL     1     -16.924   1.452  26.446  0.00  0.00    +0.167 A 
ATOM     26  C   UNL     1     -18.495   2.580  27.880  0.00  0.00    +0.050 A 
ATOM     27  C   UNL     1     -18.061   2.206  26.624  0.00  0.00    +0.166 A 
ATOM     29  C   UNL     1     -17.783   1.872  24.505  0.00  0.00    +0.466 C 
ENDBRANCH  16  18
BRANCH   7  15
ATOM     15  C   UNL     1     -15.002   7.288  33.542  0.00  0.00    +0.144 C 
BRANCH  15  17
ATOM     17  C   UNL     1     -14.038   8.042  32.672  0.00  0.00    -0.030 A 
ATOM     19  C   UNL     1     -14.506   9.039  31.817  0.00  0.00    +0.009 A 
ATOM     20  C   UNL     1     -12.677   7.744  32.718  0.00  0.00    +0.009 A 
ATOM     24  C   UNL     1     -13.611   9.740  31.008  0.00  0.00    +0.046 A 
ATOM     25  C   UNL     1     -11.782   8.445  31.910  0.00  0.00    +0.046 A 
ATOM     28  C   UNL     1     -12.249   9.442  31.055  0.00  0.00    +0.120 A 
BRANCH  28   5
ATOM      5  O   UNL     1     -11.377  10.125  30.264  0.00  0.00    -0.495 OA
ATOM     30  C   UNL     1     -11.733  10.287  28.892  0.00  0.00    +0.277 C 
ENDBRANCH  28   5
ENDBRANCH  15  17
ENDBRANCH   7  15
TORSDOF 4
ENDMDL
MODEL 5
REMARK VINA RESULT:      -6.8     17.426     20.046
REMARK  Name = 75368458
REMARK  5 active torsions:
REMARK  status: ('A' for Active; 'I' for Inactive)
REMARK    1  A    between atoms: O_5  and  C_28
REMARK    2  A    between atoms: O_5  and  C_30
REMARK    3  A    between atoms: N_7  and  C_15
REMARK    4  A    between atoms: C_15  and  C_17
REMARK    5  A    between atoms: C_16  and  C_18
REMARK                            x       y       z     vdW  Elec       q    Type
REMARK                         _______ _______ _______ _____ _____    ______ ____
ROOT
ATOM      1  O   UNL     1     -10.490 -10.497  19.716  0.00  0.00    -0.252 OA
ATOM      2  O   UNL     1      -3.653 -11.591  18.784  0.00  0.00    -0.270 OA
ATOM      6  N   UNL     1      -8.458 -10.930  18.618  0.00  0.00    -0.278 N 
ATOM      7  N   UNL     1     -10.256 -10.419  17.371  0.00  0.00    -0.279 N 
ATOM      8  N   UNL     1      -5.732 -10.769  18.104  0.00  0.00    -0.294 N 
ATOM      9  C   UNL     1      -8.007 -11.085  17.245  0.00  0.00    +0.112 C 
ATOM     10  C   UNL     1      -9.164 -10.530  16.418  0.00  0.00    +0.133 C 
ATOM     11  C   UNL     1      -6.677 -10.368  17.043  0.00  0.00    +0.132 C 
ATOM     12  C   UNL     1      -7.547 -11.213  19.714  0.00  0.00    +0.128 C 
ATOM     13  C   UNL     1      -6.207 -10.521  19.473  0.00  0.00    +0.127 C 
ATOM     14  C   UNL     1      -9.819 -10.605  18.697  0.00  0.00    +0.306 C 
ATOM     16  C   UNL     1      -4.456 -11.297  17.900  0.00  0.00    +0.247 C 
ENDROOT
BRANCH  16  18
ATOM      3  O   UNL     1      -1.868 -10.210  13.863  0.00  0.00    -0.453 OA
ATOM      4  O   UNL     1      -2.726 -12.117  12.667  0.00  0.00    -0.453 OA
ATOM     18  C   UNL     1      -4.021 -11.544  16.518  0.00  0.00    +0.041 A 
ATOM     21  C   UNL     1      -3.115 -10.672  15.911  0.00  0.00    +0.062 A 
ATOM     22  C   UNL     1      -4.522 -12.657  15.820  0.00  0.00    +0.017 A 
ATOM     23  C   UNL     1      -2.736 -10.944  14.613  0.00  0.00    +0.167 A 
ATOM     26  C   UNL     1      -4.122 -12.910  14.506  0.00  0.00    +0.050 A 
ATOM     27  C   UNL     1      -3.225 -12.033  13.929  0.00  0.00    +0.166 A 
ATOM     29  C   UNL     1      -1.867 -10.960  12.632  0.00  0.00    +0.466 C 
ENDBRANCH  16  18
BRANCH   7  15
ATOM     15  C   UNL     1     -11.586 -10.025  16.965  0.00  0.00    +0.144 C 
BRANCH  15  17
ATOM     17  C   UNL     1     -11.585  -8.721  16.222  0.00  0.00    -0.030 A 
ATOM     19  C   UNL     1     -11.969  -8.683  14.881  0.00  0.00    +0.009 A 
ATOM     20  C   UNL     1     -11.199  -7.548  16.870  0.00  0.00    +0.009 A 
ATOM     24  C   UNL     1     -11.968  -7.472  14.190  0.00  0.00    +0.046 A 
ATOM     25  C   UNL     1     -11.199  -6.337  16.179  0.00  0.00    +0.046 A 
ATOM     28  C   UNL     1     -11.583  -6.299  14.838  0.00  0.00    +0.120 A 
BRANCH  28   5
ATOM      5  O   UNL     1     -11.581  -5.117  14.163  0.00  0.00    -0.495 OA
ATOM     30  C   UNL     1     -12.824  -4.682  13.612  0.00  0.00    +0.277 C 
ENDBRANCH  28   5
ENDBRANCH  15  17
ENDBRANCH   7  15
TORSDOF 4
ENDMDL
MODEL 6
REMARK VINA RESULT:      -6.8     31.043     35.191
REMARK  Name = 75368458
REMARK  5 active torsions:
REMARK  status: ('A' for Active; 'I' for Inactive)
REMARK    1  A    between atoms: O_5  and  C_28
REMARK    2  A    between atoms: O_5  and  C_30
REMARK    3  A    between atoms: N_7  and  C_15
REMARK    4  A    between atoms: C_15  and  C_17
REMARK    5  A    between atoms: C_16  and  C_18
REMARK                            x       y       z     vdW  Elec       q    Type
REMARK                         _______ _______ _______ _____ _____    ______ ____
ROOT
ATOM      1  O   UNL     1      16.245   9.215  20.547  0.00  0.00    -0.252 OA
ATOM      2  O   UNL     1      22.583   7.736  23.086  0.00  0.00    -0.270 OA
ATOM      6  N   UNL     1      18.170   7.979  21.081  0.00  0.00    -0.278 N 
ATOM      7  N   UNL     1      16.694   7.085  19.642  0.00  0.00    -0.279 N 
ATOM      8  N   UNL     1      20.872   7.493  21.514  0.00  0.00    -0.294 N 
ATOM      9  C   UNL     1      18.679   6.644  20.816  0.00  0.00    +0.112 C 
ATOM     10  C   UNL     1      17.792   6.135  19.683  0.00  0.00    +0.133 C 
ATOM     11  C   UNL     1      20.167   6.703  20.486  0.00  0.00    +0.132 C 
ATOM     12  C   UNL     1      18.872   8.849  22.009  0.00  0.00    +0.128 C 
ATOM     13  C   UNL     1      20.365   8.862  21.688  0.00  0.00    +0.127 C 
ATOM     14  C   UNL     1      16.947   8.218  20.440  0.00  0.00    +0.306 C 
ATOM     16  C   UNL     1      21.969   7.062  22.261  0.00  0.00    +0.247 C 
ENDROOT
BRANCH  16  18
ATOM      3  O   UNL     1      24.749   3.647  20.073  0.00  0.00    -0.453 OA
ATOM      4  O   UNL     1      23.838   1.878  21.431  0.00  0.00    -0.453 OA
ATOM     18  C   UNL     1      22.439   5.683  22.068  0.00  0.00    +0.041 A 
ATOM     21  C   UNL     1      23.409   5.411  21.103  0.00  0.00    +0.062 A 
ATOM     22  C   UNL     1      21.907   4.651  22.861  0.00  0.00    +0.017 A 
ATOM     23  C   UNL     1      23.819   4.101  20.958  0.00  0.00    +0.167 A 
ATOM     26  C   UNL     1      22.339   3.333  22.695  0.00  0.00    +0.050 A 
ATOM     27  C   UNL     1      23.300   3.090  21.733  0.00  0.00    +0.166 A 
ATOM     29  C   UNL     1      24.755   2.238  20.379  0.00  0.00    +0.466 C 
ENDBRANCH  16  18
BRANCH   7  15
ATOM     15  C   UNL     1      15.560   6.905  18.763  0.00  0.00    +0.144 C 
BRANCH  15  17
ATOM     17  C   UNL     1      14.270   7.299  19.421  0.00  0.00    -0.030 A 
ATOM     19  C   UNL     1      13.900   6.718  20.634  0.00  0.00    +0.009 A 
ATOM     20  C   UNL     1      13.440   8.246  18.820  0.00  0.00    +0.009 A 
ATOM     24  C   UNL     1      12.701   7.085  21.245  0.00  0.00    +0.046 A 
ATOM     25  C   UNL     1      12.242   8.612  19.431  0.00  0.00    +0.046 A 
ATOM     28  C   UNL     1      11.872   8.031  20.644  0.00  0.00    +0.120 A 
BRANCH  28   5
ATOM      5  O   UNL     1      10.702   8.387  21.241  0.00  0.00    -0.495 OA
ATOM     30  C   UNL     1      10.179   7.499  22.228  0.00  0.00    +0.277 C 
ENDBRANCH  28   5
ENDBRANCH  15  17
ENDBRANCH   7  15
TORSDOF 4
ENDMDL
MODEL 7
REMARK VINA RESULT:      -6.8     29.483     33.623
REMARK  Name = 75368458
REMARK  5 active torsions:
REMARK  status: ('A' for Active; 'I' for Inactive)
REMARK    1  A    between atoms: O_5  and  C_28
REMARK    2  A    between atoms: O_5  and  C_30
REMARK    3  A    between atoms: N_7  and  C_15
REMARK    4  A    between atoms: C_15  and  C_17
REMARK    5  A    between atoms: C_16  and  C_18
REMARK                            x       y       z     vdW  Elec       q    Type
REMARK                         _______ _______ _______ _____ _____    ______ ____
ROOT
ATOM      1  O   UNL     1      11.923   7.091  19.142  0.00  0.00    -0.252 OA
ATOM      2  O   UNL     1      12.568  11.583  13.830  0.00  0.00    -0.270 OA
ATOM      6  N   UNL     1      12.775   8.847  17.834  0.00  0.00    -0.278 N 
ATOM      7  N   UNL     1      14.012   8.104  19.556  0.00  0.00    -0.279 N 
ATOM      8  N   UNL     1      13.449  10.232  15.521  0.00  0.00    -0.294 N 
ATOM      9  C   UNL     1      13.916   9.745  17.879  0.00  0.00    +0.112 C 
ATOM     10  C   UNL     1      14.844   9.101  18.906  0.00  0.00    +0.133 C 
ATOM     11  C   UNL     1      14.517   9.905  16.487  0.00  0.00    +0.132 C 
ATOM     12  C   UNL     1      11.733   9.051  16.841  0.00  0.00    +0.128 C 
ATOM     13  C   UNL     1      12.356   9.251  15.462  0.00  0.00    +0.127 C 
ATOM     14  C   UNL     1      12.791   7.913  18.879  0.00  0.00    +0.306 C 
ATOM     16  C   UNL     1      13.436  11.334  14.665  0.00  0.00    +0.247 C 
ENDROOT
BRANCH  16  18
ATOM      3  O   UNL     1      17.885  13.039  13.451  0.00  0.00    -0.453 OA
ATOM      4  O   UNL     1      17.692  14.922  14.941  0.00  0.00    -0.453 OA
ATOM     18  C   UNL     1      14.540  12.300  14.763  0.00  0.00    +0.041 A 
ATOM     21  C   UNL     1      15.689  12.119  13.992  0.00  0.00    +0.062 A 
ATOM     22  C   UNL     1      14.426  13.398  15.633  0.00  0.00    +0.017 A 
ATOM     23  C   UNL     1      16.698  13.051  14.117  0.00  0.00    +0.167 A 
ATOM     26  C   UNL     1      15.463  14.329  15.742  0.00  0.00    +0.050 A 
ATOM     27  C   UNL     1      16.588  14.127  14.968  0.00  0.00    +0.166 A 
ATOM     29  C   UNL     1      18.509  14.227  13.978  0.00  0.00    +0.466 C 
ENDBRANCH  16  18
BRANCH   7  15
ATOM     15  C   UNL     1      14.485   7.330  20.682  0.00  0.00    +0.144 C 
BRANCH  15  17
ATOM     17  C   UNL     1      15.949   7.018  20.574  0.00  0.00    -0.030 A 
ATOM     19  C   UNL     1      16.854   7.611  21.455  0.00  0.00    +0.009 A 
ATOM     20  C   UNL     1      16.406   6.137  19.594  0.00  0.00    +0.009 A 
ATOM     24  C   UNL     1      18.215   7.321  21.356  0.00  0.00    +0.046 A 
ATOM     25  C   UNL     1      17.766   5.847  19.495  0.00  0.00    +0.046 A 
ATOM     28  C   UNL     1      18.671   6.440  20.376  0.00  0.00    +0.120 A 
BRANCH  28   5
ATOM      5  O   UNL     1      19.999   6.159  20.279  0.00  0.00    -0.495 OA
ATOM     30  C   UNL     1      20.678   5.805  21.483  0.00  0.00    +0.277 C 
ENDBRANCH  28   5
ENDBRANCH  15  17
ENDBRANCH   7  15
TORSDOF 4
ENDMDL
MODEL 8
REMARK VINA RESULT:      -6.7     28.481     32.550
REMARK  Name = 75368458
REMARK  5 active torsions:
REMARK  status: ('A' for Active; 'I' for Inactive)
REMARK    1  A    between atoms: O_5  and  C_28
REMARK    2  A    between atoms: O_5  and  C_30
REMARK    3  A    between atoms: N_7  and  C_15
REMARK    4  A    between atoms: C_15  and  C_17
REMARK    5  A    between atoms: C_16  and  C_18
REMARK                            x       y       z     vdW  Elec       q    Type
REMARK                         _______ _______ _______ _____ _____    ______ ____
ROOT
ATOM      1  O   UNL     1      18.346   5.987  20.253  0.00  0.00    -0.252 OA
ATOM      2  O   UNL     1      11.606   7.798  19.930  0.00  0.00    -0.270 OA
ATOM      6  N   UNL     1      16.368   7.192  20.648  0.00  0.00    -0.278 N 
ATOM      7  N   UNL     1      18.320   8.114  21.272  0.00  0.00    -0.279 N 
ATOM      8  N   UNL     1      13.883   8.302  20.088  0.00  0.00    -0.294 N 
ATOM      9  C   UNL     1      15.992   8.417  21.334  0.00  0.00    +0.112 C 
ATOM     10  C   UNL     1      17.322   9.131  21.558  0.00  0.00    +0.133 C 
ATOM     11  C   UNL     1      14.980   9.198  20.502  0.00  0.00    +0.132 C 
ATOM     12  C   UNL     1      15.338   6.311  20.125  0.00  0.00    +0.128 C 
ATOM     13  C   UNL     1      14.312   7.117  19.331  0.00  0.00    +0.127 C 
ATOM     14  C   UNL     1      17.752   6.972  20.674  0.00  0.00    +0.306 C 
ATOM     16  C   UNL     1      12.523   8.523  20.313  0.00  0.00    +0.247 C 
ENDROOT
BRANCH  16  18
ATOM      3  O   UNL     1      10.917  10.773  24.380  0.00  0.00    -0.453 OA
ATOM      4  O   UNL     1      11.020  12.948  23.349  0.00  0.00    -0.453 OA
ATOM     18  C   UNL     1      12.134   9.711  21.085  0.00  0.00    +0.041 A 
ATOM     21  C   UNL     1      11.709   9.570  22.407  0.00  0.00    +0.062 A 
ATOM     22  C   UNL     1      12.194  10.981  20.483  0.00  0.00    +0.017 A 
ATOM     23  C   UNL     1      11.354  10.714  23.091  0.00  0.00    +0.167 A 
ATOM     26  C   UNL     1      11.828  12.124  21.198  0.00  0.00    +0.050 A 
ATOM     27  C   UNL     1      11.413  11.957  22.504  0.00  0.00    +0.166 A 
ATOM     29  C   UNL     1      10.708  12.191  24.535  0.00  0.00    +0.466 C 
ENDBRANCH  16  18
BRANCH   7  15
ATOM     15  C   UNL     1      19.732   8.352  21.468  0.00  0.00    +0.144 C 
BRANCH  15  17
ATOM     17  C   UNL     1      20.102   8.370  22.923  0.00  0.00    -0.030 A 
ATOM     19  C   UNL     1      20.225   7.171  23.626  0.00  0.00    +0.009 A 
ATOM     20  C   UNL     1      20.322   9.585  23.573  0.00  0.00    +0.009 A 
ATOM     24  C   UNL     1      20.569   7.188  24.977  0.00  0.00    +0.046 A 
ATOM     25  C   UNL     1      20.666   9.601  24.924  0.00  0.00    +0.046 A 
ATOM     28  C   UNL     1      20.789   8.402  25.626  0.00  0.00    +0.120 A 
BRANCH  28   5
ATOM      5  O   UNL     1      21.124   8.418  26.945  0.00  0.00    -0.495 OA
ATOM     30  C   UNL     1      20.279   7.693  27.838  0.00  0.00    +0.277 C 
ENDBRANCH  28   5
ENDBRANCH  15  17
ENDBRANCH   7  15
TORSDOF 4
ENDMDL
MODEL 9
REMARK VINA RESULT:      -6.7     28.123     32.290
REMARK  Name = 75368458
REMARK  5 active torsions:
REMARK  status: ('A' for Active; 'I' for Inactive)
REMARK    1  A    between atoms: O_5  and  C_28
REMARK    2  A    between atoms: O_5  and  C_30
REMARK    3  A    between atoms: N_7  and  C_15
REMARK    4  A    between atoms: C_15  and  C_17
REMARK    5  A    between atoms: C_16  and  C_18
REMARK                            x       y       z     vdW  Elec       q    Type
REMARK                         _______ _______ _______ _____ _____    ______ ____
ROOT
ATOM      1  O   UNL     1      17.718   5.801  18.795  0.00  0.00    -0.252 OA
ATOM      2  O   UNL     1      11.481   8.939  18.563  0.00  0.00    -0.270 OA
ATOM      6  N   UNL     1      15.805   6.955  19.522  0.00  0.00    -0.278 N 
ATOM      7  N   UNL     1      17.577   6.853  20.900  0.00  0.00    -0.279 N 
ATOM      8  N   UNL     1      13.659   8.714  19.379  0.00  0.00    -0.294 N 
ATOM      9  C   UNL     1      15.351   7.585  20.750  0.00  0.00    +0.112 C 
ATOM     10  C   UNL     1      16.619   7.700  21.590  0.00  0.00    +0.133 C 
ATOM     11  C   UNL     1      14.667   8.912  20.439  0.00  0.00    +0.132 C 
ATOM     12  C   UNL     1      14.893   6.817  18.399  0.00  0.00    +0.128 C 
ATOM     13  C   UNL     1      14.188   8.144  18.131  0.00  0.00    +0.127 C 
ATOM     14  C   UNL     1      17.108   6.451  19.634  0.00  0.00    +0.306 C 
ATOM     16  C   UNL     1      12.310   9.064  19.462  0.00  0.00    +0.247 C 
ENDROOT
BRANCH  16  18
ATOM      3  O   UNL     1      11.401  12.771  22.562  0.00  0.00    -0.453 OA
ATOM      4  O   UNL     1      10.472  11.297  24.226  0.00  0.00    -0.453 OA
ATOM     18  C   UNL     1      11.817   9.619  20.730  0.00  0.00    +0.041 A 
ATOM     21  C   UNL     1      11.889  10.994  20.959  0.00  0.00    +0.062 A 
ATOM     22  C   UNL     1      11.275   8.758  21.701  0.00  0.00    +0.017 A 
ATOM     23  C   UNL     1      11.412  11.469  22.163  0.00  0.00    +0.167 A 
ATOM     26  C   UNL     1      10.798   9.265  22.913  0.00  0.00    +0.050 A 
ATOM     27  C   UNL     1      10.881  10.628  23.114  0.00  0.00    +0.166 A 
ATOM     29  C   UNL     1      10.804  12.653  23.869  0.00  0.00    +0.466 C 
ENDBRANCH  16  18
BRANCH   7  15
ATOM     15  C   UNL     1      18.895   6.598  21.435  0.00  0.00    +0.144 C 
BRANCH  15  17
ATOM     17  C   UNL     1      19.523   7.838  22.001  0.00  0.00    -0.030 A 
ATOM     19  C   UNL     1      19.662   8.974  21.205  0.00  0.00    +0.009 A 
ATOM     20  C   UNL     1      19.968   7.854  23.323  0.00  0.00    +0.009 A 
ATOM     24  C   UNL     1      20.246  10.127  21.731  0.00  0.00    +0.046 A 
ATOM     25  C   UNL     1      20.550   9.007  23.849  0.00  0.00    +0.046 A 
ATOM     28  C   UNL     1      20.690  10.143  23.052  0.00  0.00    +0.120 A 
BRANCH  28   5
ATOM      5  O   UNL     1      21.260  11.268  23.565  0.00  0.00    -0.495 OA
ATOM     30  C   UNL     1      22.215  11.943  22.746  0.00  0.00    +0.277 C 
ENDBRANCH  28   5
ENDBRANCH  15  17
ENDBRANCH   7  15
TORSDOF 4
ENDMDL
MODEL 10
REMARK VINA RESULT:      -6.6      5.597     10.136
REMARK  Name = 75368458
REMARK  5 active torsions:
REMARK  status: ('A' for Active; 'I' for Inactive)
REMARK    1  A    between atoms: O_5  and  C_28
REMARK    2  A    between atoms: O_5  and  C_30
REMARK    3  A    between atoms: N_7  and  C_15
REMARK    4  A    between atoms: C_15  and  C_17
REMARK    5  A    between atoms: C_16  and  C_18
REMARK                            x       y       z     vdW  Elec       q    Type
REMARK                         _______ _______ _______ _____ _____    ______ ____
ROOT
ATOM      1  O   UNL     1     -14.642   5.140  35.430  0.00  0.00    -0.252 OA
ATOM      2  O   UNL     1     -11.581  10.971  33.100  0.00  0.00    -0.270 OA
ATOM      6  N   UNL     1     -13.893   6.786  33.930  0.00  0.00    -0.278 N 
ATOM      7  N   UNL     1     -15.361   5.256  33.188  0.00  0.00    -0.279 N 
ATOM      8  N   UNL     1     -13.244   9.332  33.026  0.00  0.00    -0.294 N 
ATOM      9  C   UNL     1     -14.027   7.066  32.511  0.00  0.00    +0.112 C 
ATOM     10  C   UNL     1     -15.179   6.166  32.070  0.00  0.00    +0.133 C 
ATOM     11  C   UNL     1     -14.259   8.556  32.286  0.00  0.00    +0.132 C 
ATOM     12  C   UNL     1     -12.984   7.578  34.740  0.00  0.00    +0.128 C 
ATOM     13  C   UNL     1     -13.203   9.065  34.471  0.00  0.00    +0.127 C 
ATOM     14  C   UNL     1     -14.630   5.660  34.322  0.00  0.00    +0.306 C 
ATOM     16  C   UNL     1     -12.396  10.294  32.476  0.00  0.00    +0.247 C 
ENDROOT
BRANCH  16  18
ATOM      3  O   UNL     1     -10.865   9.576  27.859  0.00  0.00    -0.453 OA
ATOM      4  O   UNL     1     -12.523  11.075  26.959  0.00  0.00    -0.453 OA
ATOM     18  C   UNL     1     -12.457  10.524  31.026  0.00  0.00    +0.041 A 
ATOM     21  C   UNL     1     -11.557   9.871  30.182  0.00  0.00    +0.062 A 
ATOM     22  C   UNL     1     -13.425  11.398  30.501  0.00  0.00    +0.017 A 
ATOM     23  C   UNL     1     -11.653  10.117  28.828  0.00  0.00    +0.167 A 
ATOM     26  C   UNL     1     -13.502  11.631  29.126  0.00  0.00    +0.050 A 
ATOM     27  C   UNL     1     -12.600  10.973  28.313  0.00  0.00    +0.166 A 
ATOM     29  C   UNL     1     -11.422  10.187  26.678  0.00  0.00    +0.466 C 
ENDBRANCH  16  18
BRANCH   7  15
ATOM     15  C   UNL     1     -16.300   4.158  33.133  0.00  0.00    +0.144 C 
BRANCH  15  17
ATOM     17  C   UNL     1     -15.865   3.092  32.169  0.00  0.00    -0.030 A 
ATOM     19  C   UNL     1     -16.346   3.100  30.860  0.00  0.00    +0.009 A 
ATOM     20  C   UNL     1     -14.981   2.095  32.582  0.00  0.00    +0.009 A 
ATOM     24  C   UNL     1     -15.942   2.110  29.963  0.00  0.00    +0.046 A 
ATOM     25  C   UNL     1     -14.578   1.106  31.686  0.00  0.00    +0.046 A 
ATOM     28  C   UNL     1     -15.059   1.114  30.376  0.00  0.00    +0.120 A 
BRANCH  28   5
ATOM      5  O   UNL     1     -14.666   0.147  29.502  0.00  0.00    -0.495 OA
ATOM     30  C   UNL     1     -13.456  -0.547  29.801  0.00  0.00    +0.277 C 
ENDBRANCH  28   5
ENDBRANCH  15  17
ENDBRANCH   7  15
TORSDOF 4
ENDMDL
