REMARK  Name = 11882035
REMARK  12 active torsions:
REMARK  status: ('A' for Active; 'I' for Inactive)
REMARK    1  A    between atoms: O_5  and  C_39
REMARK    2  A    between atoms: O_5  and  C_40
REMARK    3  A    between atoms: N_7  and  C_12
REMARK    4  A    between atoms: N_8  and  C_18
REMARK    5  A    between atoms: N_9  and  C_28
REMARK    6  A    between atoms: C_13  and  C_16
REMARK    7  A    between atoms: C_17  and  C_21
REMARK    8  A    between atoms: C_18  and  C_20
REMARK    9  A    between atoms: C_18  and  C_23
REMARK   10  A    between atoms: C_20  and  C_22
REMARK   11  A    between atoms: C_24  and  C_29
REMARK   12  A    between atoms: C_24  and  C_30
REMARK                            x       y       z     vdW  Elec       q    Type
REMARK                         _______ _______ _______ _____ _____    ______ ____
ROOT
ATOM      2  O   UNL     1       5.572   0.465   0.715  0.00  0.00    -0.271 OA
ATOM      6  N   UNL     1       3.936  -0.919  -0.167  0.00  0.00    -0.285 N 
ATOM     12  C   UNL     1       2.045  -1.950  -1.182  0.00  0.00    +0.094 C 
ATOM     13  C   UNL     1       3.275   0.115  -0.951  0.00  0.00    +0.164 C 
ATOM     14  C   UNL     1       2.352  -0.637  -1.907  0.00  0.00    +0.056 C 
ATOM     15  C   UNL     1       3.321  -2.230  -0.394  0.00  0.00    +0.131 C 
ATOM     17  C   UNL     1       5.091  -0.656   0.550  0.00  0.00    +0.240 C 
ENDROOT
BRANCH  12   7
ATOM      3  O   UNL     1      -0.677  -2.523  -1.863  0.00  0.00    -0.253 OA
ATOM      7  N   UNL     1       0.897  -1.829  -0.318  0.00  0.00    -0.295 N 
ATOM      9  N   UNL     1      -1.309  -1.919   0.316  0.00  0.00    -0.269 N 
ATOM     19  C   UNL     1      -0.407  -2.131  -0.731  0.00  0.00    +0.304 C 
ATOM     41  H   UNL     1       1.030  -1.447   0.613  0.00  0.00    +0.151 HD
ATOM     43  H   UNL     1      -0.919  -1.589   1.195  0.00  0.00    +0.156 HD
BRANCH   9  28
ATOM     28  C   UNL     1      -2.711  -2.108   0.305  0.00  0.00    +0.035 A 
ATOM     35  C   UNL     1      -3.459  -1.844   1.452  0.00  0.00    +0.027 A 
ATOM     36  C   UNL     1      -3.345  -2.556  -0.854  0.00  0.00    +0.027 A 
ATOM     37  C   UNL     1      -4.842  -2.028   1.440  0.00  0.00    +0.047 A 
ATOM     38  C   UNL     1      -4.727  -2.741  -0.866  0.00  0.00    +0.047 A 
ATOM     39  C   UNL     1      -5.476  -2.477   0.282  0.00  0.00    +0.120 A 
BRANCH  39   5
ATOM      5  O   UNL     1      -6.825  -2.655   0.270  0.00  0.00    -0.495 OA
ATOM     40  C   UNL     1      -7.529  -2.364   1.476  0.00  0.00    +0.277 C 
ENDBRANCH  39   5
ENDBRANCH   9  28
ENDBRANCH  12   7
BRANCH  13  16
ATOM      1  O   UNL     1       2.490   0.822   1.190  0.00  0.00    -0.274 OA
ATOM      8  N   UNL     1       1.816   1.998  -0.703  0.00  0.00    -0.302 N 
ATOM     16  C   UNL     1       2.501   1.004  -0.025  0.00  0.00    +0.234 C 
ATOM     42  H   UNL     1       1.969   2.106  -1.701  0.00  0.00    +0.150 HD
BRANCH   8  18
ATOM     18  C   UNL     1       0.977   2.972  -0.042  0.00  0.00    +0.163 C 
BRANCH  18  23
ATOM      4  O   UNL     1       2.845   4.510  -0.271  0.00  0.00    -0.274 OA
ATOM     11  N   UNL     1       1.462   4.725   1.550  0.00  0.00    -0.328 N 
ATOM     23  C   UNL     1       1.878   4.124   0.381  0.00  0.00    +0.231 C 
ATOM     45  H   UNL     1       1.967   5.516   1.937  0.00  0.00    +0.145 HD
ATOM     46  H   UNL     1       0.646   4.410   2.065  0.00  0.00    +0.145 HD
ENDBRANCH  18  23
BRANCH  18  20
ATOM     20  C   UNL     1      -0.151   3.478  -0.949  0.00  0.00    +0.069 C 
BRANCH  20  22
ATOM     10  N   UNL     1      -2.629   0.874  -1.715  0.00  0.00    -0.360 N 
ATOM     22  C   UNL     1      -1.307   2.524  -1.040  0.00  0.00    -0.020 A 
ATOM     25  C   UNL     1      -2.452   2.496  -0.195  0.00  0.00    +0.003 A 
ATOM     26  C   UNL     1      -1.445   1.514  -1.964  0.00  0.00    +0.087 A 
ATOM     27  C   UNL     1      -3.265   1.452  -0.640  0.00  0.00    +0.047 A 
ATOM     31  C   UNL     1      -2.876   3.262   0.909  0.00  0.00    +0.010 A 
ATOM     32  C   UNL     1      -4.485   1.133  -0.034  0.00  0.00    +0.026 A 
ATOM     33  C   UNL     1      -4.094   2.955   1.526  0.00  0.00    +0.001 A 
ATOM     34  C   UNL     1      -4.885   1.907   1.060  0.00  0.00    +0.002 A 
ATOM     44  H   UNL     1      -2.986   0.091  -2.245  0.00  0.00    +0.165 HD
ENDBRANCH  20  22
ENDBRANCH  18  20
ENDBRANCH   8  18
ENDBRANCH  13  16
BRANCH  17  21
ATOM     21  C   UNL     1       5.777  -1.815   1.154  0.00  0.00    +0.066 C 
ATOM     24  C   UNL     1       7.038  -2.189   0.878  0.00  0.00    -0.071 C 
ATOM     29  C   UNL     1       7.852  -1.398  -0.114  0.00  0.00    +0.039 C 
ATOM     30  C   UNL     1       7.770  -3.361   1.471  0.00  0.00    +0.039 C 
ENDBRANCH  17  21
TORSDOF 9
