REMARK  Name = 71693186
REMARK  15 active torsions:
REMARK  status: ('A' for Active; 'I' for Inactive)
REMARK    1  A    between atoms: O_1  and  C_26
REMARK    2  A    between atoms: O_1  and  C_34
REMARK    3  A    between atoms: O_2  and  C_33
REMARK    4  A    between atoms: O_2  and  C_35
REMARK    5  A    between atoms: N_4  and  C_14
REMARK    6  A    between atoms: N_4  and  C_20
REMARK    7  A    between atoms: C_7  and  C_11
REMARK    8  A    between atoms: C_8  and  C_14
REMARK    9  A    between atoms: C_10  and  C_15
REMARK   10  A    between atoms: C_11  and  C_16
REMARK   11  A    between atoms: C_11  and  C_17
REMARK   12  A    between atoms: C_12  and  C_18
REMARK   13  A    between atoms: C_15  and  C_19
REMARK   14  A    between atoms: C_20  and  C_23
REMARK   15  A    between atoms: C_28  and  C_33
REMARK                            x       y       z     vdW  Elec       q    Type
REMARK                         _______ _______ _______ _____ _____    ______ ____
ROOT
ATOM      7  C   UNL     1       3.774  -0.569  -0.666  0.00  0.00    +0.000 C 
ATOM      8  C   UNL     1       3.338  -0.910   0.778  0.00  0.00    +0.029 C 
ATOM      9  C   UNL     1       3.101   0.727  -1.139  0.00  0.00    +0.012 C 
ATOM     10  C   UNL     1       3.383   1.934  -0.219  0.00  0.00    +0.022 C 
ATOM     12  C   UNL     1       3.373   1.572   1.259  0.00  0.00    -0.073 C 
ATOM     13  C   UNL     1       3.341   0.296   1.684  0.00  0.00    -0.023 C 
ATOM     18  C   UNL     1       3.460   2.699   2.251  0.00  0.00    +0.039 C 
ENDROOT
BRANCH   7  11
ATOM     11  C   UNL     1       5.301  -0.475  -0.782  0.00  0.00    -0.013 C 
ATOM     16  C   UNL     1       5.693   0.270  -2.054  0.00  0.00    +0.007 C 
ATOM     17  C   UNL     1       5.923  -1.868  -0.759  0.00  0.00    +0.007 C 
ENDBRANCH   7  11
BRANCH   8  14
ATOM     14  C   UNL     1       1.953  -1.563   0.813  0.00  0.00    +0.089 C 
BRANCH  14   4
ATOM      4  N   UNL     1       1.921  -2.744  -0.032  0.00  0.00    -0.311 NA
ATOM     36  H   UNL     1       2.789  -3.267   0.097  0.00  0.00    +0.122 HD
BRANCH   4  20
ATOM     20  C   UNL     1       0.811  -3.618   0.329  0.00  0.00    +0.120 C 
BRANCH  20  23
ATOM     23  C   UNL     1      -0.495  -3.128  -0.239  0.00  0.00    +0.008 A 
ATOM     26  C   UNL     1      -1.569  -2.827   0.599  0.00  0.00    +0.124 A 
ATOM     27  C   UNL     1      -0.624  -2.978  -1.620  0.00  0.00    +0.008 A 
ATOM     30  C   UNL     1      -2.771  -2.375   0.056  0.00  0.00    +0.046 A 
ATOM     31  C   UNL     1      -1.827  -2.526  -2.163  0.00  0.00    +0.001 A 
ATOM     32  C   UNL     1      -2.900  -2.224  -1.325  0.00  0.00    +0.004 A 
BRANCH  26   1
ATOM      1  O   UNL     1      -1.460  -2.969   1.949  0.00  0.00    -0.495 OA
ATOM     34  C   UNL     1      -2.607  -2.638   2.729  0.00  0.00    +0.277 C 
ENDBRANCH  26   1
ENDBRANCH  20  23
ENDBRANCH   4  20
ENDBRANCH  14   4
ENDBRANCH   8  14
BRANCH  10  15
ATOM     15  C   UNL     1       2.396   3.055  -0.565  0.00  0.00    +0.082 C 
BRANCH  15  19
ATOM      5  N   UNL     1       0.008   2.640  -1.187  0.00  0.00    -0.342 N 
ATOM      6  N   UNL     1       0.524   2.321   0.951  0.00  0.00    -0.232 NA
ATOM     19  C   UNL     1       0.984   2.667  -0.230  0.00  0.00    +0.109 A 
ATOM     21  C   UNL     1      -1.160   2.252  -0.583  0.00  0.00    +0.067 A 
ATOM     22  C   UNL     1      -0.812   2.059   0.751  0.00  0.00    +0.089 A 
ATOM     24  C   UNL     1      -2.451   2.058  -1.074  0.00  0.00    +0.042 A 
ATOM     25  C   UNL     1      -1.798   1.648   1.664  0.00  0.00    +0.030 A 
ATOM     28  C   UNL     1      -3.421   1.650  -0.151  0.00  0.00    +0.061 A 
ATOM     29  C   UNL     1      -3.102   1.448   1.194  0.00  0.00    +0.017 A 
ATOM     37  H   UNL     1       0.124   2.865  -2.166  0.00  0.00    +0.167 HD
BRANCH  28  33
ATOM      3  O   UNL     1      -5.316   2.038  -1.545  0.00  0.00    -0.245 OA
ATOM     33  C   UNL     1      -4.786   1.433  -0.604  0.00  0.00    +0.339 C 
BRANCH  33   2
ATOM      2  O   UNL     1      -5.416   0.473   0.140  0.00  0.00    -0.464 OA
ATOM     35  C   UNL     1      -6.770   0.168  -0.210  0.00  0.00    +0.280 C 
ENDBRANCH  33   2
ENDBRANCH  28  33
ENDBRANCH  15  19
ENDBRANCH  10  15
TORSDOF 10
