MODEL 1
REMARK VINA RESULT:      -7.7      0.000      0.000
REMARK  Name = 45783284
REMARK  4 active torsions:
REMARK  status: ('A' for Active; 'I' for Inactive)
REMARK    1  A    between atoms: N_3  and  C_12
REMARK    2  A    between atoms: C_8  and  C_13
REMARK    3  A    between atoms: C_12  and  C_14
REMARK    4  A    between atoms: C_15  and  C_20
REMARK                            x       y       z     vdW  Elec       q    Type
REMARK                         _______ _______ _______ _____ _____    ______ ____
ROOT
ATOM      1  O   UNL     1      14.132   7.165  20.883  0.00  0.00    -0.336 OA
ATOM      4  N   UNL     1      15.826   7.780  19.553  0.00  0.00    -0.190 NA
ATOM      6  N   UNL     1      15.269   7.214  21.699  0.00  0.00    -0.056 NA
ATOM     13  C   UNL     1      14.548   7.511  19.636  0.00  0.00    +0.245 A 
ATOM     15  C   UNL     1      16.226   7.584  20.843  0.00  0.00    +0.202 A 
ENDROOT
BRANCH  15  20
ATOM      2  O   UNL     1      22.520   3.731  21.828  0.00  0.00    -0.377 OA
ATOM      5  N   UNL     1      20.608   5.792  21.777  0.00  0.00    -0.311 N 
ATOM      7  N   UNL     1      20.254   8.119  22.020  0.00  0.00    -0.240 NA
ATOM     18  C   UNL     1      21.704   5.817  22.757  0.00  0.00    +0.134 C 
ATOM     19  C   UNL     1      20.864   4.988  20.576  0.00  0.00    +0.134 C 
ATOM     20  C   UNL     1      17.592   7.765  21.243  0.00  0.00    +0.027 A 
ATOM     21  C   UNL     1      19.759   6.900  21.706  0.00  0.00    +0.122 A 
ATOM     22  C   UNL     1      22.173   4.396  23.042  0.00  0.00    +0.178 C 
ATOM     23  C   UNL     1      21.379   3.610  20.979  0.00  0.00    +0.178 C 
ATOM     24  C   UNL     1      18.449   6.672  21.316  0.00  0.00    +0.055 A 
ATOM     27  C   UNL     1      18.065   9.035  21.557  0.00  0.00    +0.031 A 
ATOM     29  C   UNL     1      19.391   9.157  21.937  0.00  0.00    +0.113 A 
ENDBRANCH  15  20
BRANCH  13   8
ATOM      3  N   UNL     1      12.582   8.693  18.674  0.00  0.00    -0.287 NA
ATOM      8  C   UNL     1      13.489   7.535  18.554  0.00  0.00    +0.146 C 
ATOM      9  C   UNL     1      14.087   7.650  17.140  0.00  0.00    +0.030 C 
ATOM     10  C   UNL     1      13.411   8.865  16.520  0.00  0.00    +0.017 C 
ATOM     11  C   UNL     1      12.131   9.005  17.318  0.00  0.00    +0.085 C 
BRANCH   3  12
ATOM     12  C   UNL     1      11.467   8.458  19.582  0.00  0.00    +0.120 C 
BRANCH  12  14
ATOM     14  C   UNL     1      11.478   9.416  20.743  0.00  0.00    -0.033 A 
ATOM     16  C   UNL     1      12.157  10.630  20.639  0.00  0.00    +0.005 A 
ATOM     17  C   UNL     1      10.808   9.091  21.922  0.00  0.00    +0.005 A 
ATOM     25  C   UNL     1      12.168  11.519  21.715  0.00  0.00    +0.000 A 
ATOM     26  C   UNL     1      10.818   9.979  22.998  0.00  0.00    +0.000 A 
ATOM     28  C   UNL     1      11.498  11.192  22.894  0.00  0.00    +0.000 A 
ENDBRANCH  12  14
ENDBRANCH   3  12
ENDBRANCH  13   8
TORSDOF 4
ENDMDL
MODEL 2
REMARK VINA RESULT:      -7.2      1.393      3.300
REMARK  Name = 45783284
REMARK  4 active torsions:
REMARK  status: ('A' for Active; 'I' for Inactive)
REMARK    1  A    between atoms: N_3  and  C_12
REMARK    2  A    between atoms: C_8  and  C_13
REMARK    3  A    between atoms: C_12  and  C_14
REMARK    4  A    between atoms: C_15  and  C_20
REMARK                            x       y       z     vdW  Elec       q    Type
REMARK                         _______ _______ _______ _____ _____    ______ ____
ROOT
ATOM      1  O   UNL     1      14.769   7.157  19.983  0.00  0.00    -0.336 OA
ATOM      4  N   UNL     1      15.685   8.463  21.556  0.00  0.00    -0.190 NA
ATOM      6  N   UNL     1      16.147   6.914  19.937  0.00  0.00    -0.056 NA
ATOM     13  C   UNL     1      14.583   8.081  20.963  0.00  0.00    +0.245 A 
ATOM     15  C   UNL     1      16.618   7.721  20.893  0.00  0.00    +0.202 A 
ENDROOT
BRANCH  15  20
ATOM      2  O   UNL     1      22.616   3.416  21.845  0.00  0.00    -0.377 OA
ATOM      5  N   UNL     1      20.882   5.626  21.737  0.00  0.00    -0.311 N 
ATOM      7  N   UNL     1      20.736   7.987  21.823  0.00  0.00    -0.240 NA
ATOM     18  C   UNL     1      22.029   5.625  22.656  0.00  0.00    +0.134 C 
ATOM     19  C   UNL     1      21.003   4.721  20.588  0.00  0.00    +0.134 C 
ATOM     20  C   UNL     1      18.015   7.810  21.209  0.00  0.00    +0.027 A 
ATOM     21  C   UNL     1      20.125   6.796  21.626  0.00  0.00    +0.122 A 
ATOM     22  C   UNL     1      22.395   4.192  23.023  0.00  0.00    +0.178 C 
ATOM     23  C   UNL     1      21.424   3.336  21.065  0.00  0.00    +0.178 C 
ATOM     24  C   UNL     1      18.781   6.655  21.321  0.00  0.00    +0.055 A 
ATOM     27  C   UNL     1      18.607   9.053  21.404  0.00  0.00    +0.031 A 
ATOM     29  C   UNL     1      19.958   9.087  21.707  0.00  0.00    +0.113 A 
ENDBRANCH  15  20
BRANCH  13   8
ATOM      3  N   UNL     1      12.408   8.765  19.966  0.00  0.00    -0.287 NA
ATOM      8  C   UNL     1      13.155   8.517  21.215  0.00  0.00    +0.146 C 
ATOM      9  C   UNL     1      12.330   7.452  21.960  0.00  0.00    +0.030 C 
ATOM     10  C   UNL     1      11.110   7.208  21.082  0.00  0.00    +0.017 C 
ATOM     11  C   UNL     1      11.004   8.476  20.260  0.00  0.00    +0.085 C 
BRANCH   3  12
ATOM     12  C   UNL     1      12.593  10.112  19.443  0.00  0.00    +0.120 C 
BRANCH  12  14
ATOM     14  C   UNL     1      13.251  10.103  18.089  0.00  0.00    -0.033 A 
ATOM     16  C   UNL     1      12.918   9.119  17.158  0.00  0.00    +0.005 A 
ATOM     17  C   UNL     1      14.193  11.079  17.765  0.00  0.00    +0.005 A 
ATOM     25  C   UNL     1      13.528   9.109  15.903  0.00  0.00    +0.000 A 
ATOM     26  C   UNL     1      14.803  11.070  16.510  0.00  0.00    +0.000 A 
ATOM     28  C   UNL     1      14.471  10.085  15.580  0.00  0.00    +0.000 A 
ENDBRANCH  12  14
ENDBRANCH   3  12
ENDBRANCH  13   8
TORSDOF 4
ENDMDL
MODEL 3
REMARK VINA RESULT:      -7.2     29.147     32.741
REMARK  Name = 45783284
REMARK  4 active torsions:
REMARK  status: ('A' for Active; 'I' for Inactive)
REMARK    1  A    between atoms: N_3  and  C_12
REMARK    2  A    between atoms: C_8  and  C_13
REMARK    3  A    between atoms: C_12  and  C_14
REMARK    4  A    between atoms: C_15  and  C_20
REMARK                            x       y       z     vdW  Elec       q    Type
REMARK                         _______ _______ _______ _____ _____    ______ ____
ROOT
ATOM      1  O   UNL     1     -16.469   3.536  22.713  0.00  0.00    -0.336 OA
ATOM      4  N   UNL     1     -17.525   4.170  24.585  0.00  0.00    -0.190 NA
ATOM      6  N   UNL     1     -16.379   2.453  23.596  0.00  0.00    -0.056 NA
ATOM     13  C   UNL     1     -17.158   4.504  23.374  0.00  0.00    +0.245 A 
ATOM     15  C   UNL     1     -17.024   2.904  24.676  0.00  0.00    +0.202 A 
ENDROOT
BRANCH  15  20
ATOM      2  O   UNL     1     -13.824   1.690  31.288  0.00  0.00    -0.377 OA
ATOM      5  N   UNL     1     -15.512   1.522  29.046  0.00  0.00    -0.311 N 
ATOM      7  N   UNL     1     -17.502   0.580  28.179  0.00  0.00    -0.240 NA
ATOM     18  C   UNL     1     -15.274   0.341  29.887  0.00  0.00    +0.134 C 
ATOM     19  C   UNL     1     -15.277   2.813  29.702  0.00  0.00    +0.134 C 
ATOM     20  C   UNL     1     -17.185   2.115  25.864  0.00  0.00    +0.027 A 
ATOM     21  C   UNL     1     -16.457   1.423  28.020  0.00  0.00    +0.122 A 
ATOM     22  C   UNL     1     -13.916   0.459  30.570  0.00  0.00    +0.178 C 
ATOM     23  C   UNL     1     -13.919   2.799  30.395  0.00  0.00    +0.178 C 
ATOM     24  C   UNL     1     -16.255   2.204  26.894  0.00  0.00    +0.055 A 
ATOM     27  C   UNL     1     -18.275   1.259  25.991  0.00  0.00    +0.031 A 
ATOM     29  C   UNL     1     -18.386   0.520  27.157  0.00  0.00    +0.113 A 
ENDBRANCH  15  20
BRANCH  13   8
ATOM      3  N   UNL     1     -16.212   6.226  21.846  0.00  0.00    -0.287 NA
ATOM      8  C   UNL     1     -17.393   5.797  22.622  0.00  0.00    +0.146 C 
ATOM      9  C   UNL     1     -18.524   5.683  21.582  0.00  0.00    +0.030 C 
ATOM     10  C   UNL     1     -17.900   6.125  20.266  0.00  0.00    +0.017 C 
ATOM     11  C   UNL     1     -16.722   6.975  20.698  0.00  0.00    +0.085 C 
BRANCH   3  12
ATOM     12  C   UNL     1     -15.262   7.004  22.630  0.00  0.00    +0.120 C 
BRANCH  12  14
ATOM     14  C   UNL     1     -13.958   7.195  21.902  0.00  0.00    -0.033 A 
ATOM     16  C   UNL     1     -13.166   6.090  21.588  0.00  0.00    +0.005 A 
ATOM     17  C   UNL     1     -13.542   8.475  21.539  0.00  0.00    +0.005 A 
ATOM     25  C   UNL     1     -11.957   6.266  20.913  0.00  0.00    +0.000 A 
ATOM     26  C   UNL     1     -12.334   8.653  20.864  0.00  0.00    +0.000 A 
ATOM     28  C   UNL     1     -11.542   7.547  20.552  0.00  0.00    +0.000 A 
ENDBRANCH  12  14
ENDBRANCH   3  12
ENDBRANCH  13   8
TORSDOF 4
ENDMDL
MODEL 4
REMARK VINA RESULT:      -7.2      2.281      3.387
REMARK  Name = 45783284
REMARK  4 active torsions:
REMARK  status: ('A' for Active; 'I' for Inactive)
REMARK    1  A    between atoms: N_3  and  C_12
REMARK    2  A    between atoms: C_8  and  C_13
REMARK    3  A    between atoms: C_12  and  C_14
REMARK    4  A    between atoms: C_15  and  C_20
REMARK                            x       y       z     vdW  Elec       q    Type
REMARK                         _______ _______ _______ _____ _____    ______ ____
ROOT
ATOM      1  O   UNL     1      16.305   5.919  18.345  0.00  0.00    -0.336 OA
ATOM      4  N   UNL     1      16.947   6.907  20.250  0.00  0.00    -0.190 NA
ATOM      6  N   UNL     1      17.577   5.412  18.636  0.00  0.00    -0.056 NA
ATOM     13  C   UNL     1      16.010   6.792  19.344  0.00  0.00    +0.245 A 
ATOM     15  C   UNL     1      17.888   6.042  19.773  0.00  0.00    +0.202 A 
ENDROOT
BRANCH  15  20
ATOM      2  O   UNL     1      22.061   8.951  25.209  0.00  0.00    -0.377 OA
ATOM      5  N   UNL     1      21.150   7.364  23.075  0.00  0.00    -0.311 N 
ATOM      7  N   UNL     1      21.553   5.417  21.791  0.00  0.00    -0.240 NA
ATOM     18  C   UNL     1      22.590   7.568  23.287  0.00  0.00    +0.134 C 
ATOM     19  C   UNL     1      20.310   7.565  24.260  0.00  0.00    +0.134 C 
ATOM     20  C   UNL     1      19.132   5.831  20.457  0.00  0.00    +0.027 A 
ATOM     21  C   UNL     1      20.750   6.466  22.080  0.00  0.00    +0.122 A 
ATOM     22  C   UNL     1      22.822   8.894  24.002  0.00  0.00    +0.178 C 
ATOM     23  C   UNL     1      20.664   8.891  24.924  0.00  0.00    +0.178 C 
ATOM     24  C   UNL     1      19.542   6.715  21.449  0.00  0.00    +0.055 A 
ATOM     27  C   UNL     1      19.931   4.740  20.131  0.00  0.00    +0.031 A 
ATOM     29  C   UNL     1      21.121   4.580  20.821  0.00  0.00    +0.113 A 
ENDBRANCH  15  20
BRANCH  13   8
ATOM      3  N   UNL     1      14.634   8.756  20.010  0.00  0.00    -0.287 NA
ATOM      8  C   UNL     1      14.666   7.485  19.259  0.00  0.00    +0.146 C 
ATOM      9  C   UNL     1      14.286   7.872  17.818  0.00  0.00    +0.030 C 
ATOM     10  C   UNL     1      13.999   9.365  17.870  0.00  0.00    +0.017 C 
ATOM     11  C   UNL     1      13.667   9.614  19.327  0.00  0.00    +0.085 C 
BRANCH   3  12
ATOM     12  C   UNL     1      14.312   8.582  21.420  0.00  0.00    +0.120 C 
BRANCH  12  14
ATOM     14  C   UNL     1      12.885   8.144  21.620  0.00  0.00    -0.033 A 
ATOM     16  C   UNL     1      11.927   9.061  22.052  0.00  0.00    +0.005 A 
ATOM     17  C   UNL     1      12.520   6.821  21.371  0.00  0.00    +0.005 A 
ATOM     25  C   UNL     1      10.605   8.656  22.237  0.00  0.00    +0.000 A 
ATOM     26  C   UNL     1      11.198   6.415  21.556  0.00  0.00    +0.000 A 
ATOM     28  C   UNL     1      10.242   7.333  21.989  0.00  0.00    +0.000 A 
ENDBRANCH  12  14
ENDBRANCH   3  12
ENDBRANCH  13   8
TORSDOF 4
ENDMDL
MODEL 5
REMARK VINA RESULT:      -7.2     27.140     30.609
REMARK  Name = 45783284
REMARK  4 active torsions:
REMARK  status: ('A' for Active; 'I' for Inactive)
REMARK    1  A    between atoms: N_3  and  C_12
REMARK    2  A    between atoms: C_8  and  C_13
REMARK    3  A    between atoms: C_12  and  C_14
REMARK    4  A    between atoms: C_15  and  C_20
REMARK                            x       y       z     vdW  Elec       q    Type
REMARK                         _______ _______ _______ _____ _____    ______ ____
ROOT
ATOM      1  O   UNL     1      -5.078  -9.815  15.856  0.00  0.00    -0.336 OA
ATOM      4  N   UNL     1      -5.103 -11.749  16.988  0.00  0.00    -0.190 NA
ATOM      6  N   UNL     1      -6.264  -9.815  16.602  0.00  0.00    -0.056 NA
ATOM     13  C   UNL     1      -4.455 -10.989  16.142  0.00  0.00    +0.245 A 
ATOM     15  C   UNL     1      -6.206 -10.987  17.241  0.00  0.00    +0.202 A 
ENDROOT
BRANCH  15  20
ATOM      2  O   UNL     1     -13.438  -9.975  18.692  0.00  0.00    -0.377 OA
ATOM      5  N   UNL     1     -10.758 -10.815  18.833  0.00  0.00    -0.311 N 
ATOM      7  N   UNL     1      -9.237 -12.290  19.888  0.00  0.00    -0.240 NA
ATOM     18  C   UNL     1     -11.574 -10.722  20.053  0.00  0.00    +0.134 C 
ATOM     19  C   UNL     1     -11.516 -10.962  17.586  0.00  0.00    +0.134 C 
ATOM     20  C   UNL     1      -7.235 -11.428  18.140  0.00  0.00    +0.027 A 
ATOM     21  C   UNL     1      -9.474 -11.359  18.937  0.00  0.00    +0.122 A 
ATOM     22  C   UNL     1     -12.671  -9.683  19.861  0.00  0.00    +0.178 C 
ATOM     23  C   UNL     1     -12.618  -9.909  17.526  0.00  0.00    +0.178 C 
ATOM     24  C   UNL     1      -8.517 -10.898  18.047  0.00  0.00    +0.055 A 
ATOM     27  C   UNL     1      -6.953 -12.389  19.105  0.00  0.00    +0.031 A 
ATOM     29  C   UNL     1      -7.980 -12.782  19.947  0.00  0.00    +0.113 A 
ENDBRANCH  15  20
BRANCH  13   8
ATOM      3  N   UNL     1      -3.006 -10.492  14.181  0.00  0.00    -0.287 NA
ATOM      8  C   UNL     1      -3.129 -11.234  15.451  0.00  0.00    +0.146 C 
ATOM      9  C   UNL     1      -1.926 -10.771  16.293  0.00  0.00    +0.030 C 
ATOM     10  C   UNL     1      -1.153  -9.819  15.392  0.00  0.00    +0.017 C 
ATOM     11  C   UNL     1      -1.580 -10.224  13.996  0.00  0.00    +0.085 C 
BRANCH   3  12
ATOM     12  C   UNL     1      -3.583 -11.199  13.045  0.00  0.00    +0.120 C 
BRANCH  12  14
ATOM     14  C   UNL     1      -4.014 -10.252  11.956  0.00  0.00    -0.033 A 
ATOM     16  C   UNL     1      -3.204 -10.061  10.836  0.00  0.00    +0.005 A 
ATOM     17  C   UNL     1      -5.224  -9.567  12.066  0.00  0.00    +0.005 A 
ATOM     25  C   UNL     1      -3.603  -9.184   9.827  0.00  0.00    +0.000 A 
ATOM     26  C   UNL     1      -5.624  -8.690  11.057  0.00  0.00    +0.000 A 
ATOM     28  C   UNL     1      -4.813  -8.499   9.939  0.00  0.00    +0.000 A 
ENDBRANCH  12  14
ENDBRANCH   3  12
ENDBRANCH  13   8
TORSDOF 4
ENDMDL
MODEL 6
REMARK VINA RESULT:      -7.1      2.102      4.045
REMARK  Name = 45783284
REMARK  4 active torsions:
REMARK  status: ('A' for Active; 'I' for Inactive)
REMARK    1  A    between atoms: N_3  and  C_12
REMARK    2  A    between atoms: C_8  and  C_13
REMARK    3  A    between atoms: C_12  and  C_14
REMARK    4  A    between atoms: C_15  and  C_20
REMARK                            x       y       z     vdW  Elec       q    Type
REMARK                         _______ _______ _______ _____ _____    ______ ____
ROOT
ATOM      1  O   UNL     1      14.356   6.707  19.662  0.00  0.00    -0.336 OA
ATOM      4  N   UNL     1      15.669   7.594  21.245  0.00  0.00    -0.190 NA
ATOM      6  N   UNL     1      15.642   6.203  19.429  0.00  0.00    -0.056 NA
ATOM     13  C   UNL     1      14.461   7.517  20.749  0.00  0.00    +0.245 A 
ATOM     15  C   UNL     1      16.358   6.771  20.403  0.00  0.00    +0.202 A 
ENDROOT
BRANCH  15  20
ATOM      2  O   UNL     1      22.281   9.441  24.038  0.00  0.00    -0.377 OA
ATOM      5  N   UNL     1      20.627   7.958  22.315  0.00  0.00    -0.311 N 
ATOM      7  N   UNL     1      20.506   6.087  20.871  0.00  0.00    -0.240 NA
ATOM     18  C   UNL     1      22.044   8.170  21.986  0.00  0.00    +0.134 C 
ATOM     19  C   UNL     1      20.291   8.085  23.738  0.00  0.00    +0.134 C 
ATOM     20  C   UNL     1      17.766   6.541  20.561  0.00  0.00    +0.027 A 
ATOM     21  C   UNL     1      19.878   7.109  21.495  0.00  0.00    +0.122 A 
ATOM     22  C   UNL     1      22.536   9.458  22.633  0.00  0.00    +0.178 C 
ATOM     23  C   UNL     1      20.879   9.379  24.292  0.00  0.00    +0.178 C 
ATOM     24  C   UNL     1      18.524   7.376  21.374  0.00  0.00    +0.055 A 
ATOM     27  C   UNL     1      18.377   5.479  19.902  0.00  0.00    +0.031 A 
ATOM     29  C   UNL     1      19.737   5.297  20.088  0.00  0.00    +0.113 A 
ENDBRANCH  15  20
BRANCH  13   8
ATOM      3  N   UNL     1      12.385   8.720  20.089  0.00  0.00    -0.287 NA
ATOM      8  C   UNL     1      13.187   8.193  21.211  0.00  0.00    +0.146 C 
ATOM      9  C   UNL     1      12.239   7.232  21.953  0.00  0.00    +0.030 C 
ATOM     10  C   UNL     1      10.913   7.332  21.213  0.00  0.00    +0.017 C 
ATOM     11  C   UNL     1      10.989   8.680  20.525  0.00  0.00    +0.085 C 
BRANCH   3  12
ATOM     12  C   UNL     1      12.790  10.055  19.671  0.00  0.00    +0.120 C 
BRANCH  12  14
ATOM     14  C   UNL     1      13.266  10.074  18.243  0.00  0.00    -0.033 A 
ATOM     16  C   UNL     1      14.241  10.989  17.844  0.00  0.00    +0.005 A 
ATOM     17  C   UNL     1      12.733   9.177  17.317  0.00  0.00    +0.005 A 
ATOM     25  C   UNL     1      14.683  11.008  16.521  0.00  0.00    +0.000 A 
ATOM     26  C   UNL     1      13.174   9.195  15.994  0.00  0.00    +0.000 A 
ATOM     28  C   UNL     1      14.149  10.110  15.596  0.00  0.00    +0.000 A 
ENDBRANCH  12  14
ENDBRANCH   3  12
ENDBRANCH  13   8
TORSDOF 4
ENDMDL
MODEL 7
REMARK VINA RESULT:      -7.1     15.721     19.972
REMARK  Name = 45783284
REMARK  4 active torsions:
REMARK  status: ('A' for Active; 'I' for Inactive)
REMARK    1  A    between atoms: N_3  and  C_12
REMARK    2  A    between atoms: C_8  and  C_13
REMARK    3  A    between atoms: C_12  and  C_14
REMARK    4  A    between atoms: C_15  and  C_20
REMARK                            x       y       z     vdW  Elec       q    Type
REMARK                         _______ _______ _______ _____ _____    ______ ____
ROOT
ATOM      1  O   UNL     1      10.793   7.011   3.847  0.00  0.00    -0.336 OA
ATOM      4  N   UNL     1      10.916   4.778   3.723  0.00  0.00    -0.190 NA
ATOM      6  N   UNL     1      11.325   6.720   2.584  0.00  0.00    -0.056 NA
ATOM     13  C   UNL     1      10.581   5.812   4.451  0.00  0.00    +0.245 A 
ATOM     15  C   UNL     1      11.367   5.385   2.587  0.00  0.00    +0.202 A 
ENDROOT
BRANCH  15  20
ATOM      2  O   UNL     1       9.572   3.587  -4.411  0.00  0.00    -0.377 OA
ATOM      5  N   UNL     1      10.863   3.729  -1.918  0.00  0.00    -0.311 N 
ATOM      7  N   UNL     1      12.809   3.149  -0.702  0.00  0.00    -0.240 NA
ATOM     18  C   UNL     1      10.971   2.518  -2.743  0.00  0.00    +0.134 C 
ATOM     19  C   UNL     1      10.530   4.956  -2.651  0.00  0.00    +0.134 C 
ATOM     20  C   UNL     1      11.855   4.625   1.471  0.00  0.00    +0.027 A 
ATOM     21  C   UNL     1      11.626   3.802  -0.748  0.00  0.00    +0.122 A 
ATOM     22  C   UNL     1       9.747   2.397  -3.643  0.00  0.00    +0.178 C 
ATOM     23  C   UNL     1       9.329   4.704  -3.557  0.00  0.00    +0.178 C 
ATOM     24  C   UNL     1      11.109   4.546   0.301  0.00  0.00    +0.055 A 
ATOM     27  C   UNL     1      13.078   3.968   1.557  0.00  0.00    +0.031 A 
ATOM     29  C   UNL     1      13.505   3.250   0.453  0.00  0.00    +0.113 A 
ENDBRANCH  15  20
BRANCH  13   8
ATOM      3  N   UNL     1      10.571   6.943   6.668  0.00  0.00    -0.287 NA
ATOM      8  C   UNL     1      10.000   5.855   5.849  0.00  0.00    +0.146 C 
ATOM      9  C   UNL     1       8.482   6.117   5.854  0.00  0.00    +0.030 C 
ATOM     10  C   UNL     1       8.292   7.333   6.750  0.00  0.00    +0.017 C 
ATOM     11  C   UNL     1       9.531   7.332   7.620  0.00  0.00    +0.085 C 
BRANCH   3  12
ATOM     12  C   UNL     1      11.812   6.569   7.334  0.00  0.00    +0.120 C 
BRANCH  12  14
ATOM     14  C   UNL     1      12.948   7.482   6.955  0.00  0.00    -0.033 A 
ATOM     16  C   UNL     1      12.764   8.865   6.966  0.00  0.00    +0.005 A 
ATOM     17  C   UNL     1      14.184   6.947   6.596  0.00  0.00    +0.005 A 
ATOM     25  C   UNL     1      13.816   9.712   6.615  0.00  0.00    +0.000 A 
ATOM     26  C   UNL     1      15.237   7.793   6.245  0.00  0.00    +0.000 A 
ATOM     28  C   UNL     1      15.052   9.175   6.255  0.00  0.00    +0.000 A 
ENDBRANCH  12  14
ENDBRANCH   3  12
ENDBRANCH  13   8
TORSDOF 4
ENDMDL
MODEL 8
REMARK VINA RESULT:      -7.0      2.363     10.106
REMARK  Name = 45783284
REMARK  4 active torsions:
REMARK  status: ('A' for Active; 'I' for Inactive)
REMARK    1  A    between atoms: N_3  and  C_12
REMARK    2  A    between atoms: C_8  and  C_13
REMARK    3  A    between atoms: C_12  and  C_14
REMARK    4  A    between atoms: C_15  and  C_20
REMARK                            x       y       z     vdW  Elec       q    Type
REMARK                         _______ _______ _______ _____ _____    ______ ____
ROOT
ATOM      1  O   UNL     1      20.486   8.209  23.052  0.00  0.00    -0.336 OA
ATOM      4  N   UNL     1      19.734   6.165  22.526  0.00  0.00    -0.190 NA
ATOM      6  N   UNL     1      19.423   8.402  22.162  0.00  0.00    -0.056 NA
ATOM     13  C   UNL     1      20.603   6.863  23.212  0.00  0.00    +0.245 A 
ATOM     15  C   UNL     1      19.033   7.152  21.897  0.00  0.00    +0.202 A 
ENDROOT
BRANCH  15  20
ATOM      2  O   UNL     1      11.747   8.422  21.043  0.00  0.00    -0.377 OA
ATOM      5  N   UNL     1      14.366   7.456  20.708  0.00  0.00    -0.311 N 
ATOM      7  N   UNL     1      15.833   6.275  19.274  0.00  0.00    -0.240 NA
ATOM     18  C   UNL     1      13.217   6.663  20.248  0.00  0.00    +0.134 C 
ATOM     19  C   UNL     1      14.118   8.897  20.838  0.00  0.00    +0.134 C 
ATOM     20  C   UNL     1      17.947   6.854  21.008  0.00  0.00    +0.027 A 
ATOM     21  C   UNL     1      15.651   6.994  20.404  0.00  0.00    +0.122 A 
ATOM     22  C   UNL     1      11.985   7.015  21.074  0.00  0.00    +0.178 C 
ATOM     23  C   UNL     1      12.838   9.129  21.633  0.00  0.00    +0.178 C 
ATOM     24  C   UNL     1      16.664   7.308  21.295  0.00  0.00    +0.055 A 
ATOM     27  C   UNL     1      18.174   6.111  19.855  0.00  0.00    +0.031 A 
ATOM     29  C   UNL     1      17.093   5.851  19.028  0.00  0.00    +0.113 A 
ENDBRANCH  15  20
BRANCH  13   8
ATOM      3  N   UNL     1      22.788   5.695  23.431  0.00  0.00    -0.287 NA
ATOM      8  C   UNL     1      21.697   6.388  24.144  0.00  0.00    +0.146 C 
ATOM      9  C   UNL     1      22.389   7.544  24.889  0.00  0.00    +0.030 C 
ATOM     10  C   UNL     1      23.871   7.384  24.584  0.00  0.00    +0.017 C 
ATOM     11  C   UNL     1      24.003   5.920  24.215  0.00  0.00    +0.085 C 
BRANCH   3  12
ATOM     12  C   UNL     1      22.528   4.277  23.220  0.00  0.00    +0.120 C 
BRANCH  12  14
ATOM     14  C   UNL     1      23.301   3.733  22.048  0.00  0.00    -0.033 A 
ATOM     16  C   UNL     1      23.643   2.381  22.004  0.00  0.00    +0.005 A 
ATOM     17  C   UNL     1      23.676   4.580  21.006  0.00  0.00    +0.005 A 
ATOM     25  C   UNL     1      24.360   1.877  20.919  0.00  0.00    +0.000 A 
ATOM     26  C   UNL     1      24.393   4.077  19.920  0.00  0.00    +0.000 A 
ATOM     28  C   UNL     1      24.735   2.725  19.878  0.00  0.00    +0.000 A 
ENDBRANCH  12  14
ENDBRANCH   3  12
ENDBRANCH  13   8
TORSDOF 4
ENDMDL
MODEL 9
REMARK VINA RESULT:      -7.0     26.649     30.231
REMARK  Name = 45783284
REMARK  4 active torsions:
REMARK  status: ('A' for Active; 'I' for Inactive)
REMARK    1  A    between atoms: N_3  and  C_12
REMARK    2  A    between atoms: C_8  and  C_13
REMARK    3  A    between atoms: C_12  and  C_14
REMARK    4  A    between atoms: C_15  and  C_20
REMARK                            x       y       z     vdW  Elec       q    Type
REMARK                         _______ _______ _______ _____ _____    ______ ____
ROOT
ATOM      1  O   UNL     1      -4.882 -12.844  15.112  0.00  0.00    -0.336 OA
ATOM      4  N   UNL     1      -4.978 -10.837  16.103  0.00  0.00    -0.190 NA
ATOM      6  N   UNL     1      -6.159 -12.750  15.678  0.00  0.00    -0.056 NA
ATOM     13  C   UNL     1      -4.252 -11.676  15.409  0.00  0.00    +0.245 A 
ATOM     15  C   UNL     1      -6.139 -11.540  16.244  0.00  0.00    +0.202 A 
ENDROOT
BRANCH  15  20
ATOM      2  O   UNL     1     -12.007  -7.063  15.271  0.00  0.00    -0.377 OA
ATOM      5  N   UNL     1     -10.063  -8.737  16.421  0.00  0.00    -0.311 N 
ATOM      7  N   UNL     1      -9.449  -9.961  18.352  0.00  0.00    -0.240 NA
ATOM     18  C   UNL     1     -10.745  -7.721  17.236  0.00  0.00    +0.134 C 
ATOM     19  C   UNL     1     -10.787  -9.160  15.217  0.00  0.00    +0.134 C 
ATOM     20  C   UNL     1      -7.262 -11.003  16.959  0.00  0.00    +0.027 A 
ATOM     21  C   UNL     1      -9.200  -9.629  17.065  0.00  0.00    +0.122 A 
ATOM     22  C   UNL     1     -11.206  -6.572  16.347  0.00  0.00    +0.178 C 
ATOM     23  C   UNL     1     -11.246  -7.933  14.435  0.00  0.00    +0.178 C 
ATOM     24  C   UNL     1      -8.130 -10.117  16.332  0.00  0.00    +0.055 A 
ATOM     27  C   UNL     1      -7.486 -11.369  18.282  0.00  0.00    +0.031 A 
ATOM     29  C   UNL     1      -8.584 -10.825  18.928  0.00  0.00    +0.113 A 
ENDBRANCH  15  20
BRANCH  13   8
ATOM      3  N   UNL     1      -2.728 -10.555  13.794  0.00  0.00    -0.287 NA
ATOM      8  C   UNL     1      -2.834 -11.527  14.900  0.00  0.00    +0.146 C 
ATOM      9  C   UNL     1      -1.868 -11.000  15.977  0.00  0.00    +0.030 C 
ATOM     10  C   UNL     1      -1.221  -9.767  15.363  0.00  0.00    +0.017 C 
ATOM     11  C   UNL     1      -1.383  -9.985  13.873  0.00  0.00    +0.085 C 
BRANCH   3  12
ATOM     12  C   UNL     1      -2.999 -11.141  12.487  0.00  0.00    +0.120 C 
BRANCH  12  14
ATOM     14  C   UNL     1      -3.753 -10.192  11.594  0.00  0.00    -0.033 A 
ATOM     16  C   UNL     1      -3.202  -9.794  10.376  0.00  0.00    +0.005 A 
ATOM     17  C   UNL     1      -5.003  -9.712  11.983  0.00  0.00    +0.005 A 
ATOM     25  C   UNL     1      -3.900  -8.915   9.547  0.00  0.00    +0.000 A 
ATOM     26  C   UNL     1      -5.702  -8.832  11.155  0.00  0.00    +0.000 A 
ATOM     28  C   UNL     1      -5.149  -8.434   9.938  0.00  0.00    +0.000 A 
ENDBRANCH  12  14
ENDBRANCH   3  12
ENDBRANCH  13   8
TORSDOF 4
ENDMDL
MODEL 10
REMARK VINA RESULT:      -6.9     27.451     29.743
REMARK  Name = 45783284
REMARK  4 active torsions:
REMARK  status: ('A' for Active; 'I' for Inactive)
REMARK    1  A    between atoms: N_3  and  C_12
REMARK    2  A    between atoms: C_8  and  C_13
REMARK    3  A    between atoms: C_12  and  C_14
REMARK    4  A    between atoms: C_15  and  C_20
REMARK                            x       y       z     vdW  Elec       q    Type
REMARK                         _______ _______ _______ _____ _____    ______ ____
ROOT
ATOM      1  O   UNL     1      -4.496 -12.316  16.648  0.00  0.00    -0.336 OA
ATOM      4  N   UNL     1      -4.714 -10.285  15.728  0.00  0.00    -0.190 NA
ATOM      6  N   UNL     1      -3.864 -12.384  15.400  0.00  0.00    -0.056 NA
ATOM     13  C   UNL     1      -4.969 -11.046  16.762  0.00  0.00    +0.245 A 
ATOM     15  C   UNL     1      -4.035 -11.149  14.919  0.00  0.00    +0.202 A 
ENDROOT
BRANCH  15  20
ATOM      2  O   UNL     1      -6.448  -8.821   8.272  0.00  0.00    -0.377 OA
ATOM      5  N   UNL     1      -4.810  -9.689  10.385  0.00  0.00    -0.311 N 
ATOM      7  N   UNL     1      -2.579  -9.958  11.130  0.00  0.00    -0.240 NA
ATOM     18  C   UNL     1      -4.413  -9.929   8.990  0.00  0.00    +0.134 C 
ATOM     19  C   UNL     1      -5.753  -8.583  10.585  0.00  0.00    +0.134 C 
ATOM     20  C   UNL     1      -3.542 -10.746  13.633  0.00  0.00    +0.027 A 
ATOM     21  C   UNL     1      -3.904 -10.024  11.396  0.00  0.00    +0.122 A 
ATOM     22  C   UNL     1      -5.653  -9.995   8.106  0.00  0.00    +0.178 C 
ATOM     23  C   UNL     1      -6.922  -8.722   9.615  0.00  0.00    +0.178 C 
ATOM     24  C   UNL     1      -4.431 -10.408  12.619  0.00  0.00    +0.055 A 
ATOM     27  C   UNL     1      -2.172 -10.690  13.398  0.00  0.00    +0.031 A 
ATOM     29  C   UNL     1      -1.747 -10.294  12.141  0.00  0.00    +0.113 A 
ENDBRANCH  15  20
BRANCH  13   8
ATOM      3  N   UNL     1      -7.159 -10.569  17.842  0.00  0.00    -0.287 NA
ATOM      8  C   UNL     1      -5.703 -10.712  18.043  0.00  0.00    +0.146 C 
ATOM      9  C   UNL     1      -5.562 -11.810  19.113  0.00  0.00    +0.030 C 
ATOM     10  C   UNL     1      -6.988 -12.179  19.496  0.00  0.00    +0.017 C 
ATOM     11  C   UNL     1      -7.789 -10.954  19.105  0.00  0.00    +0.085 C 
BRANCH   3  12
ATOM     12  C   UNL     1      -7.552  -9.231  17.419  0.00  0.00    +0.120 C 
BRANCH  12  14
ATOM     14  C   UNL     1      -8.499  -9.269  16.249  0.00  0.00    -0.033 A 
ATOM     16  C   UNL     1      -8.187 -10.032  15.123  0.00  0.00    +0.005 A 
ATOM     17  C   UNL     1      -9.689  -8.543  16.291  0.00  0.00    +0.005 A 
ATOM     25  C   UNL     1      -9.065 -10.067  14.039  0.00  0.00    +0.000 A 
ATOM     26  C   UNL     1     -10.567  -8.578  15.207  0.00  0.00    +0.000 A 
ATOM     28  C   UNL     1     -10.254  -9.340  14.082  0.00  0.00    +0.000 A 
ENDBRANCH  12  14
ENDBRANCH   3  12
ENDBRANCH  13   8
TORSDOF 4
ENDMDL
