REMARK  Name = 51136774
REMARK  5 active torsions:
REMARK  status: ('A' for Active; 'I' for Inactive)
REMARK    1  A    between atoms: O_4  and  C_18
REMARK    2  A    between atoms: C_9  and  C_14
REMARK    3  A    between atoms: C_10  and  C_15
REMARK    4  A    between atoms: C_14  and  C_16
REMARK    5  A    between atoms: C_15  and  C_18
REMARK                            x       y       z     vdW  Elec       q    Type
REMARK                         _______ _______ _______ _____ _____    ______ ____
ROOT
ATOM      2  O   UNL     1      -0.227   2.408   1.734  0.00  0.00    -0.252 OA
ATOM      3  O   UNL     1      -3.810   3.439  -1.002  0.00  0.00    -0.377 OA
ATOM      6  N   UNL     1       0.867   1.881  -0.224  0.00  0.00    -0.285 N 
ATOM      7  N   UNL     1      -1.516   2.052  -0.140  0.00  0.00    -0.281 N 
ATOM      9  C   UNL     1       1.990  -0.302  -0.626  0.00  0.00    +0.016 C 
ATOM     10  C   UNL     1       3.334   0.360  -0.227  0.00  0.00    +0.006 C 
ATOM     11  C   UNL     1       3.117   1.547   0.727  0.00  0.00    +0.023 C 
ATOM     12  C   UNL     1       1.012   0.762  -1.167  0.00  0.00    +0.113 C 
ATOM     13  C   UNL     1       2.121   2.540   0.137  0.00  0.00    +0.109 C 
ATOM     17  C   UNL     1      -0.289   2.130   0.530  0.00  0.00    +0.305 C 
ATOM     20  C   UNL     1      -2.764   1.982   0.619  0.00  0.00    +0.137 C 
ATOM     21  C   UNL     1      -1.706   2.354  -1.564  0.00  0.00    +0.137 C 
ATOM     25  C   UNL     1      -3.579   3.248   0.398  0.00  0.00    +0.179 C 
ATOM     26  C   UNL     1      -2.579   3.598  -1.712  0.00  0.00    +0.179 C 
ENDROOT
BRANCH   9  14
ATOM     14  C   UNL     1       1.334  -1.104   0.506  0.00  0.00    +0.061 C 
BRANCH  14  16
ATOM      1  F   UNL     1      -5.095  -1.830   1.220  0.00  0.00    -0.205 F 
ATOM      8  N   UNL     1       0.815  -2.981  -0.899  0.00  0.00    -0.287 NA
ATOM     16  C   UNL     1       0.358  -2.100  -0.072  0.00  0.00    +0.044 C 
ATOM     19  C   UNL     1      -1.070  -2.016   0.328  0.00  0.00    -0.001 A 
ATOM     22  C   UNL     1      -1.995  -2.673  -0.493  0.00  0.00    -0.034 A 
ATOM     23  C   UNL     1      -0.122  -3.986  -1.414  0.00  0.00    +0.146 C 
ATOM     24  C   UNL     1      -1.494  -3.394  -1.709  0.00  0.00    +0.059 C 
ATOM     27  C   UNL     1      -1.499  -1.310   1.454  0.00  0.00    +0.013 A 
ATOM     28  C   UNL     1      -3.358  -2.599  -0.194  0.00  0.00    +0.042 A 
ATOM     29  C   UNL     1      -2.861  -1.255   1.753  0.00  0.00    +0.039 A 
ATOM     30  C   UNL     1      -3.788  -1.894   0.930  0.00  0.00    +0.124 A 
ENDBRANCH  14  16
ENDBRANCH   9  14
BRANCH  10  15
ATOM     15  C   UNL     1       4.339  -0.628   0.364  0.00  0.00    +0.124 C 
BRANCH  15  18
ATOM      5  O   UNL     1       6.105   0.931  -0.264  0.00  0.00    -0.251 OA
ATOM     18  C   UNL     1       5.751  -0.127   0.236  0.00  0.00    +0.305 C 
BRANCH  18   4
ATOM      4  O   UNL     1       6.609  -1.035   0.767  0.00  0.00    -0.481 OA
ATOM     31  H   UNL     1       7.542  -0.739   0.700  0.00  0.00    +0.295 HD
ENDBRANCH  18   4
ENDBRANCH  15  18
ENDBRANCH  10  15
TORSDOF 5
