REMARK  Name = 75536906
REMARK  3 active torsions:
REMARK  status: ('A' for Active; 'I' for Inactive)
REMARK    1  A    between atoms: O_3  and  C_14
REMARK    2  A    between atoms: O_3  and  C_17
REMARK    3  A    between atoms: C_7  and  C_11
REMARK                            x       y       z     vdW  Elec       q    Type
REMARK                         _______ _______ _______ _____ _____    ______ ____
ROOT
ATOM      1  O   UNL     1       0.626   3.211  -0.985  0.00  0.00    -0.375 OA
ATOM      2  O   UNL     1       1.084  -1.545   1.044  0.00  0.00    -0.275 OA
ATOM      4  N   UNL     1       1.365   0.729   0.628  0.00  0.00    -0.295 N 
ATOM     11  C   UNL     1       1.802  -0.613   0.655  0.00  0.00    +0.219 C 
ATOM     12  C   UNL     1      -0.000   1.044   1.055  0.00  0.00    +0.154 C 
ATOM     13  C   UNL     1       2.239   1.810   0.162  0.00  0.00    +0.136 C 
ATOM     14  C   UNL     1      -0.887   1.472  -0.114  0.00  0.00    +0.218 C 
ATOM     15  C   UNL     1       1.612   3.193   0.042  0.00  0.00    +0.179 C 
ATOM     16  C   UNL     1      -0.688   2.930  -0.517  0.00  0.00    +0.206 C 
ENDROOT
BRANCH  11   7
ATOM      7  C   UNL     1       3.233  -0.879   0.178  0.00  0.00    +0.075 C 
ATOM      8  C   UNL     1       3.917  -2.195   0.636  0.00  0.00    +0.013 C 
ATOM      9  C   UNL     1       3.420  -1.394  -1.272  0.00  0.00    +0.013 C 
ATOM     10  C   UNL     1       4.588  -2.252  -0.750  0.00  0.00    +0.001 C 
ENDBRANCH  11   7
BRANCH  14   3
ATOM      3  O   UNL     1      -2.247   1.293   0.281  0.00  0.00    -0.468 OA
BRANCH   3  17
ATOM      5  N   UNL     1      -2.013  -0.873  -0.531  0.00  0.00    -0.219 NA
ATOM      6  N   UNL     1      -4.675  -1.395   0.183  0.00  0.00    -0.256 NA
ATOM     17  C   UNL     1      -2.794   0.062   0.047  0.00  0.00    +0.234 A 
ATOM     18  C   UNL     1      -4.101  -0.195   0.398  0.00  0.00    +0.177 A 
ATOM     19  C   UNL     1      -2.587  -2.073  -0.745  0.00  0.00    +0.134 A 
ATOM     20  C   UNL     1      -3.894  -2.330  -0.395  0.00  0.00    +0.130 A 
ENDBRANCH   3  17
ENDBRANCH  14   3
TORSDOF 3
