MODEL 1
REMARK VINA RESULT:      -6.3      0.000      0.000
REMARK  Name = 11882057
REMARK  10 active torsions:
REMARK  status: ('A' for Active; 'I' for Inactive)
REMARK    1  A    between atoms: N_7  and  C_13
REMARK    2  A    between atoms: N_8  and  C_19
REMARK    3  A    between atoms: N_9  and  C_23
REMARK    4  A    between atoms: C_14  and  C_17
REMARK    5  A    between atoms: C_18  and  C_21
REMARK    6  A    between atoms: C_19  and  C_22
REMARK    7  A    between atoms: C_19  and  C_24
REMARK    8  A    between atoms: C_22  and  C_25
REMARK    9  A    between atoms: C_23  and  C_27
REMARK   10  A    between atoms: C_23  and  C_28
REMARK                            x       y       z     vdW  Elec       q    Type
REMARK                         _______ _______ _______ _____ _____    ______ ____
ROOT
ATOM      3  O   UNL     1      -4.386  -8.236  10.235  0.00  0.00    -0.268 OA
ATOM      6  N   UNL     1      -5.090 -10.334   9.508  0.00  0.00    -0.283 N 
ATOM     13  C   UNL     1      -5.674 -11.218   7.387  0.00  0.00    +0.105 C 
ATOM     14  C   UNL     1      -5.527  -9.919   8.179  0.00  0.00    +0.182 C 
ATOM     15  C   UNL     1      -5.995 -12.257   8.464  0.00  0.00    +0.043 C 
ATOM     16  C   UNL     1      -5.203 -11.783   9.675  0.00  0.00    +0.111 C 
ATOM     18  C   UNL     1      -4.474  -9.452  10.387  0.00  0.00    +0.267 C 
ENDROOT
BRANCH  13   7
ATOM      4  O   UNL     1      -5.368 -13.033   5.164  0.00  0.00    -0.253 OA
ATOM      7  N   UNL     1      -4.451 -11.549   6.697  0.00  0.00    -0.294 N 
ATOM      9  N   UNL     1      -3.093 -12.577   5.151  0.00  0.00    -0.297 N 
ATOM     20  C   UNL     1      -4.395 -12.441   5.628  0.00  0.00    +0.300 C 
ATOM     34  H   UNL     1      -3.597 -11.064   6.960  0.00  0.00    +0.151 HD
ATOM     36  H   UNL     1      -2.368 -11.989   5.551  0.00  0.00    +0.150 HD
BRANCH   9  23
ATOM     23  C   UNL     1      -2.752 -13.441   4.046  0.00  0.00    +0.068 C 
ATOM     27  C   UNL     1      -1.415 -14.125   4.301  0.00  0.00    +0.027 C 
ATOM     28  C   UNL     1      -2.729 -12.656   2.740  0.00  0.00    +0.027 C 
ENDBRANCH   9  23
ENDBRANCH  13   7
BRANCH  18  21
ATOM     10  N   UNL     1      -4.682 -10.173  12.663  0.00  0.00    -0.247 NA
ATOM     12  N   UNL     1      -1.978 -10.917  12.739  0.00  0.00    -0.259 NA
ATOM     21  C   UNL     1      -3.871 -10.025  11.597  0.00  0.00    +0.144 A 
ATOM     26  C   UNL     1      -2.543 -10.390  11.634  0.00  0.00    +0.143 A 
ATOM     30  C   UNL     1      -4.117 -10.700  13.768  0.00  0.00    +0.131 A 
ATOM     31  C   UNL     1      -2.789 -11.065  13.806  0.00  0.00    +0.130 A 
ENDBRANCH  18  21
BRANCH  14  17
ATOM      2  O   UNL     1      -7.584  -9.488   9.311  0.00  0.00    -0.274 OA
ATOM      8  N   UNL     1      -7.111  -8.324   7.352  0.00  0.00    -0.302 N 
ATOM     17  C   UNL     1      -6.847  -9.230   8.364  0.00  0.00    +0.236 C 
ATOM     35  H   UNL     1      -6.460  -8.253   6.575  0.00  0.00    +0.150 HD
BRANCH   8  19
ATOM     19  C   UNL     1      -8.327  -7.545   7.285  0.00  0.00    +0.163 C 
BRANCH  19  24
ATOM      5  O   UNL     1      -9.812  -7.122   5.407  0.00  0.00    -0.274 OA
ATOM     11  N   UNL     1      -7.604  -7.591   4.978  0.00  0.00    -0.328 N 
ATOM     24  C   UNL     1      -8.688  -7.408   5.812  0.00  0.00    +0.231 C 
ATOM     37  H   UNL     1      -7.704  -7.511   3.972  0.00  0.00    +0.145 HD
ATOM     38  H   UNL     1      -6.680  -7.824   5.326  0.00  0.00    +0.145 HD
ENDBRANCH  19  24
BRANCH  19  22
ATOM     22  C   UNL     1      -8.168  -6.162   7.927  0.00  0.00    +0.074 C 
BRANCH  22  25
ATOM      1  S   UNL     1     -10.610  -6.808   9.103  0.00  0.00    -0.102 S 
ATOM     25  C   UNL     1      -9.450  -5.673   8.558  0.00  0.00    -0.008 A 
ATOM     29  C   UNL     1      -9.856  -4.374   8.777  0.00  0.00    +0.011 A 
ATOM     32  C   UNL     1     -11.136  -4.311   9.399  0.00  0.00    +0.008 A 
ATOM     33  C   UNL     1     -11.660  -5.564   9.633  0.00  0.00    +0.045 A 
ENDBRANCH  22  25
ENDBRANCH  19  22
ENDBRANCH   8  19
ENDBRANCH  14  17
TORSDOF 8
ENDMDL
MODEL 2
REMARK VINA RESULT:      -6.2     24.624     26.492
REMARK  Name = 11882057
REMARK  10 active torsions:
REMARK  status: ('A' for Active; 'I' for Inactive)
REMARK    1  A    between atoms: N_7  and  C_13
REMARK    2  A    between atoms: N_8  and  C_19
REMARK    3  A    between atoms: N_9  and  C_23
REMARK    4  A    between atoms: C_14  and  C_17
REMARK    5  A    between atoms: C_18  and  C_21
REMARK    6  A    between atoms: C_19  and  C_22
REMARK    7  A    between atoms: C_19  and  C_24
REMARK    8  A    between atoms: C_22  and  C_25
REMARK    9  A    between atoms: C_23  and  C_27
REMARK   10  A    between atoms: C_23  and  C_28
REMARK                            x       y       z     vdW  Elec       q    Type
REMARK                         _______ _______ _______ _____ _____    ______ ____
ROOT
ATOM      3  O   UNL     1      13.227   6.703   7.201  0.00  0.00    -0.268 OA
ATOM      6  N   UNL     1      12.578   8.892   6.738  0.00  0.00    -0.283 N 
ATOM     13  C   UNL     1      11.468  10.568   7.993  0.00  0.00    +0.105 C 
ATOM     14  C   UNL     1      11.704   9.062   7.893  0.00  0.00    +0.182 C 
ATOM     15  C   UNL     1      11.621  11.049   6.548  0.00  0.00    +0.043 C 
ATOM     16  C   UNL     1      12.691  10.132   5.971  0.00  0.00    +0.111 C 
ATOM     18  C   UNL     1      13.332   7.740   6.550  0.00  0.00    +0.267 C 
ENDROOT
BRANCH  13   7
ATOM      4  O   UNL     1      11.013  11.698  10.610  0.00  0.00    -0.253 OA
ATOM      7  N   UNL     1      12.445  11.194   8.853  0.00  0.00    -0.294 N 
ATOM      9  N   UNL     1      13.262  12.258  10.720  0.00  0.00    -0.297 N 
ATOM     20  C   UNL     1      12.136  11.715  10.107  0.00  0.00    +0.300 C 
ATOM     34  H   UNL     1      13.417  11.201   8.558  0.00  0.00    +0.151 HD
ATOM     36  H   UNL     1      14.160  12.158  10.256  0.00  0.00    +0.150 HD
BRANCH   9  23
ATOM     23  C   UNL     1      13.223  12.866  12.029  0.00  0.00    +0.068 C 
ATOM     27  C   UNL     1      13.080  14.378  11.907  0.00  0.00    +0.027 C 
ATOM     28  C   UNL     1      14.465  12.493  12.828  0.00  0.00    +0.027 C 
ENDBRANCH   9  23
ENDBRANCH  13   7
BRANCH  18  21
ATOM     10  N   UNL     1      15.580   8.171   5.841  0.00  0.00    -0.247 NA
ATOM     12  N   UNL     1      14.960   7.420   3.210  0.00  0.00    -0.259 NA
ATOM     21  C   UNL     1      14.344   7.768   5.487  0.00  0.00    +0.144 A 
ATOM     26  C   UNL     1      14.039   7.399   4.195  0.00  0.00    +0.143 A 
ATOM     30  C   UNL     1      16.501   8.191   4.856  0.00  0.00    +0.131 A 
ATOM     31  C   UNL     1      16.197   7.823   3.564  0.00  0.00    +0.130 A 
ENDBRANCH  18  21
BRANCH  14  17
ATOM      2  O   UNL     1       9.407   8.908   7.261  0.00  0.00    -0.274 OA
ATOM      8  N   UNL     1      10.584   6.952   7.712  0.00  0.00    -0.302 N 
ATOM     17  C   UNL     1      10.438   8.322   7.578  0.00  0.00    +0.236 C 
ATOM     35  H   UNL     1      11.466   6.585   8.060  0.00  0.00    +0.150 HD
BRANCH   8  19
ATOM     19  C   UNL     1       9.506   6.016   7.487  0.00  0.00    +0.163 C 
BRANCH  19  24
ATOM      5  O   UNL     1       8.923   5.147   9.682  0.00  0.00    -0.274 OA
ATOM     11  N   UNL     1      10.309   3.900   8.340  0.00  0.00    -0.328 N 
ATOM     24  C   UNL     1       9.543   5.010   8.630  0.00  0.00    +0.231 C 
ATOM     37  H   UNL     1      10.405   3.146   9.010  0.00  0.00    +0.145 HD
ATOM     38  H   UNL     1      10.813   3.798   7.465  0.00  0.00    +0.145 HD
ENDBRANCH  19  24
BRANCH  19  22
ATOM     22  C   UNL     1       9.632   5.297   6.139  0.00  0.00    +0.074 C 
BRANCH  22  25
ATOM      1  S   UNL     1      10.382   6.280   3.642  0.00  0.00    -0.102 S 
ATOM     25  C   UNL     1       9.309   6.202   4.974  0.00  0.00    -0.008 A 
ATOM     29  C   UNL     1       8.217   7.027   4.806  0.00  0.00    +0.011 A 
ATOM     32  C   UNL     1       8.264   7.730   3.568  0.00  0.00    +0.008 A 
ATOM     33  C   UNL     1       9.389   7.417   2.837  0.00  0.00    +0.045 A 
ENDBRANCH  22  25
ENDBRANCH  19  22
ENDBRANCH   8  19
ENDBRANCH  14  17
TORSDOF 8
ENDMDL
MODEL 3
REMARK VINA RESULT:      -6.1     10.489     15.186
REMARK  Name = 11882057
REMARK  10 active torsions:
REMARK  status: ('A' for Active; 'I' for Inactive)
REMARK    1  A    between atoms: N_7  and  C_13
REMARK    2  A    between atoms: N_8  and  C_19
REMARK    3  A    between atoms: N_9  and  C_23
REMARK    4  A    between atoms: C_14  and  C_17
REMARK    5  A    between atoms: C_18  and  C_21
REMARK    6  A    between atoms: C_19  and  C_22
REMARK    7  A    between atoms: C_19  and  C_24
REMARK    8  A    between atoms: C_22  and  C_25
REMARK    9  A    between atoms: C_23  and  C_27
REMARK   10  A    between atoms: C_23  and  C_28
REMARK                            x       y       z     vdW  Elec       q    Type
REMARK                         _______ _______ _______ _____ _____    ______ ____
ROOT
ATOM      3  O   UNL     1       1.654 -12.127  -3.129  0.00  0.00    -0.268 OA
ATOM      6  N   UNL     1       0.029 -13.707  -3.664  0.00  0.00    -0.283 N 
ATOM     13  C   UNL     1      -2.035 -14.329  -2.675  0.00  0.00    +0.105 C 
ATOM     14  C   UNL     1      -0.696 -13.645  -2.399  0.00  0.00    +0.182 C 
ATOM     15  C   UNL     1      -1.706 -15.314  -3.800  0.00  0.00    +0.043 C 
ATOM     16  C   UNL     1      -0.642 -14.592  -4.616  0.00  0.00    +0.111 C 
ATOM     18  C   UNL     1       1.099 -12.865  -3.939  0.00  0.00    +0.267 C 
ENDROOT
BRANCH  13   7
ATOM      4  O   UNL     1      -4.882 -14.469  -2.224  0.00  0.00    -0.253 OA
ATOM      7  N   UNL     1      -3.031 -13.374  -3.099  0.00  0.00    -0.294 N 
ATOM      9  N   UNL     1      -5.124 -12.459  -3.357  0.00  0.00    -0.297 N 
ATOM     20  C   UNL     1      -4.391 -13.522  -2.837  0.00  0.00    +0.300 C 
ATOM     34  H   UNL     1      -2.722 -12.521  -3.557  0.00  0.00    +0.151 HD
ATOM     36  H   UNL     1      -4.620 -11.686  -3.782  0.00  0.00    +0.150 HD
BRANCH   9  23
ATOM     23  C   UNL     1      -6.559 -12.361  -3.227  0.00  0.00    +0.068 C 
ATOM     27  C   UNL     1      -7.246 -13.076  -4.385  0.00  0.00    +0.027 C 
ATOM     28  C   UNL     1      -6.990 -10.902  -3.147  0.00  0.00    +0.027 C 
ENDBRANCH   9  23
ENDBRANCH  13   7
BRANCH  18  21
ATOM     10  N   UNL     1       0.979 -12.030  -6.182  0.00  0.00    -0.247 NA
ATOM     12  N   UNL     1       3.138 -13.642  -6.963  0.00  0.00    -0.259 NA
ATOM     21  C   UNL     1       1.604 -12.853  -5.317  0.00  0.00    +0.144 A 
ATOM     26  C   UNL     1       2.665 -13.645  -5.701  0.00  0.00    +0.143 A 
ATOM     30  C   UNL     1       1.452 -12.027  -7.444  0.00  0.00    +0.131 A 
ATOM     31  C   UNL     1       2.512 -12.819  -7.828  0.00  0.00    +0.130 A 
ENDBRANCH  18  21
BRANCH  14  17
ATOM      2  O   UNL     1       0.759 -15.413  -1.724  0.00  0.00    -0.274 OA
ATOM      8  N   UNL     1       0.046 -13.872  -0.132  0.00  0.00    -0.302 N 
ATOM     17  C   UNL     1       0.124 -14.413  -1.404  0.00  0.00    +0.236 C 
ATOM     35  H   UNL     1      -0.579 -13.086   0.029  0.00  0.00    +0.150 HD
BRANCH   8  19
ATOM     19  C   UNL     1       0.725 -14.438   1.011  0.00  0.00    +0.163 C 
BRANCH  19  24
ATOM      5  O   UNL     1      -0.098 -15.029   3.220  0.00  0.00    -0.274 OA
ATOM     11  N   UNL     1      -1.321 -13.557   1.950  0.00  0.00    -0.328 N 
ATOM     24  C   UNL     1      -0.256 -14.405   2.174  0.00  0.00    +0.231 C 
ATOM     37  H   UNL     1      -2.041 -13.431   2.653  0.00  0.00    +0.145 HD
ATOM     38  H   UNL     1      -1.438 -13.045   1.082  0.00  0.00    +0.145 HD
ENDBRANCH  19  24
BRANCH  19  22
ATOM     22  C   UNL     1       2.003 -13.669   1.367  0.00  0.00    +0.074 C 
BRANCH  22  25
ATOM      1  S   UNL     1       3.955 -15.641   1.121  0.00  0.00    -0.102 S 
ATOM     25  C   UNL     1       3.210 -14.183   0.619  0.00  0.00    -0.008 A 
ATOM     29  C   UNL     1       3.844 -13.628  -0.471  0.00  0.00    +0.011 A 
ATOM     32  C   UNL     1       4.956 -14.409  -0.898  0.00  0.00    +0.008 A 
ATOM     33  C   UNL     1       5.129 -15.533  -0.120  0.00  0.00    +0.045 A 
ENDBRANCH  22  25
ENDBRANCH  19  22
ENDBRANCH   8  19
ENDBRANCH  14  17
TORSDOF 8
ENDMDL
MODEL 4
REMARK VINA RESULT:      -6.1      1.775      5.832
REMARK  Name = 11882057
REMARK  10 active torsions:
REMARK  status: ('A' for Active; 'I' for Inactive)
REMARK    1  A    between atoms: N_7  and  C_13
REMARK    2  A    between atoms: N_8  and  C_19
REMARK    3  A    between atoms: N_9  and  C_23
REMARK    4  A    between atoms: C_14  and  C_17
REMARK    5  A    between atoms: C_18  and  C_21
REMARK    6  A    between atoms: C_19  and  C_22
REMARK    7  A    between atoms: C_19  and  C_24
REMARK    8  A    between atoms: C_22  and  C_25
REMARK    9  A    between atoms: C_23  and  C_27
REMARK   10  A    between atoms: C_23  and  C_28
REMARK                            x       y       z     vdW  Elec       q    Type
REMARK                         _______ _______ _______ _____ _____    ______ ____
ROOT
ATOM      3  O   UNL     1      -7.148 -11.983   8.336  0.00  0.00    -0.268 OA
ATOM      6  N   UNL     1      -5.632 -10.371   9.062  0.00  0.00    -0.283 N 
ATOM     13  C   UNL     1      -5.404  -9.126  11.067  0.00  0.00    +0.105 C 
ATOM     14  C   UNL     1      -6.396  -9.923  10.221  0.00  0.00    +0.182 C 
ATOM     15  C   UNL     1      -4.404  -8.595  10.037  0.00  0.00    +0.043 C 
ATOM     16  C   UNL     1      -4.331  -9.705   8.996  0.00  0.00    +0.111 C 
ATOM     18  C   UNL     1      -6.051 -11.433   8.271  0.00  0.00    +0.267 C 
ENDROOT
BRANCH  13   7
ATOM      4  O   UNL     1      -6.228  -9.612  13.790  0.00  0.00    -0.253 OA
ATOM      7  N   UNL     1      -4.748  -9.970  12.037  0.00  0.00    -0.294 N 
ATOM      9  N   UNL     1      -4.397 -11.011  14.057  0.00  0.00    -0.297 N 
ATOM     20  C   UNL     1      -5.218 -10.148  13.336  0.00  0.00    +0.300 C 
ATOM     34  H   UNL     1      -3.940 -10.511  11.742  0.00  0.00    +0.151 HD
ATOM     36  H   UNL     1      -3.627 -11.463  13.572  0.00  0.00    +0.150 HD
BRANCH   9  23
ATOM     23  C   UNL     1      -4.654 -11.369  15.432  0.00  0.00    +0.068 C 
ATOM     27  C   UNL     1      -3.672 -10.660  16.356  0.00  0.00    +0.027 C 
ATOM     28  C   UNL     1      -4.588 -12.880  15.612  0.00  0.00    +0.027 C 
ENDBRANCH   9  23
ENDBRANCH  13   7
BRANCH  18  21
ATOM     10  N   UNL     1      -5.092 -11.332   6.077  0.00  0.00    -0.247 NA
ATOM     12  N   UNL     1      -3.380 -13.476   6.659  0.00  0.00    -0.259 NA
ATOM     21  C   UNL     1      -5.099 -11.944   7.277  0.00  0.00    +0.144 A 
ATOM     26  C   UNL     1      -4.258 -12.997   7.563  0.00  0.00    +0.143 A 
ATOM     30  C   UNL     1      -4.214 -11.810   5.173  0.00  0.00    +0.131 A 
ATOM     31  C   UNL     1      -3.373 -12.863   5.458  0.00  0.00    +0.130 A 
ENDBRANCH  18  21
BRANCH  14  17
ATOM      2  O   UNL     1      -8.476  -8.761  10.372  0.00  0.00    -0.274 OA
ATOM      8  N   UNL     1      -7.276  -8.666   8.381  0.00  0.00    -0.302 N 
ATOM     17  C   UNL     1      -7.498  -9.053   9.691  0.00  0.00    +0.236 C 
ATOM     35  H   UNL     1      -6.466  -9.038   7.890  0.00  0.00    +0.150 HD
BRANCH   8  19
ATOM     19  C   UNL     1      -8.198  -7.844   7.632  0.00  0.00    +0.163 C 
BRANCH  19  24
ATOM      5  O   UNL     1      -8.673  -7.751   5.249  0.00  0.00    -0.274 OA
ATOM     11  N   UNL     1      -6.689  -8.683   5.939  0.00  0.00    -0.328 N 
ATOM     24  C   UNL     1      -7.915  -8.088   6.156  0.00  0.00    +0.231 C 
ATOM     37  H   UNL     1      -6.370  -8.886   4.998  0.00  0.00    +0.145 HD
ATOM     38  H   UNL     1      -6.071  -8.952   6.697  0.00  0.00    +0.145 HD
ENDBRANCH  19  24
BRANCH  19  22
ATOM     22  C   UNL     1      -8.052  -6.355   7.966  0.00  0.00    +0.074 C 
BRANCH  22  25
ATOM      1  S   UNL     1     -10.819  -6.616   8.161  0.00  0.00    -0.102 S 
ATOM     25  C   UNL     1      -9.372  -5.716   8.328  0.00  0.00    -0.008 A 
ATOM     29  C   UNL     1      -9.607  -4.444   8.802  0.00  0.00    +0.011 A 
ATOM     32  C   UNL     1     -10.993  -4.205   9.030  0.00  0.00    +0.008 A 
ATOM     33  C   UNL     1     -11.765  -5.304   8.722  0.00  0.00    +0.045 A 
ENDBRANCH  22  25
ENDBRANCH  19  22
ENDBRANCH   8  19
ENDBRANCH  14  17
TORSDOF 8
ENDMDL
MODEL 5
REMARK VINA RESULT:      -6.0     25.752     27.350
REMARK  Name = 11882057
REMARK  10 active torsions:
REMARK  status: ('A' for Active; 'I' for Inactive)
REMARK    1  A    between atoms: N_7  and  C_13
REMARK    2  A    between atoms: N_8  and  C_19
REMARK    3  A    between atoms: N_9  and  C_23
REMARK    4  A    between atoms: C_14  and  C_17
REMARK    5  A    between atoms: C_18  and  C_21
REMARK    6  A    between atoms: C_19  and  C_22
REMARK    7  A    between atoms: C_19  and  C_24
REMARK    8  A    between atoms: C_22  and  C_25
REMARK    9  A    between atoms: C_23  and  C_27
REMARK   10  A    between atoms: C_23  and  C_28
REMARK                            x       y       z     vdW  Elec       q    Type
REMARK                         _______ _______ _______ _____ _____    ______ ____
ROOT
ATOM      3  O   UNL     1      13.513   4.746   2.318  0.00  0.00    -0.268 OA
ATOM      6  N   UNL     1      14.716   6.725   2.070  0.00  0.00    -0.283 N 
ATOM     13  C   UNL     1      15.979   8.068   3.561  0.00  0.00    +0.105 C 
ATOM     14  C   UNL     1      14.881   7.006   3.493  0.00  0.00    +0.182 C 
ATOM     15  C   UNL     1      15.853   8.796   2.221  0.00  0.00    +0.043 C 
ATOM     16  C   UNL     1      15.431   7.702   1.250  0.00  0.00    +0.111 C 
ATOM     18  C   UNL     1      14.112   5.558   1.618  0.00  0.00    +0.267 C 
ENDROOT
BRANCH  13   7
ATOM      4  O   UNL     1      18.364   9.301   4.620  0.00  0.00    -0.253 OA
ATOM      7  N   UNL     1      17.282   7.463   3.702  0.00  0.00    -0.294 N 
ATOM      9  N   UNL     1      19.511   7.320   4.246  0.00  0.00    -0.297 N 
ATOM     20  C   UNL     1      18.383   8.136   4.225  0.00  0.00    +0.300 C 
ATOM     34  H   UNL     1      17.389   6.481   3.465  0.00  0.00    +0.151 HD
ATOM     36  H   UNL     1      19.410   6.348   3.968  0.00  0.00    +0.150 HD
BRANCH   9  23
ATOM     23  C   UNL     1      20.792   7.768   4.740  0.00  0.00    +0.068 C 
ATOM     27  C   UNL     1      21.910   6.897   4.181  0.00  0.00    +0.027 C 
ATOM     28  C   UNL     1      20.805   7.771   6.264  0.00  0.00    +0.027 C 
ENDBRANCH   9  23
ENDBRANCH  13   7
BRANCH  18  21
ATOM     10  N   UNL     1      13.202   5.733  -0.592  0.00  0.00    -0.247 NA
ATOM     12  N   UNL     1      15.359   4.292  -1.660  0.00  0.00    -0.259 NA
ATOM     21  C   UNL     1      14.204   5.271   0.181  0.00  0.00    +0.144 A 
ATOM     26  C   UNL     1      15.263   4.563  -0.343  0.00  0.00    +0.143 A 
ATOM     30  C   UNL     1      13.298   5.464  -1.910  0.00  0.00    +0.131 A 
ATOM     31  C   UNL     1      14.356   4.755  -2.434  0.00  0.00    +0.130 A 
ENDBRANCH  18  21
BRANCH  14  17
ATOM      2  O   UNL     1      13.168   8.659   3.670  0.00  0.00    -0.274 OA
ATOM      8  N   UNL     1      12.902   6.637   4.791  0.00  0.00    -0.302 N 
ATOM     17  C   UNL     1      13.564   7.538   3.975  0.00  0.00    +0.236 C 
ATOM     35  H   UNL     1      13.367   5.767   5.039  0.00  0.00    +0.150 HD
BRANCH   8  19
ATOM     19  C   UNL     1      11.624   6.916   5.404  0.00  0.00    +0.163 C 
BRANCH  19  24
ATOM      5  O   UNL     1      10.786   6.505   7.648  0.00  0.00    -0.274 OA
ATOM     11  N   UNL     1      13.016   6.148   7.225  0.00  0.00    -0.328 N 
ATOM     24  C   UNL     1      11.737   6.526   6.871  0.00  0.00    +0.231 C 
ATOM     37  H   UNL     1      13.226   5.849   8.171  0.00  0.00    +0.145 HD
ATOM     38  H   UNL     1      13.791   6.166   6.571  0.00  0.00    +0.145 HD
ENDBRANCH  19  24
BRANCH  19  22
ATOM     22  C   UNL     1      10.478   6.149   4.733  0.00  0.00    +0.074 C 
BRANCH  22  25
ATOM      1  S   UNL     1      10.319   6.939   2.067  0.00  0.00    -0.102 S 
ATOM     25  C   UNL     1       9.768   6.975   3.687  0.00  0.00    -0.008 A 
ATOM     29  C   UNL     1       8.679   7.806   3.845  0.00  0.00    +0.011 A 
ATOM     32  C   UNL     1       8.294   8.420   2.618  0.00  0.00    +0.008 A 
ATOM     33  C   UNL     1       9.101   8.035   1.570  0.00  0.00    +0.045 A 
ENDBRANCH  22  25
ENDBRANCH  19  22
ENDBRANCH   8  19
ENDBRANCH  14  17
TORSDOF 8
ENDMDL
MODEL 6
REMARK VINA RESULT:      -5.9      8.216     13.131
REMARK  Name = 11882057
REMARK  10 active torsions:
REMARK  status: ('A' for Active; 'I' for Inactive)
REMARK    1  A    between atoms: N_7  and  C_13
REMARK    2  A    between atoms: N_8  and  C_19
REMARK    3  A    between atoms: N_9  and  C_23
REMARK    4  A    between atoms: C_14  and  C_17
REMARK    5  A    between atoms: C_18  and  C_21
REMARK    6  A    between atoms: C_19  and  C_22
REMARK    7  A    between atoms: C_19  and  C_24
REMARK    8  A    between atoms: C_22  and  C_25
REMARK    9  A    between atoms: C_23  and  C_27
REMARK   10  A    between atoms: C_23  and  C_28
REMARK                            x       y       z     vdW  Elec       q    Type
REMARK                         _______ _______ _______ _____ _____    ______ ____
ROOT
ATOM      3  O   UNL     1      -8.364  -8.555  17.462  0.00  0.00    -0.268 OA
ATOM      6  N   UNL     1      -9.870 -10.330  17.370  0.00  0.00    -0.283 N 
ATOM     13  C   UNL     1     -10.197 -12.266  18.698  0.00  0.00    +0.105 C 
ATOM     14  C   UNL     1      -9.175 -11.195  18.317  0.00  0.00    +0.182 C 
ATOM     15  C   UNL     1     -11.100 -12.351  17.465  0.00  0.00    +0.043 C 
ATOM     16  C   UNL     1     -11.137 -10.921  16.942  0.00  0.00    +0.111 C 
ATOM     18  C   UNL     1      -9.432  -9.040  17.097  0.00  0.00    +0.267 C 
ENDROOT
BRANCH  13   7
ATOM      4  O   UNL     1     -12.402 -13.690  19.900  0.00  0.00    -0.253 OA
ATOM      7  N   UNL     1     -10.951 -11.876  19.865  0.00  0.00    -0.294 N 
ATOM      9  N   UNL     1     -12.556 -12.022  21.506  0.00  0.00    -0.297 N 
ATOM     20  C   UNL     1     -12.006 -12.628  20.379  0.00  0.00    +0.300 C 
ATOM     34  H   UNL     1     -10.662 -11.046  20.375  0.00  0.00    +0.151 HD
ATOM     36  H   UNL     1     -12.112 -11.184  21.870  0.00  0.00    +0.150 HD
BRANCH   9  23
ATOM     23  C   UNL     1     -13.664 -12.591  22.237  0.00  0.00    +0.068 C 
ATOM     27  C   UNL     1     -14.874 -11.667  22.167  0.00  0.00    +0.027 C 
ATOM     28  C   UNL     1     -13.265 -12.869  23.681  0.00  0.00    +0.027 C 
ENDBRANCH   9  23
ENDBRANCH  13   7
BRANCH  18  21
ATOM     10  N   UNL     1     -10.871  -7.128  16.953  0.00  0.00    -0.247 NA
ATOM     12  N   UNL     1     -11.414  -7.664  14.253  0.00  0.00    -0.259 NA
ATOM     21  C   UNL     1     -10.328  -8.181  16.311  0.00  0.00    +0.144 A 
ATOM     26  C   UNL     1     -10.594  -8.444  14.985  0.00  0.00    +0.143 A 
ATOM     30  C   UNL     1     -11.690  -6.347  16.221  0.00  0.00    +0.131 A 
ATOM     31  C   UNL     1     -11.958  -6.610  14.895  0.00  0.00    +0.130 A 
ENDBRANCH  18  21
BRANCH  14  17
ATOM      2  O   UNL     1      -8.143 -12.708  16.786  0.00  0.00    -0.274 OA
ATOM      8  N   UNL     1      -6.813 -11.171  17.919  0.00  0.00    -0.302 N 
ATOM     17  C   UNL     1      -8.008 -11.780  17.579  0.00  0.00    +0.236 C 
ATOM     35  H   UNL     1      -6.814 -10.464  18.651  0.00  0.00    +0.150 HD
BRANCH   8  19
ATOM     19  C   UNL     1      -5.538 -11.564  17.366  0.00  0.00    +0.163 C 
BRANCH  19  24
ATOM      5  O   UNL     1      -4.486 -11.901  19.531  0.00  0.00    -0.274 OA
ATOM     11  N   UNL     1      -4.603 -13.677  18.079  0.00  0.00    -0.328 N 
ATOM     24  C   UNL     1      -4.812 -12.362  18.440  0.00  0.00    +0.231 C 
ATOM     37  H   UNL     1      -4.142 -14.322  18.711  0.00  0.00    +0.145 HD
ATOM     38  H   UNL     1      -4.880 -14.045  17.175  0.00  0.00    +0.145 HD
ENDBRANCH  19  24
BRANCH  19  22
ATOM     22  C   UNL     1      -4.695 -10.359  16.933  0.00  0.00    +0.074 C 
BRANCH  22  25
ATOM      1  S   UNL     1      -3.794 -11.387  14.505  0.00  0.00    -0.102 S 
ATOM     25  C   UNL     1      -3.519 -10.760  16.074  0.00  0.00    -0.008 A 
ATOM     29  C   UNL     1      -2.176 -10.696  16.377  0.00  0.00    +0.011 A 
ATOM     32  C   UNL     1      -1.363 -11.169  15.306  0.00  0.00    +0.008 A 
ATOM     33  C   UNL     1      -2.116 -11.575  14.225  0.00  0.00    +0.045 A 
ENDBRANCH  22  25
ENDBRANCH  19  22
ENDBRANCH   8  19
ENDBRANCH  14  17
TORSDOF 8
ENDMDL
MODEL 7
REMARK VINA RESULT:      -5.8     21.515     24.683
REMARK  Name = 11882057
REMARK  10 active torsions:
REMARK  status: ('A' for Active; 'I' for Inactive)
REMARK    1  A    between atoms: N_7  and  C_13
REMARK    2  A    between atoms: N_8  and  C_19
REMARK    3  A    between atoms: N_9  and  C_23
REMARK    4  A    between atoms: C_14  and  C_17
REMARK    5  A    between atoms: C_18  and  C_21
REMARK    6  A    between atoms: C_19  and  C_22
REMARK    7  A    between atoms: C_19  and  C_24
REMARK    8  A    between atoms: C_22  and  C_25
REMARK    9  A    between atoms: C_23  and  C_27
REMARK   10  A    between atoms: C_23  and  C_28
REMARK                            x       y       z     vdW  Elec       q    Type
REMARK                         _______ _______ _______ _____ _____    ______ ____
ROOT
ATOM      3  O   UNL     1     -13.850  10.459  18.569  0.00  0.00    -0.268 OA
ATOM      6  N   UNL     1     -12.742   8.679  19.583  0.00  0.00    -0.283 N 
ATOM     13  C   UNL     1     -13.244   7.281  21.432  0.00  0.00    +0.105 C 
ATOM     14  C   UNL     1     -13.558   8.633  20.792  0.00  0.00    +0.182 C 
ATOM     15  C   UNL     1     -11.818   6.987  20.959  0.00  0.00    +0.043 C 
ATOM     16  C   UNL     1     -11.767   7.589  19.561  0.00  0.00    +0.111 C 
ATOM     18  C   UNL     1     -13.028   9.546  18.537  0.00  0.00    +0.267 C 
ENDROOT
BRANCH  13   7
ATOM      4  O   UNL     1     -15.969   6.883  22.295  0.00  0.00    -0.253 OA
ATOM      7  N   UNL     1     -14.160   6.263  20.977  0.00  0.00    -0.294 N 
ATOM      9  N   UNL     1     -16.126   5.078  20.845  0.00  0.00    -0.297 N 
ATOM     20  C   UNL     1     -15.465   6.143  21.451  0.00  0.00    +0.300 C 
ATOM     34  H   UNL     1     -13.862   5.640  20.231  0.00  0.00    +0.151 HD
ATOM     36  H   UNL     1     -15.650   4.571  20.104  0.00  0.00    +0.150 HD
BRANCH   9  23
ATOM     23  C   UNL     1     -17.493   4.730  21.153  0.00  0.00    +0.068 C 
ATOM     27  C   UNL     1     -17.544   3.801  22.360  0.00  0.00    +0.027 C 
ATOM     28  C   UNL     1     -18.170   4.099  19.943  0.00  0.00    +0.027 C 
ENDBRANCH   9  23
ENDBRANCH  13   7
BRANCH  18  21
ATOM     10  N   UNL     1     -11.091   9.958  17.188  0.00  0.00    -0.247 NA
ATOM     12  N   UNL     1     -12.132   8.393  15.105  0.00  0.00    -0.259 NA
ATOM     21  C   UNL     1     -12.289   9.350  17.283  0.00  0.00    +0.144 A 
ATOM     26  C   UNL     1     -12.801   8.581  16.261  0.00  0.00    +0.143 A 
ATOM     30  C   UNL     1     -10.421   9.770  16.033  0.00  0.00    +0.131 A 
ATOM     31  C   UNL     1     -10.933   9.002  15.010  0.00  0.00    +0.130 A 
ENDBRANCH  18  21
BRANCH  14  17
ATOM      2  O   UNL     1     -12.148  10.479  21.341  0.00  0.00    -0.274 OA
ATOM      8  N   UNL     1     -13.860   9.896  22.805  0.00  0.00    -0.302 N 
ATOM     17  C   UNL     1     -13.103   9.774  21.653  0.00  0.00    +0.236 C 
ATOM     35  H   UNL     1     -14.578   9.202  22.996  0.00  0.00    +0.150 HD
BRANCH   8  19
ATOM     19  C   UNL     1     -13.612  10.902  23.812  0.00  0.00    +0.163 C 
BRANCH  19  24
ATOM      5  O   UNL     1     -15.269  12.519  23.071  0.00  0.00    -0.274 OA
ATOM     11  N   UNL     1     -13.048  13.102  22.983  0.00  0.00    -0.328 N 
ATOM     24  C   UNL     1     -14.087  12.232  23.242  0.00  0.00    +0.231 C 
ATOM     37  H   UNL     1     -13.228  14.030  22.614  0.00  0.00    +0.145 HD
ATOM     38  H   UNL     1     -12.076  12.853  23.132  0.00  0.00    +0.145 HD
ENDBRANCH  19  24
BRANCH  19  22
ATOM     22  C   UNL     1     -12.130  10.985  24.198  0.00  0.00    +0.074 C 
BRANCH  22  25
ATOM      1  S   UNL     1     -13.238  10.679  26.736  0.00  0.00    -0.102 S 
ATOM     25  C   UNL     1     -11.903  10.703  25.665  0.00  0.00    -0.008 A 
ATOM     29  C   UNL     1     -10.715  10.447  26.314  0.00  0.00    +0.011 A 
ATOM     32  C   UNL     1     -10.904  10.229  27.709  0.00  0.00    +0.008 A 
ATOM     33  C   UNL     1     -12.230  10.326  28.073  0.00  0.00    +0.045 A 
ENDBRANCH  22  25
ENDBRANCH  19  22
ENDBRANCH   8  19
ENDBRANCH  14  17
TORSDOF 8
ENDMDL
MODEL 8
REMARK VINA RESULT:      -5.7      4.115      8.561
REMARK  Name = 11882057
REMARK  10 active torsions:
REMARK  status: ('A' for Active; 'I' for Inactive)
REMARK    1  A    between atoms: N_7  and  C_13
REMARK    2  A    between atoms: N_8  and  C_19
REMARK    3  A    between atoms: N_9  and  C_23
REMARK    4  A    between atoms: C_14  and  C_17
REMARK    5  A    between atoms: C_18  and  C_21
REMARK    6  A    between atoms: C_19  and  C_22
REMARK    7  A    between atoms: C_19  and  C_24
REMARK    8  A    between atoms: C_22  and  C_25
REMARK    9  A    between atoms: C_23  and  C_27
REMARK   10  A    between atoms: C_23  and  C_28
REMARK                            x       y       z     vdW  Elec       q    Type
REMARK                         _______ _______ _______ _____ _____    ______ ____
ROOT
ATOM      3  O   UNL     1      -4.382 -13.959  12.316  0.00  0.00    -0.268 OA
ATOM      6  N   UNL     1      -2.901 -12.633  13.530  0.00  0.00    -0.283 N 
ATOM     13  C   UNL     1      -3.113 -10.560  14.661  0.00  0.00    +0.105 C 
ATOM     14  C   UNL     1      -3.737 -11.438  13.576  0.00  0.00    +0.182 C 
ATOM     15  C   UNL     1      -1.638 -10.968  14.646  0.00  0.00    +0.043 C 
ATOM     16  C   UNL     1      -1.676 -12.453  14.308  0.00  0.00    +0.111 C 
ATOM     18  C   UNL     1      -3.350 -13.822  12.969  0.00  0.00    +0.267 C 
ENDROOT
BRANCH  13   7
ATOM      4  O   UNL     1      -5.643  -9.574  15.640  0.00  0.00    -0.253 OA
ATOM      7  N   UNL     1      -3.709 -10.821  15.950  0.00  0.00    -0.294 N 
ATOM      9  N   UNL     1      -5.275 -10.710  17.630  0.00  0.00    -0.297 N 
ATOM     20  C   UNL     1      -4.940 -10.301  16.341  0.00  0.00    +0.300 C 
ATOM     34  H   UNL     1      -3.238 -11.464  16.581  0.00  0.00    +0.151 HD
ATOM     36  H   UNL     1      -4.665 -11.372  18.101  0.00  0.00    +0.150 HD
BRANCH   9  23
ATOM     23  C   UNL     1      -6.501 -10.315  18.282  0.00  0.00    +0.068 C 
ATOM     27  C   UNL     1      -6.357 -10.428  19.794  0.00  0.00    +0.027 C 
ATOM     28  C   UNL     1      -7.670 -11.152  17.775  0.00  0.00    +0.027 C 
ENDBRANCH   9  23
ENDBRANCH  13   7
BRANCH  18  21
ATOM     10  N   UNL     1      -2.638 -15.626  14.377  0.00  0.00    -0.247 NA
ATOM     12  N   UNL     1      -0.910 -16.580  12.384  0.00  0.00    -0.259 NA
ATOM     21  C   UNL     1      -2.523 -15.016  13.181  0.00  0.00    +0.144 A 
ATOM     26  C   UNL     1      -1.674 -15.485  12.202  0.00  0.00    +0.143 A 
ATOM     30  C   UNL     1      -1.875 -16.722  14.559  0.00  0.00    +0.131 A 
ATOM     31  C   UNL     1      -1.026 -17.191  13.581  0.00  0.00    +0.130 A 
ENDBRANCH  18  21
BRANCH  14  17
ATOM      2  O   UNL     1      -2.620 -10.222  11.852  0.00  0.00    -0.274 OA
ATOM      8  N   UNL     1      -4.808 -10.930  11.495  0.00  0.00    -0.302 N 
ATOM     17  C   UNL     1      -3.638 -10.800  12.222  0.00  0.00    +0.236 C 
ATOM     35  H   UNL     1      -5.615 -11.361  11.938  0.00  0.00    +0.150 HD
BRANCH   8  19
ATOM     19  C   UNL     1      -4.980 -10.383  10.168  0.00  0.00    +0.163 C 
BRANCH  19  24
ATOM      5  O   UNL     1      -6.252  -8.650  11.303  0.00  0.00    -0.274 OA
ATOM     11  N   UNL     1      -5.250  -8.143   9.298  0.00  0.00    -0.328 N 
ATOM     24  C   UNL     1      -5.581  -8.994  10.333  0.00  0.00    +0.231 C 
ATOM     37  H   UNL     1      -5.573  -7.182   9.292  0.00  0.00    +0.145 HD
ATOM     38  H   UNL     1      -4.691  -8.440   8.505  0.00  0.00    +0.145 HD
ENDBRANCH  19  24
BRANCH  19  22
ATOM     22  C   UNL     1      -5.884 -11.257   9.292  0.00  0.00    +0.074 C 
BRANCH  22  25
ATOM      1  S   UNL     1      -5.719 -10.655   6.577  0.00  0.00    -0.102 S 
ATOM     25  C   UNL     1      -5.260 -11.566   7.951  0.00  0.00    -0.008 A 
ATOM     29  C   UNL     1      -4.321 -12.526   7.645  0.00  0.00    +0.011 A 
ATOM     32  C   UNL     1      -3.975 -12.514   6.263  0.00  0.00    +0.008 A 
ATOM     33  C   UNL     1      -4.662 -11.544   5.566  0.00  0.00    +0.045 A 
ENDBRANCH  22  25
ENDBRANCH  19  22
ENDBRANCH   8  19
ENDBRANCH  14  17
TORSDOF 8
ENDMDL
MODEL 9
REMARK VINA RESULT:      -5.7      3.925      7.477
REMARK  Name = 11882057
REMARK  10 active torsions:
REMARK  status: ('A' for Active; 'I' for Inactive)
REMARK    1  A    between atoms: N_7  and  C_13
REMARK    2  A    between atoms: N_8  and  C_19
REMARK    3  A    between atoms: N_9  and  C_23
REMARK    4  A    between atoms: C_14  and  C_17
REMARK    5  A    between atoms: C_18  and  C_21
REMARK    6  A    between atoms: C_19  and  C_22
REMARK    7  A    between atoms: C_19  and  C_24
REMARK    8  A    between atoms: C_22  and  C_25
REMARK    9  A    between atoms: C_23  and  C_27
REMARK   10  A    between atoms: C_23  and  C_28
REMARK                            x       y       z     vdW  Elec       q    Type
REMARK                         _______ _______ _______ _____ _____    ______ ____
ROOT
ATOM      3  O   UNL     1      -7.444 -11.264  10.454  0.00  0.00    -0.268 OA
ATOM      6  N   UNL     1      -5.211 -10.621  10.601  0.00  0.00    -0.283 N 
ATOM     13  C   UNL     1      -3.425 -11.232  12.036  0.00  0.00    +0.105 C 
ATOM     14  C   UNL     1      -4.948 -11.207  11.912  0.00  0.00    +0.182 C 
ATOM     15  C   UNL     1      -2.976 -10.065  11.154  0.00  0.00    +0.043 C 
ATOM     16  C   UNL     1      -3.994 -10.052  10.022  0.00  0.00    +0.111 C 
ATOM     18  C   UNL     1      -6.429 -10.784   9.955  0.00  0.00    +0.267 C 
ENDROOT
BRANCH  13   7
ATOM      4  O   UNL     1      -3.046 -13.661  13.549  0.00  0.00    -0.253 OA
ATOM      7  N   UNL     1      -2.883 -12.481  11.556  0.00  0.00    -0.294 N 
ATOM      9  N   UNL     1      -2.189 -14.672  11.645  0.00  0.00    -0.297 N 
ATOM     20  C   UNL     1      -2.735 -13.609  12.360  0.00  0.00    +0.300 C 
ATOM     34  H   UNL     1      -2.655 -12.564  10.569  0.00  0.00    +0.151 HD
ATOM     36  H   UNL     1      -2.035 -14.555  10.648  0.00  0.00    +0.150 HD
BRANCH   9  23
ATOM     23  C   UNL     1      -1.930 -15.962  12.238  0.00  0.00    +0.068 C 
ATOM     27  C   UNL     1      -0.671 -16.578  11.639  0.00  0.00    +0.027 C 
ATOM     28  C   UNL     1      -3.131 -16.883  12.062  0.00  0.00    +0.027 C 
ENDBRANCH   9  23
ENDBRANCH  13   7
BRANCH  18  21
ATOM     10  N   UNL     1      -5.991 -11.193   7.634  0.00  0.00    -0.247 NA
ATOM     12  N   UNL     1      -7.158  -8.744   6.920  0.00  0.00    -0.259 NA
ATOM     21  C   UNL     1      -6.507 -10.353   8.553  0.00  0.00    +0.144 A 
ATOM     26  C   UNL     1      -7.080  -9.151   8.203  0.00  0.00    +0.143 A 
ATOM     30  C   UNL     1      -6.069 -10.786   6.351  0.00  0.00    +0.131 A 
ATOM     31  C   UNL     1      -6.641  -9.584   6.000  0.00  0.00    +0.130 A 
ENDBRANCH  18  21
BRANCH  14  17
ATOM      2  O   UNL     1      -6.077  -9.217  12.592  0.00  0.00    -0.274 OA
ATOM      8  N   UNL     1      -5.477 -10.780  14.209  0.00  0.00    -0.302 N 
ATOM     17  C   UNL     1      -5.571 -10.286  12.919  0.00  0.00    +0.236 C 
ATOM     35  H   UNL     1      -4.962 -11.642  14.367  0.00  0.00    +0.150 HD
BRANCH   8  19
ATOM     19  C   UNL     1      -5.980 -10.074  15.365  0.00  0.00    +0.163 C 
BRANCH  19  24
ATOM      5  O   UNL     1      -5.172 -10.328  17.643  0.00  0.00    -0.274 OA
ATOM     11  N   UNL     1      -3.634 -10.149  15.946  0.00  0.00    -0.328 N 
ATOM     24  C   UNL     1      -4.918 -10.182  16.450  0.00  0.00    +0.231 C 
ATOM     37  H   UNL     1      -2.832 -10.228  16.562  0.00  0.00    +0.145 HD
ATOM     38  H   UNL     1      -3.439 -10.032  14.957  0.00  0.00    +0.145 HD
ENDBRANCH  19  24
BRANCH  19  22
ATOM     22  C   UNL     1      -7.313 -10.646  15.862  0.00  0.00    +0.074 C 
BRANCH  22  25
ATOM      1  S   UNL     1      -9.396  -9.185  14.728  0.00  0.00    -0.102 S 
ATOM     25  C   UNL     1      -8.366  -9.578  16.037  0.00  0.00    -0.008 A 
ATOM     29  C   UNL     1      -8.643  -8.824  17.157  0.00  0.00    +0.011 A 
ATOM     32  C   UNL     1      -9.715  -7.912  16.935  0.00  0.00    +0.008 A 
ATOM     33  C   UNL     1     -10.217  -8.004  15.656  0.00  0.00    +0.045 A 
ENDBRANCH  22  25
ENDBRANCH  19  22
ENDBRANCH   8  19
ENDBRANCH  14  17
TORSDOF 8
ENDMDL
MODEL 10
REMARK VINA RESULT:      -5.6      4.676      8.237
REMARK  Name = 11882057
REMARK  10 active torsions:
REMARK  status: ('A' for Active; 'I' for Inactive)
REMARK    1  A    between atoms: N_7  and  C_13
REMARK    2  A    between atoms: N_8  and  C_19
REMARK    3  A    between atoms: N_9  and  C_23
REMARK    4  A    between atoms: C_14  and  C_17
REMARK    5  A    between atoms: C_18  and  C_21
REMARK    6  A    between atoms: C_19  and  C_22
REMARK    7  A    between atoms: C_19  and  C_24
REMARK    8  A    between atoms: C_22  and  C_25
REMARK    9  A    between atoms: C_23  and  C_27
REMARK   10  A    between atoms: C_23  and  C_28
REMARK                            x       y       z     vdW  Elec       q    Type
REMARK                         _______ _______ _______ _____ _____    ______ ____
ROOT
ATOM      3  O   UNL     1      -5.165  -9.785  15.136  0.00  0.00    -0.268 OA
ATOM      6  N   UNL     1      -6.287 -10.829  13.383  0.00  0.00    -0.283 N 
ATOM     13  C   UNL     1      -8.241 -10.301  12.148  0.00  0.00    +0.105 C 
ATOM     14  C   UNL     1      -7.510 -10.036  13.464  0.00  0.00    +0.182 C 
ATOM     15  C   UNL     1      -7.767 -11.701  11.752  0.00  0.00    +0.043 C 
ATOM     16  C   UNL     1      -6.328 -11.752  12.249  0.00  0.00    +0.111 C 
ATOM     18  C   UNL     1      -5.185 -10.563  14.185  0.00  0.00    +0.267 C 
ENDROOT
BRANCH  13   7
ATOM      4  O   UNL     1      -9.858  -9.397   9.935  0.00  0.00    -0.253 OA
ATOM      7  N   UNL     1      -7.877  -9.329  11.144  0.00  0.00    -0.294 N 
ATOM      9  N   UNL     1      -8.124  -8.000   9.284  0.00  0.00    -0.297 N 
ATOM     20  C   UNL     1      -8.725  -8.950  10.106  0.00  0.00    +0.300 C 
ATOM     34  H   UNL     1      -6.985  -8.851  11.233  0.00  0.00    +0.151 HD
ATOM     36  H   UNL     1      -7.213  -7.637   9.551  0.00  0.00    +0.150 HD
BRANCH   9  23
ATOM     23  C   UNL     1      -8.783  -7.434   8.131  0.00  0.00    +0.068 C 
ATOM     27  C   UNL     1      -8.056  -7.839   6.854  0.00  0.00    +0.027 C 
ATOM     28  C   UNL     1      -8.873  -5.919   8.256  0.00  0.00    +0.027 C 
ENDBRANCH   9  23
ENDBRANCH  13   7
BRANCH  18  21
ATOM     10  N   UNL     1      -3.717 -12.429  14.509  0.00  0.00    -0.247 NA
ATOM     12  N   UNL     1      -1.893 -11.395  12.645  0.00  0.00    -0.259 NA
ATOM     21  C   UNL     1      -3.937 -11.267  13.864  0.00  0.00    +0.144 A 
ATOM     26  C   UNL     1      -3.042 -10.759  12.949  0.00  0.00    +0.143 A 
ATOM     30  C   UNL     1      -2.568 -13.066  14.205  0.00  0.00    +0.131 A 
ATOM     31  C   UNL     1      -1.672 -12.558  13.291  0.00  0.00    +0.130 A 
ENDBRANCH  18  21
BRANCH  14  17
ATOM      2  O   UNL     1      -9.040 -11.520  14.540  0.00  0.00    -0.274 OA
ATOM      8  N   UNL     1      -8.035  -9.835  15.792  0.00  0.00    -0.302 N 
ATOM     17  C   UNL     1      -8.278 -10.562  14.640  0.00  0.00    +0.236 C 
ATOM     35  H   UNL     1      -7.444  -9.009  15.736  0.00  0.00    +0.150 HD
BRANCH   8  19
ATOM     19  C   UNL     1      -8.669 -10.123  17.058  0.00  0.00    +0.163 C 
BRANCH  19  24
ATOM      5  O   UNL     1      -9.686  -7.949  17.445  0.00  0.00    -0.274 OA
ATOM     11  N   UNL     1     -11.056  -9.741  17.004  0.00  0.00    -0.328 N 
ATOM     24  C   UNL     1      -9.827  -9.147  17.210  0.00  0.00    +0.231 C 
ATOM     37  H   UNL     1     -11.911  -9.198  17.061  0.00  0.00    +0.145 HD
ATOM     38  H   UNL     1     -11.158 -10.731  16.807  0.00  0.00    +0.145 HD
ENDBRANCH  19  24
BRANCH  19  22
ATOM     22  C   UNL     1      -7.699  -9.990  18.238  0.00  0.00    +0.074 C 
BRANCH  22  25
ATOM      1  S   UNL     1      -6.859 -12.586  17.679  0.00  0.00    -0.102 S 
ATOM     25  C   UNL     1      -6.553 -10.970  18.153  0.00  0.00    -0.008 A 
ATOM     29  C   UNL     1      -5.218 -10.752  18.414  0.00  0.00    +0.011 A 
ATOM     32  C   UNL     1      -4.437 -11.928  18.223  0.00  0.00    +0.008 A 
ATOM     33  C   UNL     1      -5.204 -13.000  17.822  0.00  0.00    +0.045 A 
ENDBRANCH  22  25
ENDBRANCH  19  22
ENDBRANCH   8  19
ENDBRANCH  14  17
TORSDOF 8
ENDMDL
