REMARK  Name = 11913349
REMARK  4 active torsions:
REMARK  status: ('A' for Active; 'I' for Inactive)
REMARK    1  A    between atoms: N_5  and  C_11
REMARK    2  A    between atoms: N_6  and  C_12
REMARK    3  A    between atoms: C_13  and  C_18
REMARK    4  A    between atoms: C_20  and  C_23
REMARK                            x       y       z     vdW  Elec       q    Type
REMARK                         _______ _______ _______ _____ _____    ______ ____
ROOT
ATOM      6  N   UNL     1       0.069  -2.458  -0.103  0.00  0.00    -0.306 N 
ATOM      7  N   UNL     1       1.946  -1.070   0.134  0.00  0.00    -0.214 NA
ATOM      8  N   UNL     1       1.531  -2.866   1.686  0.00  0.00    -0.223 NA
ATOM     19  C   UNL     1       1.216  -2.121   0.593  0.00  0.00    +0.216 A 
ATOM     20  C   UNL     1       3.058  -0.769   0.836  0.00  0.00    +0.076 A 
ATOM     21  C   UNL     1       2.656  -2.511   2.340  0.00  0.00    +0.116 A 
ATOM     22  C   UNL     1       3.467  -1.461   1.958  0.00  0.00    +0.048 A 
ATOM     30  H   UNL     1      -0.495  -3.209   0.278  0.00  0.00    +0.149 HD
ENDROOT
BRANCH   6  12
ATOM      2  O   UNL     1      -1.248   0.407  -1.949  0.00  0.00    -0.370 OA
ATOM      3  O   UNL     1      -2.690  -2.302  -1.512  0.00  0.00    -0.370 OA
ATOM      9  C   UNL     1      -2.616  -1.101  -0.725  0.00  0.00    +0.171 C 
ATOM     10  C   UNL     1      -1.211  -0.551  -0.877  0.00  0.00    +0.171 C 
ATOM     11  C   UNL     1      -3.501  -0.027  -1.321  0.00  0.00    +0.130 C 
ATOM     12  C   UNL     1      -0.389  -1.752  -1.280  0.00  0.00    +0.130 C 
ATOM     14  C   UNL     1      -2.602   0.552  -2.403  0.00  0.00    +0.185 C 
ATOM     15  C   UNL     1      -1.390  -2.599  -2.045  0.00  0.00    +0.185 C 
BRANCH  11   5
ATOM      4  O   UNL     1      -5.862   0.181   0.385  0.00  0.00    -0.276 OA
ATOM      5  N   UNL     1      -3.801   1.001  -0.327  0.00  0.00    -0.307 N 
ATOM     18  C   UNL     1      -4.957   1.006   0.434  0.00  0.00    +0.216 C 
ATOM     29  H   UNL     1      -3.108   1.727  -0.172  0.00  0.00    +0.149 HD
BRANCH  18  13
ATOM     13  C   UNL     1      -5.056   2.150   1.387  0.00  0.00    +0.075 C 
ATOM     16  C   UNL     1      -5.272   1.853   2.832  0.00  0.00    +0.013 C 
ATOM     17  C   UNL     1      -3.943   2.362   2.356  0.00  0.00    +0.013 C 
ENDBRANCH  18  13
ENDBRANCH  11   5
ENDBRANCH   6  12
BRANCH  20  23
ATOM      1  F   UNL     1       3.281   3.470  -1.466  0.00  0.00    -0.205 F 
ATOM     23  C   UNL     1       3.817   0.350   0.332  0.00  0.00    +0.003 A 
ATOM     24  C   UNL     1       3.171   1.391  -0.337  0.00  0.00    +0.048 A 
ATOM     25  C   UNL     1       5.201   0.396   0.513  0.00  0.00    +0.010 A 
ATOM     26  C   UNL     1       3.904   2.473  -0.824  0.00  0.00    +0.124 A 
ATOM     27  C   UNL     1       5.935   1.478   0.026  0.00  0.00    +0.003 A 
ATOM     28  C   UNL     1       5.287   2.517  -0.642  0.00  0.00    +0.038 A 
ENDBRANCH  20  23
TORSDOF 4
