MODEL 1
REMARK VINA RESULT:      -6.4      0.000      0.000
REMARK  Name = 25313090
REMARK  8 active torsions:
REMARK  status: ('A' for Active; 'I' for Inactive)
REMARK    1  A    between atoms: O_2  and  C_23
REMARK    2  A    between atoms: N_5  and  C_18
REMARK    3  A    between atoms: N_6  and  C_24
REMARK    4  A    between atoms: C_7  and  C_15
REMARK    5  A    between atoms: C_8  and  C_17
REMARK    6  A    between atoms: C_9  and  C_16
REMARK    7  A    between atoms: C_15  and  C_18
REMARK    8  A    between atoms: C_17  and  C_23
REMARK                            x       y       z     vdW  Elec       q    Type
REMARK                         _______ _______ _______ _____ _____    ______ ____
ROOT
ATOM      1  O   UNL     1      -1.428  -9.679  12.538  0.00  0.00    -0.275 OA
ATOM      4  N   UNL     1      -2.739 -11.074  13.853  0.00  0.00    -0.301 N 
ATOM      7  C   UNL     1      -4.642 -11.461  15.403  0.00  0.00    +0.011 C 
ATOM      8  C   UNL     1      -3.626 -11.549  16.569  0.00  0.00    +0.006 C 
ATOM     10  C   UNL     1      -3.959 -11.860  14.082  0.00  0.00    +0.111 C 
ATOM     11  C   UNL     1      -2.345 -10.755  16.265  0.00  0.00    +0.023 C 
ATOM     14  C   UNL     1      -1.745 -11.163  14.922  0.00  0.00    +0.108 C 
ATOM     16  C   UNL     1      -2.472 -10.309  12.718  0.00  0.00    +0.219 C 
ENDROOT
BRANCH  16   9
ATOM      9  C   UNL     1      -3.549 -10.266  11.664  0.00  0.00    +0.075 C 
ATOM     12  C   UNL     1      -3.420 -11.144  10.452  0.00  0.00    +0.013 C 
ATOM     13  C   UNL     1      -3.238  -9.660  10.326  0.00  0.00    +0.013 C 
ENDBRANCH  16   9
BRANCH   7  15
ATOM     15  C   UNL     1      -5.312 -10.088  15.263  0.00  0.00    +0.020 C 
BRANCH  15  18
ATOM     18  C   UNL     1      -6.733 -10.229  14.736  0.00  0.00    +0.085 C 
BRANCH  18   5
ATOM      5  N   UNL     1      -7.654 -10.460  15.849  0.00  0.00    -0.299 NA
ATOM      6  N   UNL     1     -10.034 -10.090  17.383  0.00  0.00    -0.327 N 
ATOM     19  C   UNL     1      -7.859  -9.223  16.614  0.00  0.00    +0.103 C 
ATOM     20  C   UNL     1      -8.942 -10.961  15.355  0.00  0.00    +0.103 C 
ATOM     21  C   UNL     1      -8.776  -9.466  17.815  0.00  0.00    +0.120 C 
ATOM     22  C   UNL     1      -9.896 -11.262  16.514  0.00  0.00    +0.120 C 
BRANCH   6  24
ATOM     24  C   UNL     1     -11.146  -9.978  18.226  0.00  0.00    +0.030 A 
ATOM     25  C   UNL     1     -12.395  -9.653  17.695  0.00  0.00    +0.023 A 
ATOM     26  C   UNL     1     -11.006 -10.194  19.596  0.00  0.00    +0.023 A 
ATOM     27  C   UNL     1     -13.503  -9.544  18.535  0.00  0.00    +0.002 A 
ATOM     28  C   UNL     1     -12.115 -10.087  20.437  0.00  0.00    +0.002 A 
ATOM     29  C   UNL     1     -13.362  -9.761  19.906  0.00  0.00    +0.000 A 
ENDBRANCH   6  24
ENDBRANCH  18   5
ENDBRANCH  15  18
ENDBRANCH   7  15
BRANCH   8  17
ATOM     17  C   UNL     1      -4.216 -11.126  17.914  0.00  0.00    +0.124 C 
BRANCH  17  23
ATOM      3  O   UNL     1      -3.411 -12.230  19.934  0.00  0.00    -0.251 OA
ATOM     23  C   UNL     1      -4.116 -12.226  18.935  0.00  0.00    +0.305 C 
BRANCH  23   2
ATOM      2  O   UNL     1      -4.940 -13.248  18.589  0.00  0.00    -0.481 OA
ATOM     30  H   UNL     1      -4.466 -14.107  18.565  0.00  0.00    +0.295 HD
ENDBRANCH  23   2
ENDBRANCH  17  23
ENDBRANCH   8  17
TORSDOF 8
ENDMDL
MODEL 2
REMARK VINA RESULT:      -6.1     24.038     28.027
REMARK  Name = 25313090
REMARK  8 active torsions:
REMARK  status: ('A' for Active; 'I' for Inactive)
REMARK    1  A    between atoms: O_2  and  C_23
REMARK    2  A    between atoms: N_5  and  C_18
REMARK    3  A    between atoms: N_6  and  C_24
REMARK    4  A    between atoms: C_7  and  C_15
REMARK    5  A    between atoms: C_8  and  C_17
REMARK    6  A    between atoms: C_9  and  C_16
REMARK    7  A    between atoms: C_15  and  C_18
REMARK    8  A    between atoms: C_17  and  C_23
REMARK                            x       y       z     vdW  Elec       q    Type
REMARK                         _______ _______ _______ _____ _____    ______ ____
ROOT
ATOM      1  O   UNL     1       8.657  10.161   4.912  0.00  0.00    -0.275 OA
ATOM      4  N   UNL     1       9.967   8.910   6.365  0.00  0.00    -0.301 N 
ATOM      7  C   UNL     1      11.069   6.786   7.034  0.00  0.00    +0.011 C 
ATOM      8  C   UNL     1       9.953   6.583   8.090  0.00  0.00    +0.006 C 
ATOM     10  C   UNL     1      11.244   8.287   6.740  0.00  0.00    +0.111 C 
ATOM     11  C   UNL     1       8.652   7.294   7.681  0.00  0.00    +0.023 C 
ATOM     14  C   UNL     1       8.902   8.765   7.356  0.00  0.00    +0.108 C 
ATOM     16  C   UNL     1       9.731   9.624   5.191  0.00  0.00    +0.219 C 
ENDROOT
BRANCH  16   9
ATOM      9  C   UNL     1      10.879   9.726   4.219  0.00  0.00    +0.075 C 
ATOM     12  C   UNL     1      11.721  10.969   4.211  0.00  0.00    +0.013 C 
ATOM     13  C   UNL     1      10.783  10.691   3.073  0.00  0.00    +0.013 C 
ENDBRANCH  16   9
BRANCH   7  15
ATOM     15  C   UNL     1      10.842   6.010   5.731  0.00  0.00    +0.020 C 
BRANCH  15  18
ATOM     18  C   UNL     1      11.752   6.527   4.626  0.00  0.00    +0.085 C 
BRANCH  18   5
ATOM      5  N   UNL     1      11.784   5.570   3.520  0.00  0.00    -0.299 NA
ATOM      6  N   UNL     1      11.563   4.716   0.804  0.00  0.00    -0.327 N 
ATOM     19  C   UNL     1      10.468   5.486   2.873  0.00  0.00    +0.103 C 
ATOM     20  C   UNL     1      12.801   5.956   2.535  0.00  0.00    +0.103 C 
ATOM     21  C   UNL     1      10.474   4.445   1.751  0.00  0.00    +0.120 C 
ATOM     22  C   UNL     1      12.885   4.932   1.400  0.00  0.00    +0.120 C 
BRANCH   6  24
ATOM     24  C   UNL     1      11.463   4.179  -0.485  0.00  0.00    +0.030 A 
ATOM     25  C   UNL     1      12.314   3.145  -0.878  0.00  0.00    +0.023 A 
ATOM     26  C   UNL     1      10.510   4.674  -1.374  0.00  0.00    +0.023 A 
ATOM     27  C   UNL     1      12.211   2.608  -2.161  0.00  0.00    +0.002 A 
ATOM     28  C   UNL     1      10.407   4.136  -2.658  0.00  0.00    +0.002 A 
ATOM     29  C   UNL     1      11.258   3.103  -3.050  0.00  0.00    +0.000 A 
ENDBRANCH   6  24
ENDBRANCH  18   5
ENDBRANCH  15  18
ENDBRANCH   7  15
BRANCH   8  17
ATOM     17  C   UNL     1       9.686   5.111   8.407  0.00  0.00    +0.124 C 
BRANCH  17  23
ATOM      3  O   UNL     1      10.445   4.599  10.667  0.00  0.00    -0.251 OA
ATOM     23  C   UNL     1       9.547   4.879   9.887  0.00  0.00    +0.305 C 
BRANCH  23   2
ATOM      2  O   UNL     1       8.248   5.026  10.253  0.00  0.00    -0.481 OA
ATOM     30  H   UNL     1       7.934   4.271  10.796  0.00  0.00    +0.295 HD
ENDBRANCH  23   2
ENDBRANCH  17  23
ENDBRANCH   8  17
TORSDOF 8
ENDMDL
MODEL 3
REMARK VINA RESULT:      -6.1      3.151      6.794
REMARK  Name = 25313090
REMARK  8 active torsions:
REMARK  status: ('A' for Active; 'I' for Inactive)
REMARK    1  A    between atoms: O_2  and  C_23
REMARK    2  A    between atoms: N_5  and  C_18
REMARK    3  A    between atoms: N_6  and  C_24
REMARK    4  A    between atoms: C_7  and  C_15
REMARK    5  A    between atoms: C_8  and  C_17
REMARK    6  A    between atoms: C_9  and  C_16
REMARK    7  A    between atoms: C_15  and  C_18
REMARK    8  A    between atoms: C_17  and  C_23
REMARK                            x       y       z     vdW  Elec       q    Type
REMARK                         _______ _______ _______ _____ _____    ______ ____
ROOT
ATOM      1  O   UNL     1      -1.841 -10.309  14.198  0.00  0.00    -0.275 OA
ATOM      4  N   UNL     1      -3.737 -11.252  15.151  0.00  0.00    -0.301 N 
ATOM      7  C   UNL     1      -6.135 -11.160  15.795  0.00  0.00    +0.011 C 
ATOM      8  C   UNL     1      -5.694 -10.911  17.260  0.00  0.00    +0.006 C 
ATOM     10  C   UNL     1      -5.036 -11.930  15.042  0.00  0.00    +0.111 C 
ATOM     11  C   UNL     1      -4.309 -10.247  17.328  0.00  0.00    +0.023 C 
ATOM     14  C   UNL     1      -3.277 -11.032  16.522  0.00  0.00    +0.108 C 
ATOM     16  C   UNL     1      -2.941 -10.853  14.079  0.00  0.00    +0.219 C 
ENDROOT
BRANCH  16   9
ATOM      9  C   UNL     1      -3.488 -11.112  12.698  0.00  0.00    +0.075 C 
ATOM     12  C   UNL     1      -2.894 -12.217  11.873  0.00  0.00    +0.013 C 
ATOM     13  C   UNL     1      -2.641 -10.785  11.503  0.00  0.00    +0.013 C 
ENDBRANCH  16   9
BRANCH   7  15
ATOM     15  C   UNL     1      -6.510  -9.883  15.032  0.00  0.00    +0.020 C 
BRANCH  15  18
ATOM     18  C   UNL     1      -7.879 -10.022  14.382  0.00  0.00    +0.085 C 
BRANCH  18   5
ATOM      5  N   UNL     1      -7.736 -10.048  12.926  0.00  0.00    -0.299 NA
ATOM      6  N   UNL     1      -6.446 -10.618  10.443  0.00  0.00    -0.327 N 
ATOM     19  C   UNL     1      -6.556  -9.280  12.510  0.00  0.00    +0.103 C 
ATOM     20  C   UNL     1      -7.628 -11.430  12.445  0.00  0.00    +0.103 C 
ATOM     21  C   UNL     1      -6.428  -9.253  10.985  0.00  0.00    +0.120 C 
ATOM     22  C   UNL     1      -7.535 -11.475  10.918  0.00  0.00    +0.120 C 
BRANCH   6  24
ATOM     24  C   UNL     1      -5.902 -10.826   9.170  0.00  0.00    +0.030 A 
ATOM     25  C   UNL     1      -6.132  -9.898   8.153  0.00  0.00    +0.023 A 
ATOM     26  C   UNL     1      -5.130 -11.959   8.918  0.00  0.00    +0.023 A 
ATOM     27  C   UNL     1      -5.588 -10.104   6.885  0.00  0.00    +0.002 A 
ATOM     28  C   UNL     1      -4.585 -12.164   7.651  0.00  0.00    +0.002 A 
ATOM     29  C   UNL     1      -4.815 -11.237   6.635  0.00  0.00    +0.000 A 
ENDBRANCH   6  24
ENDBRANCH  18   5
ENDBRANCH  15  18
ENDBRANCH   7  15
BRANCH   8  17
ATOM     17  C   UNL     1      -6.716 -10.111  18.068  0.00  0.00    +0.124 C 
BRANCH  17  23
ATOM      3  O   UNL     1      -6.000 -11.030  20.210  0.00  0.00    -0.251 OA
ATOM     23  C   UNL     1      -6.890 -10.670  19.453  0.00  0.00    +0.305 C 
BRANCH  23   2
ATOM      2  O   UNL     1      -8.211 -10.726  19.761  0.00  0.00    -0.481 OA
ATOM     30  H   UNL     1      -8.385 -11.326  20.518  0.00  0.00    +0.295 HD
ENDBRANCH  23   2
ENDBRANCH  17  23
ENDBRANCH   8  17
TORSDOF 8
ENDMDL
MODEL 4
REMARK VINA RESULT:      -6.0     19.965     22.074
REMARK  Name = 25313090
REMARK  8 active torsions:
REMARK  status: ('A' for Active; 'I' for Inactive)
REMARK    1  A    between atoms: O_2  and  C_23
REMARK    2  A    between atoms: N_5  and  C_18
REMARK    3  A    between atoms: N_6  and  C_24
REMARK    4  A    between atoms: C_7  and  C_15
REMARK    5  A    between atoms: C_8  and  C_17
REMARK    6  A    between atoms: C_9  and  C_16
REMARK    7  A    between atoms: C_15  and  C_18
REMARK    8  A    between atoms: C_17  and  C_23
REMARK                            x       y       z     vdW  Elec       q    Type
REMARK                         _______ _______ _______ _____ _____    ______ ____
ROOT
ATOM      1  O   UNL     1      -9.766   9.308  17.517  0.00  0.00    -0.275 OA
ATOM      4  N   UNL     1     -11.825   8.458  18.177  0.00  0.00    -0.301 N 
ATOM      7  C   UNL     1     -13.735   8.347  19.763  0.00  0.00    +0.011 C 
ATOM      8  C   UNL     1     -13.169   7.005  20.292  0.00  0.00    +0.006 C 
ATOM     10  C   UNL     1     -13.284   8.567  18.307  0.00  0.00    +0.111 C 
ATOM     11  C   UNL     1     -11.647   6.913  20.090  0.00  0.00    +0.023 C 
ATOM     14  C   UNL     1     -11.263   7.189  18.638  0.00  0.00    +0.108 C 
ATOM     16  C   UNL     1     -10.987   9.434  17.639  0.00  0.00    +0.219 C 
ENDROOT
BRANCH  16   9
ATOM      9  C   UNL     1     -11.643  10.715  17.190  0.00  0.00    +0.075 C 
ATOM     12  C   UNL     1     -11.906  10.927  15.727  0.00  0.00    +0.013 C 
ATOM     13  C   UNL     1     -10.835  11.719  16.420  0.00  0.00    +0.013 C 
ENDBRANCH  16   9
BRANCH   7  15
ATOM     15  C   UNL     1     -13.366   9.561  20.624  0.00  0.00    +0.020 C 
BRANCH  15  18
ATOM     18  C   UNL     1     -14.594  10.117  21.332  0.00  0.00    +0.085 C 
BRANCH  18   5
ATOM      5  N   UNL     1     -14.220  10.618  22.654  0.00  0.00    -0.299 NA
ATOM      6  N   UNL     1     -13.170  10.449  25.305  0.00  0.00    -0.327 N 
ATOM     19  C   UNL     1     -14.964   9.909  23.703  0.00  0.00    +0.103 C 
ATOM     20  C   UNL     1     -12.777  10.463  22.874  0.00  0.00    +0.103 C 
ATOM     21  C   UNL     1     -14.623  10.464  25.088  0.00  0.00    +0.120 C 
ATOM     22  C   UNL     1     -12.362  11.035  24.231  0.00  0.00    +0.120 C 
BRANCH   6  24
ATOM     24  C   UNL     1     -12.702  10.483  26.624  0.00  0.00    +0.030 A 
ATOM     25  C   UNL     1     -11.330  10.475  26.878  0.00  0.00    +0.023 A 
ATOM     26  C   UNL     1     -13.607  10.526  27.683  0.00  0.00    +0.023 A 
ATOM     27  C   UNL     1     -10.864  10.512  28.192  0.00  0.00    +0.002 A 
ATOM     28  C   UNL     1     -13.141  10.564  28.998  0.00  0.00    +0.002 A 
ATOM     29  C   UNL     1     -11.770  10.556  29.251  0.00  0.00    +0.000 A 
ENDBRANCH   6  24
ENDBRANCH  18   5
ENDBRANCH  15  18
ENDBRANCH   7  15
BRANCH   8  17
ATOM     17  C   UNL     1     -13.536   6.731  21.751  0.00  0.00    +0.124 C 
BRANCH  17  23
ATOM      3  O   UNL     1     -14.916   4.721  21.750  0.00  0.00    -0.251 OA
ATOM     23  C   UNL     1     -13.853   5.279  21.980  0.00  0.00    +0.305 C 
BRANCH  23   2
ATOM      2  O   UNL     1     -12.766   4.649  22.494  0.00  0.00    -0.481 OA
ATOM     30  H   UNL     1     -12.189   5.265  22.995  0.00  0.00    +0.295 HD
ENDBRANCH  23   2
ENDBRANCH  17  23
ENDBRANCH   8  17
TORSDOF 8
ENDMDL
MODEL 5
REMARK VINA RESULT:      -6.0      2.818      5.524
REMARK  Name = 25313090
REMARK  8 active torsions:
REMARK  status: ('A' for Active; 'I' for Inactive)
REMARK    1  A    between atoms: O_2  and  C_23
REMARK    2  A    between atoms: N_5  and  C_18
REMARK    3  A    between atoms: N_6  and  C_24
REMARK    4  A    between atoms: C_7  and  C_15
REMARK    5  A    between atoms: C_8  and  C_17
REMARK    6  A    between atoms: C_9  and  C_16
REMARK    7  A    between atoms: C_15  and  C_18
REMARK    8  A    between atoms: C_17  and  C_23
REMARK                            x       y       z     vdW  Elec       q    Type
REMARK                         _______ _______ _______ _____ _____    ______ ____
ROOT
ATOM      1  O   UNL     1      -3.659 -16.461  13.012  0.00  0.00    -0.275 OA
ATOM      4  N   UNL     1      -2.384 -14.523  12.914  0.00  0.00    -0.301 N 
ATOM      7  C   UNL     1      -1.964 -12.151  13.525  0.00  0.00    +0.011 C 
ATOM      8  C   UNL     1      -2.441 -11.740  12.109  0.00  0.00    +0.006 C 
ATOM     10  C   UNL     1      -1.411 -13.587  13.495  0.00  0.00    +0.111 C 
ATOM     11  C   UNL     1      -3.417 -12.772  11.519  0.00  0.00    +0.023 C 
ATOM     14  C   UNL     1      -2.829 -14.181  11.564  0.00  0.00    +0.108 C 
ATOM     16  C   UNL     1      -2.862 -15.678  13.532  0.00  0.00    +0.219 C 
ENDROOT
BRANCH  16   9
ATOM      9  C   UNL     1      -2.356 -15.957  14.924  0.00  0.00    +0.075 C 
ATOM     12  C   UNL     1      -1.296 -17.003  15.120  0.00  0.00    +0.013 C 
ATOM     13  C   UNL     1      -2.702 -17.264  15.578  0.00  0.00    +0.013 C 
ENDBRANCH  16   9
BRANCH   7  15
ATOM     15  C   UNL     1      -3.041 -12.017  14.608  0.00  0.00    +0.020 C 
BRANCH  15  18
ATOM     18  C   UNL     1      -2.574 -11.099  15.729  0.00  0.00    +0.085 C 
BRANCH  18   5
ATOM      5  N   UNL     1      -3.730 -10.519  16.410  0.00  0.00    -0.299 NA
ATOM      6  N   UNL     1      -6.428 -10.419  17.342  0.00  0.00    -0.327 N 
ATOM     19  C   UNL     1      -4.835 -10.312  15.465  0.00  0.00    +0.103 C 
ATOM     20  C   UNL     1      -4.170 -11.387  17.508  0.00  0.00    +0.103 C 
ATOM     21  C   UNL     1      -6.032  -9.652  16.154  0.00  0.00    +0.120 C 
ATOM     22  C   UNL     1      -5.344 -10.764  18.267  0.00  0.00    +0.120 C 
BRANCH   6  24
ATOM     24  C   UNL     1      -7.729 -10.249  17.829  0.00  0.00    +0.030 A 
ATOM     25  C   UNL     1      -8.590  -9.337  17.218  0.00  0.00    +0.023 A 
ATOM     26  C   UNL     1      -8.166 -10.993  18.925  0.00  0.00    +0.023 A 
ATOM     27  C   UNL     1      -9.887  -9.170  17.703  0.00  0.00    +0.002 A 
ATOM     28  C   UNL     1      -9.464 -10.827  19.409  0.00  0.00    +0.002 A 
ATOM     29  C   UNL     1     -10.324  -9.915  18.798  0.00  0.00    +0.000 A 
ENDBRANCH   6  24
ENDBRANCH  18   5
ENDBRANCH  15  18
ENDBRANCH   7  15
BRANCH   8  17
ATOM     17  C   UNL     1      -3.047 -10.337  12.061  0.00  0.00    +0.124 C 
BRANCH  17  23
ATOM      3  O   UNL     1      -3.336  -9.368   9.843  0.00  0.00    -0.251 OA
ATOM     23  C   UNL     1      -2.636  -9.597  10.818  0.00  0.00    +0.305 C 
BRANCH  23   2
ATOM      2  O   UNL     1      -1.341  -9.204  10.927  0.00  0.00    -0.481 OA
ATOM     30  H   UNL     1      -0.730  -9.970  10.987  0.00  0.00    +0.295 HD
ENDBRANCH  23   2
ENDBRANCH  17  23
ENDBRANCH   8  17
TORSDOF 8
ENDMDL
MODEL 6
REMARK VINA RESULT:      -5.9      3.113      8.116
REMARK  Name = 25313090
REMARK  8 active torsions:
REMARK  status: ('A' for Active; 'I' for Inactive)
REMARK    1  A    between atoms: O_2  and  C_23
REMARK    2  A    between atoms: N_5  and  C_18
REMARK    3  A    between atoms: N_6  and  C_24
REMARK    4  A    between atoms: C_7  and  C_15
REMARK    5  A    between atoms: C_8  and  C_17
REMARK    6  A    between atoms: C_9  and  C_16
REMARK    7  A    between atoms: C_15  and  C_18
REMARK    8  A    between atoms: C_17  and  C_23
REMARK                            x       y       z     vdW  Elec       q    Type
REMARK                         _______ _______ _______ _____ _____    ______ ____
ROOT
ATOM      1  O   UNL     1      -8.326 -10.961  19.290  0.00  0.00    -0.275 OA
ATOM      4  N   UNL     1      -6.739 -10.078  17.844  0.00  0.00    -0.301 N 
ATOM      7  C   UNL     1      -5.422 -10.151  15.737  0.00  0.00    +0.011 C 
ATOM      8  C   UNL     1      -4.200 -10.631  16.561  0.00  0.00    +0.006 C 
ATOM     10  C   UNL     1      -6.368  -9.332  16.633  0.00  0.00    +0.111 C 
ATOM     11  C   UNL     1      -4.634 -11.361  17.843  0.00  0.00    +0.023 C 
ATOM     14  C   UNL     1      -5.608 -10.516  18.661  0.00  0.00    +0.108 C 
ATOM     16  C   UNL     1      -8.042 -10.354  18.255  0.00  0.00    +0.219 C 
ENDROOT
BRANCH  16   9
ATOM      9  C   UNL     1      -9.151  -9.871  17.356  0.00  0.00    +0.075 C 
ATOM     12  C   UNL     1      -9.698  -8.487  17.551  0.00  0.00    +0.013 C 
ATOM     13  C   UNL     1     -10.526  -9.681  17.929  0.00  0.00    +0.013 C 
ENDBRANCH  16   9
BRANCH   7  15
ATOM     15  C   UNL     1      -6.191 -11.284  15.046  0.00  0.00    +0.020 C 
BRANCH  15  18
ATOM     18  C   UNL     1      -7.259 -10.727  14.116  0.00  0.00    +0.085 C 
BRANCH  18   5
ATOM      5  N   UNL     1      -6.731 -10.632  12.755  0.00  0.00    -0.299 NA
ATOM      6  N   UNL     1      -6.810 -10.032   9.964  0.00  0.00    -0.327 N 
ATOM     19  C   UNL     1      -7.514 -11.469  11.838  0.00  0.00    +0.103 C 
ATOM     20  C   UNL     1      -6.745  -9.239  12.294  0.00  0.00    +0.103 C 
ATOM     21  C   UNL     1      -6.936 -11.422  10.422  0.00  0.00    +0.120 C 
ATOM     22  C   UNL     1      -6.142  -9.116  10.893  0.00  0.00    +0.120 C 
BRANCH   6  24
ATOM     24  C   UNL     1      -6.738  -9.799   8.586  0.00  0.00    +0.030 A 
ATOM     25  C   UNL     1      -5.778 -10.458   7.816  0.00  0.00    +0.023 A 
ATOM     26  C   UNL     1      -7.626  -8.910   7.982  0.00  0.00    +0.023 A 
ATOM     27  C   UNL     1      -5.708 -10.227   6.442  0.00  0.00    +0.002 A 
ATOM     28  C   UNL     1      -7.557  -8.680   6.607  0.00  0.00    +0.002 A 
ATOM     29  C   UNL     1      -6.597  -9.338   5.838  0.00  0.00    +0.000 A 
ENDBRANCH   6  24
ENDBRANCH  18   5
ENDBRANCH  15  18
ENDBRANCH   7  15
BRANCH   8  17
ATOM     17  C   UNL     1      -3.230 -11.491  15.752  0.00  0.00    +0.124 C 
BRANCH  17  23
ATOM      3  O   UNL     1      -1.645 -10.102  14.526  0.00  0.00    -0.251 OA
ATOM     23  C   UNL     1      -1.929 -10.778  15.504  0.00  0.00    +0.305 C 
BRANCH  23   2
ATOM      2  O   UNL     1      -1.085 -10.992  16.545  0.00  0.00    -0.481 OA
ATOM     30  H   UNL     1      -1.509 -10.794  17.407  0.00  0.00    +0.295 HD
ENDBRANCH  23   2
ENDBRANCH  17  23
ENDBRANCH   8  17
TORSDOF 8
ENDMDL
MODEL 7
REMARK VINA RESULT:      -5.8      3.061      6.549
REMARK  Name = 25313090
REMARK  8 active torsions:
REMARK  status: ('A' for Active; 'I' for Inactive)
REMARK    1  A    between atoms: O_2  and  C_23
REMARK    2  A    between atoms: N_5  and  C_18
REMARK    3  A    between atoms: N_6  and  C_24
REMARK    4  A    between atoms: C_7  and  C_15
REMARK    5  A    between atoms: C_8  and  C_17
REMARK    6  A    between atoms: C_9  and  C_16
REMARK    7  A    between atoms: C_15  and  C_18
REMARK    8  A    between atoms: C_17  and  C_23
REMARK                            x       y       z     vdW  Elec       q    Type
REMARK                         _______ _______ _______ _____ _____    ______ ____
ROOT
ATOM      1  O   UNL     1      -2.897 -10.448  16.567  0.00  0.00    -0.275 OA
ATOM      4  N   UNL     1      -4.458 -12.018  17.267  0.00  0.00    -0.301 N 
ATOM      7  C   UNL     1      -6.804 -12.781  17.572  0.00  0.00    +0.011 C 
ATOM      8  C   UNL     1      -6.679 -12.440  19.078  0.00  0.00    +0.006 C 
ATOM     10  C   UNL     1      -5.414 -13.100  16.992  0.00  0.00    +0.111 C 
ATOM     11  C   UNL     1      -5.633 -11.340  19.325  0.00  0.00    +0.023 C 
ATOM     14  C   UNL     1      -4.294 -11.695  18.684  0.00  0.00    +0.108 C 
ATOM     16  C   UNL     1      -3.712 -11.336  16.307  0.00  0.00    +0.219 C 
ENDROOT
BRANCH  16   9
ATOM      9  C   UNL     1      -3.943 -11.726  14.869  0.00  0.00    +0.075 C 
ATOM     12  C   UNL     1      -2.946 -12.618  14.187  0.00  0.00    +0.013 C 
ATOM     13  C   UNL     1      -3.039 -11.169  13.807  0.00  0.00    +0.013 C 
ENDBRANCH  16   9
BRANCH   7  15
ATOM     15  C   UNL     1      -7.491 -11.691  16.741  0.00  0.00    +0.020 C 
BRANCH  15  18
ATOM     18  C   UNL     1      -8.357 -12.304  15.651  0.00  0.00    +0.085 C 
BRANCH  18   5
ATOM      5  N   UNL     1      -8.027 -11.705  14.358  0.00  0.00    -0.299 NA
ATOM      6  N   UNL     1      -6.308 -10.649  12.337  0.00  0.00    -0.327 N 
ATOM     19  C   UNL     1      -7.374 -10.403  14.545  0.00  0.00    +0.103 C 
ATOM     20  C   UNL     1      -7.153 -12.596  13.586  0.00  0.00    +0.103 C 
ATOM     21  C   UNL     1      -7.075  -9.740  13.198  0.00  0.00    +0.120 C 
ATOM     22  C   UNL     1      -6.846 -12.007  12.207  0.00  0.00    +0.120 C 
BRANCH   6  24
ATOM     24  C   UNL     1      -5.570 -10.092  11.286  0.00  0.00    +0.030 A 
ATOM     25  C   UNL     1      -4.758 -10.906  10.495  0.00  0.00    +0.023 A 
ATOM     26  C   UNL     1      -5.647  -8.724  11.029  0.00  0.00    +0.023 A 
ATOM     27  C   UNL     1      -4.025 -10.351   9.446  0.00  0.00    +0.002 A 
ATOM     28  C   UNL     1      -4.914  -8.168   9.979  0.00  0.00    +0.002 A 
ATOM     29  C   UNL     1      -4.103  -8.982   9.189  0.00  0.00    +0.000 A 
ENDBRANCH   6  24
ENDBRANCH  18   5
ENDBRANCH  15  18
ENDBRANCH   7  15
BRANCH   8  17
ATOM     17  C   UNL     1      -8.015 -12.067  19.723  0.00  0.00    +0.124 C 
BRANCH  17  23
ATOM      3  O   UNL     1     -10.005 -13.369  19.187  0.00  0.00    -0.251 OA
ATOM     23  C   UNL     1      -8.948 -13.245  19.786  0.00  0.00    +0.305 C 
BRANCH  23   2
ATOM      2  O   UNL     1      -8.443 -14.184  20.627  0.00  0.00    -0.481 OA
ATOM     30  H   UNL     1      -7.499 -14.375  20.437  0.00  0.00    +0.295 HD
ENDBRANCH  23   2
ENDBRANCH  17  23
ENDBRANCH   8  17
TORSDOF 8
ENDMDL
MODEL 8
REMARK VINA RESULT:      -5.7      1.579      4.731
REMARK  Name = 25313090
REMARK  8 active torsions:
REMARK  status: ('A' for Active; 'I' for Inactive)
REMARK    1  A    between atoms: O_2  and  C_23
REMARK    2  A    between atoms: N_5  and  C_18
REMARK    3  A    between atoms: N_6  and  C_24
REMARK    4  A    between atoms: C_7  and  C_15
REMARK    5  A    between atoms: C_8  and  C_17
REMARK    6  A    between atoms: C_9  and  C_16
REMARK    7  A    between atoms: C_15  and  C_18
REMARK    8  A    between atoms: C_17  and  C_23
REMARK                            x       y       z     vdW  Elec       q    Type
REMARK                         _______ _______ _______ _____ _____    ______ ____
ROOT
ATOM      1  O   UNL     1      -3.984 -12.065  18.715  0.00  0.00    -0.275 OA
ATOM      4  N   UNL     1      -4.281 -10.759  16.818  0.00  0.00    -0.301 N 
ATOM      7  C   UNL     1      -5.152 -10.415  14.516  0.00  0.00    +0.011 C 
ATOM      8  C   UNL     1      -3.711 -10.617  13.981  0.00  0.00    +0.006 C 
ATOM     10  C   UNL     1      -5.104  -9.892  15.963  0.00  0.00    +0.111 C 
ATOM     11  C   UNL     1      -2.871 -11.486  14.931  0.00  0.00    +0.023 C 
ATOM     14  C   UNL     1      -2.905 -10.942  16.357  0.00  0.00    +0.108 C 
ATOM     16  C   UNL     1      -4.704 -11.363  18.001  0.00  0.00    +0.219 C 
ENDROOT
BRANCH  16   9
ATOM      9  C   UNL     1      -6.137 -11.127  18.405  0.00  0.00    +0.075 C 
ATOM     12  C   UNL     1      -6.425 -10.286  19.615  0.00  0.00    +0.013 C 
ATOM     13  C   UNL     1      -6.657 -11.769  19.659  0.00  0.00    +0.013 C 
ENDBRANCH  16   9
BRANCH   7  15
ATOM     15  C   UNL     1      -6.029 -11.670  14.432  0.00  0.00    +0.020 C 
BRANCH  15  18
ATOM     18  C   UNL     1      -7.272 -11.409  13.595  0.00  0.00    +0.085 C 
BRANCH  18   5
ATOM      5  N   UNL     1      -8.450 -11.347  14.461  0.00  0.00    -0.299 NA
ATOM      6  N   UNL     1      -9.932 -10.647  16.800  0.00  0.00    -0.327 N 
ATOM     19  C   UNL     1      -8.188 -12.026  15.736  0.00  0.00    +0.103 C 
ATOM     20  C   UNL     1      -8.834  -9.952  14.708  0.00  0.00    +0.103 C 
ATOM     21  C   UNL     1      -9.431 -12.017  16.628  0.00  0.00    +0.120 C 
ATOM     22  C   UNL     1     -10.099  -9.873  15.566  0.00  0.00    +0.120 C 
BRANCH   6  24
ATOM     24  C   UNL     1     -10.751 -10.380  17.903  0.00  0.00    +0.030 A 
ATOM     25  C   UNL     1     -12.094 -10.055  17.712  0.00  0.00    +0.023 A 
ATOM     26  C   UNL     1     -10.225 -10.442  19.193  0.00  0.00    +0.023 A 
ATOM     27  C   UNL     1     -12.911  -9.792  18.812  0.00  0.00    +0.002 A 
ATOM     28  C   UNL     1     -11.042 -10.180  20.293  0.00  0.00    +0.002 A 
ATOM     29  C   UNL     1     -12.384  -9.854  20.102  0.00  0.00    +0.000 A 
ENDBRANCH   6  24
ENDBRANCH  18   5
ENDBRANCH  15  18
ENDBRANCH   7  15
BRANCH   8  17
ATOM     17  C   UNL     1      -3.671 -11.177  12.559  0.00  0.00    +0.124 C 
BRANCH  17  23
ATOM      3  O   UNL     1      -2.231  -9.835  11.121  0.00  0.00    -0.251 OA
ATOM     23  C   UNL     1      -3.341 -10.111  11.551  0.00  0.00    +0.305 C 
BRANCH  23   2
ATOM      2  O   UNL     1      -4.478  -9.475  11.170  0.00  0.00    -0.481 OA
ATOM     30  H   UNL     1      -5.275  -9.870  11.585  0.00  0.00    +0.295 HD
ENDBRANCH  23   2
ENDBRANCH  17  23
ENDBRANCH   8  17
TORSDOF 8
ENDMDL
MODEL 9
REMARK VINA RESULT:      -5.6      3.636      8.691
REMARK  Name = 25313090
REMARK  8 active torsions:
REMARK  status: ('A' for Active; 'I' for Inactive)
REMARK    1  A    between atoms: O_2  and  C_23
REMARK    2  A    between atoms: N_5  and  C_18
REMARK    3  A    between atoms: N_6  and  C_24
REMARK    4  A    between atoms: C_7  and  C_15
REMARK    5  A    between atoms: C_8  and  C_17
REMARK    6  A    between atoms: C_9  and  C_16
REMARK    7  A    between atoms: C_15  and  C_18
REMARK    8  A    between atoms: C_17  and  C_23
REMARK                            x       y       z     vdW  Elec       q    Type
REMARK                         _______ _______ _______ _____ _____    ______ ____
ROOT
ATOM      1  O   UNL     1     -12.200  -9.906  16.163  0.00  0.00    -0.275 OA
ATOM      4  N   UNL     1     -11.550 -10.271  18.363  0.00  0.00    -0.301 N 
ATOM      7  C   UNL     1     -10.095 -11.357  20.060  0.00  0.00    +0.011 C 
ATOM      8  C   UNL     1     -11.265 -12.317  20.394  0.00  0.00    +0.006 C 
ATOM     10  C   UNL     1     -10.647 -10.035  19.498  0.00  0.00    +0.111 C 
ATOM     11  C   UNL     1     -12.211 -12.495  19.195  0.00  0.00    +0.023 C 
ATOM     14  C   UNL     1     -12.684 -11.147  18.656  0.00  0.00    +0.108 C 
ATOM     16  C   UNL     1     -11.413  -9.713  17.093  0.00  0.00    +0.219 C 
ENDROOT
BRANCH  16   9
ATOM      9  C   UNL     1     -10.215  -8.824  16.871  0.00  0.00    +0.075 C 
ATOM     12  C   UNL     1     -10.404  -7.334  16.863  0.00  0.00    +0.013 C 
ATOM     13  C   UNL     1     -10.102  -8.059  15.583  0.00  0.00    +0.013 C 
ENDBRANCH  16   9
BRANCH   7  15
ATOM     15  C   UNL     1      -9.057 -11.952  19.099  0.00  0.00    +0.020 C 
BRANCH  15  18
ATOM     18  C   UNL     1      -7.694 -12.053  19.768  0.00  0.00    +0.085 C 
BRANCH  18   5
ATOM      5  N   UNL     1      -6.651 -12.190  18.752  0.00  0.00    -0.299 NA
ATOM      6  N   UNL     1      -4.687 -11.274  16.892  0.00  0.00    -0.327 N 
ATOM     19  C   UNL     1      -7.061 -11.536  17.502  0.00  0.00    +0.103 C 
ATOM     20  C   UNL     1      -5.390 -11.611  19.228  0.00  0.00    +0.103 C 
ATOM     21  C   UNL     1      -6.001 -11.722  16.413  0.00  0.00    +0.120 C 
ATOM     22  C   UNL     1      -4.274 -11.798  18.197  0.00  0.00    +0.120 C 
BRANCH   6  24
ATOM     24  C   UNL     1      -3.718 -10.944  15.938  0.00  0.00    +0.030 A 
ATOM     25  C   UNL     1      -2.415 -10.645  16.340  0.00  0.00    +0.023 A 
ATOM     26  C   UNL     1      -4.053 -10.916  14.585  0.00  0.00    +0.023 A 
ATOM     27  C   UNL     1      -1.449 -10.319  15.389  0.00  0.00    +0.002 A 
ATOM     28  C   UNL     1      -3.086 -10.592  13.632  0.00  0.00    +0.002 A 
ATOM     29  C   UNL     1      -1.785 -10.293  14.035  0.00  0.00    +0.000 A 
ENDBRANCH   6  24
ENDBRANCH  18   5
ENDBRANCH  15  18
ENDBRANCH   7  15
BRANCH   8  17
ATOM     17  C   UNL     1     -10.798 -13.675  20.918  0.00  0.00    +0.124 C 
BRANCH  17  23
ATOM      3  O   UNL     1     -11.685 -15.266  22.539  0.00  0.00    -0.251 OA
ATOM     23  C   UNL     1     -11.623 -14.131  22.090  0.00  0.00    +0.305 C 
BRANCH  23   2
ATOM      2  O   UNL     1     -12.315 -13.080  22.599  0.00  0.00    -0.481 OA
ATOM     30  H   UNL     1     -12.050 -12.882  23.524  0.00  0.00    +0.295 HD
ENDBRANCH  23   2
ENDBRANCH  17  23
ENDBRANCH   8  17
TORSDOF 8
ENDMDL
MODEL 10
REMARK VINA RESULT:      -5.6     21.202     23.260
REMARK  Name = 25313090
REMARK  8 active torsions:
REMARK  status: ('A' for Active; 'I' for Inactive)
REMARK    1  A    between atoms: O_2  and  C_23
REMARK    2  A    between atoms: N_5  and  C_18
REMARK    3  A    between atoms: N_6  and  C_24
REMARK    4  A    between atoms: C_7  and  C_15
REMARK    5  A    between atoms: C_8  and  C_17
REMARK    6  A    between atoms: C_9  and  C_16
REMARK    7  A    between atoms: C_15  and  C_18
REMARK    8  A    between atoms: C_17  and  C_23
REMARK                            x       y       z     vdW  Elec       q    Type
REMARK                         _______ _______ _______ _____ _____    ______ ____
ROOT
ATOM      1  O   UNL     1      -9.769   9.572  18.162  0.00  0.00    -0.275 OA
ATOM      4  N   UNL     1     -11.898   9.068  18.941  0.00  0.00    -0.301 N 
ATOM      7  C   UNL     1     -13.571   8.893  20.771  0.00  0.00    +0.011 C 
ATOM      8  C   UNL     1     -13.362   7.358  20.764  0.00  0.00    +0.006 C 
ATOM     10  C   UNL     1     -13.240   9.472  19.383  0.00  0.00    +0.111 C 
ATOM     11  C   UNL     1     -11.964   6.979  20.247  0.00  0.00    +0.023 C 
ATOM     14  C   UNL     1     -11.680   7.623  18.892  0.00  0.00    +0.108 C 
ATOM     16  C   UNL     1     -10.879   9.938  18.554  0.00  0.00    +0.219 C 
ENDROOT
BRANCH  16   9
ATOM      9  C   UNL     1     -11.183  11.412  18.636  0.00  0.00    +0.075 C 
ATOM     12  C   UNL     1     -11.745  12.110  17.432  0.00  0.00    +0.013 C 
ATOM     13  C   UNL     1     -10.332  12.377  17.861  0.00  0.00    +0.013 C 
ENDBRANCH  16   9
BRANCH   7  15
ATOM     15  C   UNL     1     -12.773   9.626  21.857  0.00  0.00    +0.020 C 
BRANCH  15  18
ATOM     18  C   UNL     1     -13.612  10.719  22.503  0.00  0.00    +0.085 C 
BRANCH  18   5
ATOM      5  N   UNL     1     -12.846  11.371  23.564  0.00  0.00    -0.299 NA
ATOM      6  N   UNL     1     -12.327  12.285  26.220  0.00  0.00    -0.327 N 
ATOM     19  C   UNL     1     -13.595  12.506  24.118  0.00  0.00    +0.103 C 
ATOM     20  C   UNL     1     -12.529  10.414  24.631  0.00  0.00    +0.103 C 
ATOM     21  C   UNL     1     -12.780  13.231  25.191  0.00  0.00    +0.120 C 
ATOM     22  C   UNL     1     -11.678  11.069  25.722  0.00  0.00    +0.120 C 
BRANCH   6  24
ATOM     24  C   UNL     1     -11.974  12.798  27.473  0.00  0.00    +0.030 A 
ATOM     25  C   UNL     1     -11.976  14.177  27.690  0.00  0.00    +0.023 A 
ATOM     26  C   UNL     1     -11.622  11.931  28.507  0.00  0.00    +0.023 A 
ATOM     27  C   UNL     1     -11.627  14.686  28.940  0.00  0.00    +0.002 A 
ATOM     28  C   UNL     1     -11.274  12.441  29.758  0.00  0.00    +0.002 A 
ATOM     29  C   UNL     1     -11.276  13.818  29.974  0.00  0.00    +0.000 A 
ENDBRANCH   6  24
ENDBRANCH  18   5
ENDBRANCH  15  18
ENDBRANCH   7  15
BRANCH   8  17
ATOM     17  C   UNL     1     -13.628   6.709  22.123  0.00  0.00    +0.124 C 
BRANCH  17  23
ATOM      3  O   UNL     1     -14.724   4.600  21.580  0.00  0.00    -0.251 OA
ATOM     23  C   UNL     1     -13.759   5.215  22.009  0.00  0.00    +0.305 C 
BRANCH  23   2
ATOM      2  O   UNL     1     -12.625   4.621  22.461  0.00  0.00    -0.481 OA
ATOM     30  H   UNL     1     -12.672   4.428  23.422  0.00  0.00    +0.295 HD
ENDBRANCH  23   2
ENDBRANCH  17  23
ENDBRANCH   8  17
TORSDOF 8
ENDMDL
