REMARK  Name = 11912436
REMARK  7 active torsions:
REMARK  status: ('A' for Active; 'I' for Inactive)
REMARK    1  A    between atoms: O_6  and  C_29
REMARK    2  A    between atoms: O_7  and  C_32
REMARK    3  A    between atoms: O_7  and  C_33
REMARK    4  A    between atoms: N_8  and  C_17
REMARK    5  A    between atoms: C_17  and  C_22
REMARK    6  A    between atoms: C_20  and  C_23
REMARK    7  A    between atoms: C_25  and  C_29
REMARK                            x       y       z     vdW  Elec       q    Type
REMARK                         _______ _______ _______ _____ _____    ______ ____
ROOT
ATOM      4  O   UNL     1      -0.804  -2.080   1.253  0.00  0.00    -0.267 OA
ATOM      8  N   UNL     1       3.964  -0.566   0.905  0.00  0.00    -0.294 NA
ATOM      9  N   UNL     1       1.222  -1.984   0.103  0.00  0.00    -0.311 N 
ATOM     10  C   UNL     1       3.386  -3.003   1.023  0.00  0.00    +0.024 C 
ATOM     11  C   UNL     1       3.403  -1.873  -1.149  0.00  0.00    +0.050 C 
ATOM     12  C   UNL     1       3.752  -3.181  -0.445  0.00  0.00    +0.017 C 
ATOM     13  C   UNL     1       4.180  -1.826   1.627  0.00  0.00    +0.090 C 
ATOM     14  C   UNL     1       4.227  -0.719  -0.534  0.00  0.00    +0.094 C 
ATOM     15  C   UNL     1       1.868  -2.809   1.134  0.00  0.00    +0.130 C 
ATOM     16  C   UNL     1       1.918  -1.581  -1.040  0.00  0.00    +0.026 A 
ATOM     18  C   UNL     1       1.279  -0.925  -2.021  0.00  0.00    +0.022 A 
ATOM     19  C   UNL     1      -0.150  -1.713   0.276  0.00  0.00    +0.259 A 
ATOM     20  C   UNL     1      -0.831  -0.946  -0.826  0.00  0.00    +0.047 A 
ATOM     21  C   UNL     1      -0.115  -0.600  -1.906  0.00  0.00    +0.015 A 
ENDROOT
BRANCH  20  23
ATOM     23  C   UNL     1      -2.252  -0.569  -0.728  0.00  0.00    -0.012 A 
ATOM     27  C   UNL     1      -3.238  -1.425  -1.220  0.00  0.00    +0.012 A 
ATOM     28  C   UNL     1      -2.613   0.646  -0.143  0.00  0.00    +0.012 A 
ATOM     30  C   UNL     1      -4.583  -1.068  -1.127  0.00  0.00    +0.046 A 
ATOM     31  C   UNL     1      -3.958   1.003  -0.050  0.00  0.00    +0.046 A 
ATOM     32  C   UNL     1      -4.943   0.146  -0.542  0.00  0.00    +0.130 A 
BRANCH  32   7
ATOM      7  O   UNL     1      -6.256   0.494  -0.451  0.00  0.00    -0.406 OA
BRANCH   7  33
ATOM      1  F   UNL     1      -8.112   0.369   0.827  0.00  0.00    -0.133 F 
ATOM      2  F   UNL     1      -6.184  -0.037   1.772  0.00  0.00    -0.133 F 
ATOM      3  F   UNL     1      -6.728   2.022   1.184  0.00  0.00    -0.133 F 
ATOM     33  C   UNL     1      -6.806   0.719   0.842  0.00  0.00    +0.575 C 
ENDBRANCH   7  33
ENDBRANCH  32   7
ENDBRANCH  20  23
BRANCH   8  17
ATOM     17  C   UNL     1       4.772   0.509   1.474  0.00  0.00    +0.158 C 
BRANCH  17  22
ATOM      5  O   UNL     1       3.163   2.084   0.633  0.00  0.00    -0.461 OA
ATOM     22  C   UNL     1       4.470   1.824   0.807  0.00  0.00    +0.119 A 
ATOM     24  C   UNL     1       5.271   2.809   0.342  0.00  0.00    +0.046 A 
ATOM     25  C   UNL     1       3.117   3.298   0.025  0.00  0.00    +0.131 A 
ATOM     26  C   UNL     1       4.387   3.787  -0.175  0.00  0.00    +0.047 A 
BRANCH  25  29
ATOM     29  C   UNL     1       1.778   3.821  -0.282  0.00  0.00    +0.230 C 
BRANCH  29   6
ATOM      6  O   UNL     1       1.416   3.372  -1.589  0.00  0.00    -0.387 OA
ATOM     34  H   UNL     1       0.526   3.721  -1.771  0.00  0.00    +0.210 HD
ENDBRANCH  29   6
ENDBRANCH  25  29
ENDBRANCH  17  22
ENDBRANCH   8  17
TORSDOF 7
