MODEL 1
REMARK VINA RESULT:      15.0      0.000      0.000
REMARK  Name = 11885154
REMARK  2 active torsions:
REMARK  status: ('A' for Active; 'I' for Inactive)
REMARK    1  A    between atoms: N_6  and  C_21
REMARK    2  A    between atoms: C_17  and  C_19
REMARK                            x       y       z     vdW  Elec       q    Type
REMARK                         _______ _______ _______ _____ _____    ______ ____
ROOT
ATOM      2  O   UNL     1       0.629   1.482  26.115  0.00  0.00    -0.267 OA
ATOM      3  O   UNL     1      -4.204   1.762  22.934  0.00  0.00    -0.252 OA
ATOM      4  N   UNL     1      -0.799   3.160  25.352  0.00  0.00    -0.311 N 
ATOM      5  N   UNL     1      -3.947   3.085  24.815  0.00  0.00    -0.284 N 
ATOM      6  N   UNL     1      -4.543   0.812  25.022  0.00  0.00    -0.269 N 
ATOM      7  C   UNL     1      -2.725   4.078  26.765  0.00  0.00    +0.027 C 
ATOM      8  C   UNL     1      -2.341   4.963  24.505  0.00  0.00    +0.054 C 
ATOM      9  C   UNL     1      -2.521   5.360  25.969  0.00  0.00    +0.018 C 
ATOM     10  C   UNL     1      -1.449   3.231  26.667  0.00  0.00    +0.130 C 
ATOM     11  C   UNL     1      -3.965   3.308  26.269  0.00  0.00    +0.114 C 
ATOM     12  C   UNL     1      -3.622   4.270  24.010  0.00  0.00    +0.119 C 
ATOM     13  C   UNL     1      -1.152   4.038  24.325  0.00  0.00    +0.027 A 
ATOM     14  C   UNL     1      -0.464   4.038  23.172  0.00  0.00    +0.022 A 
ATOM     15  C   UNL     1       0.264   2.244  25.219  0.00  0.00    +0.259 A 
ATOM     16  C   UNL     1      -4.225   1.864  24.163  0.00  0.00    +0.306 C 
ATOM     17  C   UNL     1       0.990   2.239  23.901  0.00  0.00    +0.047 A 
ATOM     18  C   UNL     1       0.619   3.119  22.959  0.00  0.00    +0.015 A 
ATOM     35  H   UNL     1      -4.964   1.035  25.917  0.00  0.00    +0.156 HD
ENDROOT
BRANCH  17  19
ATOM     19  C   UNL     1       2.081   1.286  23.635  0.00  0.00    -0.012 A 
ATOM     20  C   UNL     1       3.406   1.655  23.871  0.00  0.00    +0.017 A 
ATOM     22  C   UNL     1       1.791   0.014  23.148  0.00  0.00    +0.009 A 
ATOM     23  C   UNL     1       4.457   0.757  23.622  0.00  0.00    -0.017 A 
ATOM     24  C   UNL     1       2.821  -0.891  22.895  0.00  0.00    +0.009 A 
ATOM     25  C   UNL     1       4.161  -0.535  23.127  0.00  0.00    -0.018 A 
ATOM     28  C   UNL     1       5.795   1.114  23.854  0.00  0.00    +0.008 A 
ATOM     29  C   UNL     1       5.211  -1.433  22.878  0.00  0.00    +0.008 A 
ATOM     32  C   UNL     1       6.827   0.208  23.601  0.00  0.00    +0.001 A 
ATOM     33  C   UNL     1       6.535  -1.062  23.115  0.00  0.00    +0.001 A 
ENDBRANCH  17  19
BRANCH   6  21
ATOM      1  F   UNL     1      -2.759  -3.473  26.240  0.00  0.00    -0.205 F 
ATOM     21  C   UNL     1      -4.387  -0.574  24.773  0.00  0.00    +0.037 A 
ATOM     26  C   UNL     1      -3.636  -1.354  25.647  0.00  0.00    +0.061 A 
ATOM     27  C   UNL     1      -4.986  -1.147  23.655  0.00  0.00    +0.023 A 
ATOM     30  C   UNL     1      -3.482  -2.718  25.402  0.00  0.00    +0.125 A 
ATOM     31  C   UNL     1      -4.833  -2.511  23.408  0.00  0.00    +0.005 A 
ATOM     34  C   UNL     1      -4.081  -3.297  24.282  0.00  0.00    +0.038 A 
ENDBRANCH   6  21
TORSDOF 2
ENDMDL
MODEL 2
REMARK VINA RESULT:      18.1      2.340      5.114
REMARK  Name = 11885154
REMARK  2 active torsions:
REMARK  status: ('A' for Active; 'I' for Inactive)
REMARK    1  A    between atoms: N_6  and  C_21
REMARK    2  A    between atoms: C_17  and  C_19
REMARK                            x       y       z     vdW  Elec       q    Type
REMARK                         _______ _______ _______ _____ _____    ______ ____
ROOT
ATOM      2  O   UNL     1      -0.508  -0.237  22.072  0.00  0.00    -0.267 OA
ATOM      3  O   UNL     1      -3.336   1.841  26.681  0.00  0.00    -0.252 OA
ATOM      4  N   UNL     1      -1.982  -1.076  23.673  0.00  0.00    -0.311 N 
ATOM      5  N   UNL     1      -4.370   0.374  25.220  0.00  0.00    -0.284 N 
ATOM      6  N   UNL     1      -4.151   2.657  24.669  0.00  0.00    -0.269 N 
ATOM      7  C   UNL     1      -4.507  -1.211  23.284  0.00  0.00    +0.027 C 
ATOM      8  C   UNL     1      -3.560  -1.973  25.419  0.00  0.00    +0.054 C 
ATOM      9  C   UNL     1      -4.459  -2.383  24.256  0.00  0.00    +0.018 C 
ATOM     10  C   UNL     1      -3.098  -0.981  22.724  0.00  0.00    +0.130 C 
ATOM     11  C   UNL     1      -5.068   0.052  23.966  0.00  0.00    +0.114 C 
ATOM     12  C   UNL     1      -4.183  -0.761  26.134  0.00  0.00    +0.119 C 
ATOM     13  C   UNL     1      -2.161  -1.627  24.943  0.00  0.00    +0.027 A 
ATOM     14  C   UNL     1      -1.106  -1.818  25.751  0.00  0.00    +0.022 A 
ATOM     15  C   UNL     1      -0.712  -0.690  23.199  0.00  0.00    +0.259 A 
ATOM     16  C   UNL     1      -3.900   1.650  25.601  0.00  0.00    +0.306 C 
ATOM     17  C   UNL     1       0.446  -0.878  24.142  0.00  0.00    +0.047 A 
ATOM     18  C   UNL     1       0.215  -1.430  25.343  0.00  0.00    +0.015 A 
ATOM     35  H   UNL     1      -4.955   2.556  24.059  0.00  0.00    +0.156 HD
ENDROOT
BRANCH  17  19
ATOM     19  C   UNL     1       1.808  -0.458  23.771  0.00  0.00    -0.012 A 
ATOM     20  C   UNL     1       2.898  -1.280  24.063  0.00  0.00    +0.017 A 
ATOM     22  C   UNL     1       2.010   0.760  23.126  0.00  0.00    +0.009 A 
ATOM     23  C   UNL     1       4.202  -0.893  23.715  0.00  0.00    -0.017 A 
ATOM     24  C   UNL     1       3.298   1.160  22.772  0.00  0.00    +0.009 A 
ATOM     25  C   UNL     1       4.406   0.344  23.060  0.00  0.00    -0.018 A 
ATOM     28  C   UNL     1       5.309  -1.708  24.002  0.00  0.00    +0.008 A 
ATOM     29  C   UNL     1       5.711   0.731  22.712  0.00  0.00    +0.008 A 
ATOM     32  C   UNL     1       6.598  -1.308  23.649  0.00  0.00    +0.001 A 
ATOM     33  C   UNL     1       6.799  -0.092  23.005  0.00  0.00    +0.001 A 
ENDBRANCH  17  19
BRANCH   6  21
ATOM      1  F   UNL     1      -0.166   5.258  25.285  0.00  0.00    -0.205 F 
ATOM     21  C   UNL     1      -3.427   3.862  24.495  0.00  0.00    +0.037 A 
ATOM     26  C   UNL     1      -2.129   3.966  24.985  0.00  0.00    +0.061 A 
ATOM     27  C   UNL     1      -4.019   4.934  23.835  0.00  0.00    +0.023 A 
ATOM     30  C   UNL     1      -1.416   5.152  24.814  0.00  0.00    +0.125 A 
ATOM     31  C   UNL     1      -3.307   6.122  23.663  0.00  0.00    +0.005 A 
ATOM     34  C   UNL     1      -2.005   6.231  24.153  0.00  0.00    +0.038 A 
ENDBRANCH   6  21
TORSDOF 2
ENDMDL
