MODEL 1
REMARK VINA RESULT:       2.9      0.000      0.000
REMARK  Name = 11865857
REMARK  14 active torsions:
REMARK  status: ('A' for Active; 'I' for Inactive)
REMARK    1  A    between atoms: N_6  and  C_12
REMARK    2  A    between atoms: N_7  and  C_19
REMARK    3  A    between atoms: N_8  and  C_27
REMARK    4  A    between atoms: C_11  and  C_16
REMARK    5  A    between atoms: C_15  and  C_17
REMARK    6  A    between atoms: C_17  and  C_18
REMARK    7  A    between atoms: C_18  and  C_20
REMARK    8  A    between atoms: C_18  and  C_21
REMARK    9  A    between atoms: C_18  and  C_22
REMARK   10  A    between atoms: C_19  and  C_24
REMARK   11  A    between atoms: C_19  and  C_26
REMARK   12  A    between atoms: C_24  and  C_25
REMARK   13  A    between atoms: C_27  and  C_31
REMARK   14  A    between atoms: C_27  and  C_32
REMARK                            x       y       z     vdW  Elec       q    Type
REMARK                         _______ _______ _______ _____ _____    ______ ____
ROOT
ATOM      1  O   UNL     1      -1.978  -0.399  26.804  0.00  0.00    -0.276 OA
ATOM      5  N   UNL     1      -1.476   0.544  24.750  0.00  0.00    -0.288 N 
ATOM     11  C   UNL     1      -0.193   1.119  25.141  0.00  0.00    +0.182 C 
ATOM     12  C   UNL     1       0.490   1.491  23.825  0.00  0.00    +0.105 C 
ATOM     13  C   UNL     1      -0.682   1.751  22.875  0.00  0.00    +0.043 C 
ATOM     14  C   UNL     1      -1.746   0.761  23.332  0.00  0.00    +0.110 C 
ATOM     15  C   UNL     1      -2.235  -0.237  25.610  0.00  0.00    +0.217 C 
ENDROOT
BRANCH  12   6
ATOM      3  O   UNL     1       3.372   1.353  23.899  0.00  0.00    -0.253 OA
ATOM      6  N   UNL     1       1.322   0.410  23.350  0.00  0.00    -0.294 N 
ATOM      8  N   UNL     1       3.262  -0.738  22.897  0.00  0.00    -0.297 N 
ATOM     23  C   UNL     1       2.712   0.428  23.426  0.00  0.00    +0.300 C 
ATOM     37  H   UNL     1       0.877  -0.371  22.878  0.00  0.00    +0.151 HD
ATOM     39  H   UNL     1       2.639  -1.412  22.464  0.00  0.00    +0.150 HD
BRANCH   8  27
ATOM     27  C   UNL     1       4.684  -0.980  22.850  0.00  0.00    +0.068 C 
ATOM     31  C   UNL     1       5.456   0.319  23.044  0.00  0.00    +0.027 C 
ATOM     32  C   UNL     1       5.080  -2.019  23.892  0.00  0.00    +0.027 C 
ENDBRANCH   8  27
ENDBRANCH  12   6
BRANCH  11  16
ATOM      2  O   UNL     1      -0.311   2.363  27.176  0.00  0.00    -0.274 OA
ATOM      7  N   UNL     1      -1.031   3.362  25.200  0.00  0.00    -0.302 N 
ATOM     16  C   UNL     1      -0.502   2.335  25.962  0.00  0.00    +0.236 C 
ATOM     38  H   UNL     1      -1.050   3.261  24.190  0.00  0.00    +0.150 HD
BRANCH   7  19
ATOM     19  C   UNL     1      -1.434   4.633  25.757  0.00  0.00    +0.163 C 
BRANCH  19  26
ATOM      4  O   UNL     1      -1.542   6.833  24.731  0.00  0.00    -0.274 OA
ATOM     10  N   UNL     1      -0.068   5.294  23.875  0.00  0.00    -0.328 N 
ATOM     26  C   UNL     1      -1.055   5.706  24.745  0.00  0.00    +0.231 C 
ATOM     41  H   UNL     1       0.287   5.918  23.159  0.00  0.00    +0.145 HD
ATOM     42  H   UNL     1       0.341   4.366  23.913  0.00  0.00    +0.145 HD
ENDBRANCH  19  26
BRANCH  19  24
ATOM     24  C   UNL     1      -2.937   4.686  26.056  0.00  0.00    +0.069 C 
BRANCH  24  25
ATOM      9  N   UNL     1      -4.527   2.798  23.333  0.00  0.00    -0.360 N 
ATOM     25  C   UNL     1      -3.750   3.803  25.152  0.00  0.00    -0.020 A 
ATOM     28  C   UNL     1      -4.804   2.932  25.543  0.00  0.00    +0.003 A 
ATOM     29  C   UNL     1      -3.604   3.700  23.788  0.00  0.00    +0.087 A 
ATOM     30  C   UNL     1      -5.275   2.312  24.382  0.00  0.00    +0.047 A 
ATOM     33  C   UNL     1      -5.405   2.608  26.775  0.00  0.00    +0.010 A 
ATOM     34  C   UNL     1      -6.320   1.383  24.394  0.00  0.00    +0.026 A 
ATOM     35  C   UNL     1      -6.453   1.680  26.802  0.00  0.00    +0.001 A 
ATOM     36  C   UNL     1      -6.901   1.078  25.628  0.00  0.00    +0.002 A 
ATOM     40  H   UNL     1      -4.645   2.526  22.366  0.00  0.00    +0.165 HD
ENDBRANCH  24  25
ENDBRANCH  19  24
ENDBRANCH   7  19
ENDBRANCH  11  16
BRANCH  15  17
ATOM     17  C   UNL     1      -3.441  -0.899  24.993  0.00  0.00    +0.102 C 
BRANCH  17  18
ATOM     18  C   UNL     1      -3.177  -2.359  24.583  0.00  0.00    -0.029 C 
ATOM     20  C   UNL     1      -3.338  -3.239  25.837  0.00  0.00    +0.011 C 
ATOM     21  C   UNL     1      -4.187  -2.829  23.522  0.00  0.00    +0.011 C 
ATOM     22  C   UNL     1      -1.748  -2.534  24.041  0.00  0.00    +0.011 C 
ENDBRANCH  17  18
ENDBRANCH  15  17
TORSDOF 9
ENDMDL
MODEL 2
REMARK VINA RESULT:       3.2      2.106      3.878
REMARK  Name = 11865857
REMARK  14 active torsions:
REMARK  status: ('A' for Active; 'I' for Inactive)
REMARK    1  A    between atoms: N_6  and  C_12
REMARK    2  A    between atoms: N_7  and  C_19
REMARK    3  A    between atoms: N_8  and  C_27
REMARK    4  A    between atoms: C_11  and  C_16
REMARK    5  A    between atoms: C_15  and  C_17
REMARK    6  A    between atoms: C_17  and  C_18
REMARK    7  A    between atoms: C_18  and  C_20
REMARK    8  A    between atoms: C_18  and  C_21
REMARK    9  A    between atoms: C_18  and  C_22
REMARK   10  A    between atoms: C_19  and  C_24
REMARK   11  A    between atoms: C_19  and  C_26
REMARK   12  A    between atoms: C_24  and  C_25
REMARK   13  A    between atoms: C_27  and  C_31
REMARK   14  A    between atoms: C_27  and  C_32
REMARK                            x       y       z     vdW  Elec       q    Type
REMARK                         _______ _______ _______ _____ _____    ______ ____
ROOT
ATOM      1  O   UNL     1       1.037   3.380  26.749  0.00  0.00    -0.276 OA
ATOM      5  N   UNL     1      -0.028   1.454  26.032  0.00  0.00    -0.288 N 
ATOM     11  C   UNL     1       0.081   1.726  24.603  0.00  0.00    +0.182 C 
ATOM     12  C   UNL     1      -0.245   0.397  23.921  0.00  0.00    +0.105 C 
ATOM     13  C   UNL     1      -1.167  -0.302  24.925  0.00  0.00    +0.043 C 
ATOM     14  C   UNL     1      -0.636   0.149  26.280  0.00  0.00    +0.110 C 
ATOM     15  C   UNL     1       0.531   2.283  26.993  0.00  0.00    +0.217 C 
ENDROOT
BRANCH  12   6
ATOM      3  O   UNL     1       2.403   1.421  23.406  0.00  0.00    -0.253 OA
ATOM      6  N   UNL     1       0.953  -0.372  23.685  0.00  0.00    -0.294 N 
ATOM      8  N   UNL     1       3.177  -0.761  23.249  0.00  0.00    -0.297 N 
ATOM     23  C   UNL     1       2.196   0.209  23.443  0.00  0.00    +0.300 C 
ATOM     37  H   UNL     1       0.876  -1.383  23.625  0.00  0.00    +0.151 HD
ATOM     39  H   UNL     1       2.895  -1.736  23.226  0.00  0.00    +0.150 HD
BRANCH   8  27
ATOM     27  C   UNL     1       4.557  -0.435  22.979  0.00  0.00    +0.068 C 
ATOM     31  C   UNL     1       4.688   1.020  22.545  0.00  0.00    +0.027 C 
ATOM     32  C   UNL     1       5.419  -0.727  24.200  0.00  0.00    +0.027 C 
ENDBRANCH   8  27
ENDBRANCH  12   6
BRANCH  11  16
ATOM      2  O   UNL     1      -1.254   3.051  23.131  0.00  0.00    -0.274 OA
ATOM      7  N   UNL     1      -1.454   3.368  25.429  0.00  0.00    -0.302 N 
ATOM     16  C   UNL     1      -0.946   2.772  24.288  0.00  0.00    +0.236 C 
ATOM     38  H   UNL     1      -1.198   2.987  26.334  0.00  0.00    +0.150 HD
BRANCH   7  19
ATOM     19  C   UNL     1      -2.441   4.423  25.398  0.00  0.00    +0.163 C 
BRANCH  19  26
ATOM      4  O   UNL     1      -2.253   6.805  24.952  0.00  0.00    -0.274 OA
ATOM     10  N   UNL     1      -0.387   5.490  24.698  0.00  0.00    -0.328 N 
ATOM     26  C   UNL     1      -1.720   5.699  24.985  0.00  0.00    +0.231 C 
ATOM     41  H   UNL     1       0.212   6.260  24.423  0.00  0.00    +0.145 HD
ATOM     42  H   UNL     1       0.045   4.574  24.751  0.00  0.00    +0.145 HD
ENDBRANCH  19  26
BRANCH  19  24
ATOM     24  C   UNL     1      -3.588   4.117  24.427  0.00  0.00    +0.069 C 
BRANCH  24  25
ATOM      9  N   UNL     1      -5.977   1.745  25.900  0.00  0.00    -0.360 N 
ATOM     25  C   UNL     1      -4.434   2.955  24.861  0.00  0.00    -0.020 A 
ATOM     28  C   UNL     1      -4.325   1.611  24.407  0.00  0.00    +0.003 A 
ATOM     29  C   UNL     1      -5.458   3.005  25.779  0.00  0.00    +0.087 A 
ATOM     30  C   UNL     1      -5.305   0.872  25.075  0.00  0.00    +0.047 A 
ATOM     33  C   UNL     1      -3.485   0.949  23.489  0.00  0.00    +0.010 A 
ATOM     34  C   UNL     1      -5.487  -0.500  24.868  0.00  0.00    +0.026 A 
ATOM     35  C   UNL     1      -3.655  -0.423  23.273  0.00  0.00    +0.001 A 
ATOM     36  C   UNL     1      -4.642  -1.134  23.954  0.00  0.00    +0.002 A 
ATOM     40  H   UNL     1      -6.744   1.490  26.508  0.00  0.00    +0.165 HD
ENDBRANCH  24  25
ENDBRANCH  19  24
ENDBRANCH   7  19
ENDBRANCH  11  16
BRANCH  15  17
ATOM     17  C   UNL     1       0.482   1.764  28.408  0.00  0.00    +0.102 C 
BRANCH  17  18
ATOM     18  C   UNL     1       1.490   2.466  29.337  0.00  0.00    -0.029 C 
ATOM     20  C   UNL     1       0.702   3.418  30.255  0.00  0.00    +0.011 C 
ATOM     21  C   UNL     1       2.238   1.448  30.214  0.00  0.00    +0.011 C 
ATOM     22  C   UNL     1       2.507   3.291  28.530  0.00  0.00    +0.011 C 
ENDBRANCH  17  18
ENDBRANCH  15  17
TORSDOF 9
ENDMDL
MODEL 3
REMARK VINA RESULT:       3.5      2.384      5.613
REMARK  Name = 11865857
REMARK  14 active torsions:
REMARK  status: ('A' for Active; 'I' for Inactive)
REMARK    1  A    between atoms: N_6  and  C_12
REMARK    2  A    between atoms: N_7  and  C_19
REMARK    3  A    between atoms: N_8  and  C_27
REMARK    4  A    between atoms: C_11  and  C_16
REMARK    5  A    between atoms: C_15  and  C_17
REMARK    6  A    between atoms: C_17  and  C_18
REMARK    7  A    between atoms: C_18  and  C_20
REMARK    8  A    between atoms: C_18  and  C_21
REMARK    9  A    between atoms: C_18  and  C_22
REMARK   10  A    between atoms: C_19  and  C_24
REMARK   11  A    between atoms: C_19  and  C_26
REMARK   12  A    between atoms: C_24  and  C_25
REMARK   13  A    between atoms: C_27  and  C_31
REMARK   14  A    between atoms: C_27  and  C_32
REMARK                            x       y       z     vdW  Elec       q    Type
REMARK                         _______ _______ _______ _____ _____    ______ ____
ROOT
ATOM      1  O   UNL     1       0.996  -0.440  23.841  0.00  0.00    -0.276 OA
ATOM      5  N   UNL     1       0.181   1.691  24.230  0.00  0.00    -0.288 N 
ATOM     11  C   UNL     1      -0.991   1.283  24.998  0.00  0.00    +0.182 C 
ATOM     12  C   UNL     1      -1.490   2.563  25.668  0.00  0.00    +0.105 C 
ATOM     13  C   UNL     1      -1.027   3.668  24.714  0.00  0.00    +0.043 C 
ATOM     14  C   UNL     1       0.295   3.145  24.167  0.00  0.00    +0.110 C 
ATOM     15  C   UNL     1       1.125   0.783  23.772  0.00  0.00    +0.217 C 
ENDROOT
BRANCH  12   6
ATOM      3  O   UNL     1       1.222   1.963  26.450  0.00  0.00    -0.253 OA
ATOM      6  N   UNL     1      -0.908   2.722  26.979  0.00  0.00    -0.294 N 
ATOM      8  N   UNL     1       0.715   2.655  28.606  0.00  0.00    -0.297 N 
ATOM     23  C   UNL     1       0.417   2.405  27.269  0.00  0.00    +0.300 C 
ATOM     37  H   UNL     1      -1.510   3.015  27.743  0.00  0.00    +0.151 HD
ATOM     39  H   UNL     1      -0.036   2.951  29.221  0.00  0.00    +0.150 HD
BRANCH   8  27
ATOM     27  C   UNL     1       2.020   2.414  29.175  0.00  0.00    +0.068 C 
ATOM     31  C   UNL     1       2.891   3.659  29.061  0.00  0.00    +0.027 C 
ATOM     32  C   UNL     1       1.891   1.961  30.624  0.00  0.00    +0.027 C 
ENDBRANCH   8  27
ENDBRANCH  12   6
BRANCH  11  16
ATOM      2  O   UNL     1      -1.900   0.998  22.807  0.00  0.00    -0.274 OA
ATOM      7  N   UNL     1      -2.985   0.012  24.616  0.00  0.00    -0.302 N 
ATOM     16  C   UNL     1      -1.987   0.755  24.009  0.00  0.00    +0.236 C 
ATOM     38  H   UNL     1      -2.899  -0.206  25.603  0.00  0.00    +0.150 HD
BRANCH   7  19
ATOM     19  C   UNL     1      -4.079  -0.588  23.887  0.00  0.00    +0.163 C 
BRANCH  19  26
ATOM      4  O   UNL     1      -4.684  -2.909  23.497  0.00  0.00    -0.274 OA
ATOM     10  N   UNL     1      -2.645  -2.452  24.450  0.00  0.00    -0.328 N 
ATOM     26  C   UNL     1      -3.870  -2.096  23.926  0.00  0.00    +0.231 C 
ATOM     41  H   UNL     1      -2.373  -3.426  24.521  0.00  0.00    +0.145 HD
ATOM     42  H   UNL     1      -1.973  -1.767  24.780  0.00  0.00    +0.145 HD
ENDBRANCH  19  26
BRANCH  19  24
ATOM     24  C   UNL     1      -5.444  -0.220  24.480  0.00  0.00    +0.069 C 
BRANCH  24  25
ATOM      9  N   UNL     1      -5.813   2.786  26.562  0.00  0.00    -0.360 N 
ATOM     25  C   UNL     1      -5.465   1.142  25.113  0.00  0.00    -0.020 A 
ATOM     28  C   UNL     1      -4.961   2.346  24.548  0.00  0.00    +0.003 A 
ATOM     29  C   UNL     1      -5.983   1.445  26.351  0.00  0.00    +0.087 A 
ATOM     30  C   UNL     1      -5.191   3.363  25.478  0.00  0.00    +0.047 A 
ATOM     33  C   UNL     1      -4.328   2.671  23.332  0.00  0.00    +0.010 A 
ATOM     34  C   UNL     1      -4.819   4.692  25.250  0.00  0.00    +0.026 A 
ATOM     35  C   UNL     1      -3.951   3.997  23.090  0.00  0.00    +0.001 A 
ATOM     36  C   UNL     1      -4.194   4.991  24.037  0.00  0.00    +0.002 A 
ATOM     40  H   UNL     1      -6.101   3.282  27.394  0.00  0.00    +0.165 HD
ENDBRANCH  24  25
ENDBRANCH  19  24
ENDBRANCH   7  19
ENDBRANCH  11  16
BRANCH  15  17
ATOM     17  C   UNL     1       2.361   1.386  23.155  0.00  0.00    +0.102 C 
BRANCH  17  18
ATOM     18  C   UNL     1       3.438   0.336  22.827  0.00  0.00    -0.029 C 
ATOM     20  C   UNL     1       3.408   0.088  21.307  0.00  0.00    +0.011 C 
ATOM     21  C   UNL     1       4.839   0.838  23.214  0.00  0.00    +0.011 C 
ATOM     22  C   UNL     1       3.154  -0.995  23.546  0.00  0.00    +0.011 C 
ENDBRANCH  17  18
ENDBRANCH  15  17
TORSDOF 9
ENDMDL
MODEL 4
REMARK VINA RESULT:       3.7      1.608      2.086
REMARK  Name = 11865857
REMARK  14 active torsions:
REMARK  status: ('A' for Active; 'I' for Inactive)
REMARK    1  A    between atoms: N_6  and  C_12
REMARK    2  A    between atoms: N_7  and  C_19
REMARK    3  A    between atoms: N_8  and  C_27
REMARK    4  A    between atoms: C_11  and  C_16
REMARK    5  A    between atoms: C_15  and  C_17
REMARK    6  A    between atoms: C_17  and  C_18
REMARK    7  A    between atoms: C_18  and  C_20
REMARK    8  A    between atoms: C_18  and  C_21
REMARK    9  A    between atoms: C_18  and  C_22
REMARK   10  A    between atoms: C_19  and  C_24
REMARK   11  A    between atoms: C_19  and  C_26
REMARK   12  A    between atoms: C_24  and  C_25
REMARK   13  A    between atoms: C_27  and  C_31
REMARK   14  A    between atoms: C_27  and  C_32
REMARK                            x       y       z     vdW  Elec       q    Type
REMARK                         _______ _______ _______ _____ _____    ______ ____
ROOT
ATOM      1  O   UNL     1      -1.157  -0.311  26.158  0.00  0.00    -0.276 OA
ATOM      5  N   UNL     1      -0.413  -0.635  23.990  0.00  0.00    -0.288 N 
ATOM     11  C   UNL     1       0.493   0.508  23.952  0.00  0.00    +0.182 C 
ATOM     12  C   UNL     1       1.369   0.278  22.721  0.00  0.00    +0.105 C 
ATOM     13  C   UNL     1       0.475  -0.553  21.797  0.00  0.00    +0.043 C 
ATOM     14  C   UNL     1      -0.339  -1.413  22.756  0.00  0.00    +0.110 C 
ATOM     15  C   UNL     1      -1.115  -0.992  25.132  0.00  0.00    +0.217 C 
ENDROOT
BRANCH  12   6
ATOM      3  O   UNL     1       3.988   1.403  23.177  0.00  0.00    -0.253 OA
ATOM      6  N   UNL     1       2.574  -0.437  23.069  0.00  0.00    -0.294 N 
ATOM      8  N   UNL     1       4.793  -0.733  23.596  0.00  0.00    -0.297 N 
ATOM     23  C   UNL     1       3.801   0.190  23.271  0.00  0.00    +0.300 C 
ATOM     37  H   UNL     1       2.542  -1.451  23.103  0.00  0.00    +0.151 HD
ATOM     39  H   UNL     1       4.557  -1.721  23.579  0.00  0.00    +0.150 HD
BRANCH   8  27
ATOM     27  C   UNL     1       6.161  -0.354  23.857  0.00  0.00    +0.068 C 
ATOM     31  C   UNL     1       7.038  -0.650  22.646  0.00  0.00    +0.027 C 
ATOM     32  C   UNL     1       6.237   1.117  24.248  0.00  0.00    +0.027 C 
ENDBRANCH   8  27
ENDBRANCH  12   6
BRANCH  11  16
ATOM      2  O   UNL     1      -1.122   1.870  22.839  0.00  0.00    -0.274 OA
ATOM      7  N   UNL     1      -0.175   2.638  24.823  0.00  0.00    -0.302 N 
ATOM     16  C   UNL     1      -0.365   1.728  23.797  0.00  0.00    +0.236 C 
ATOM     38  H   UNL     1       0.402   2.368  25.613  0.00  0.00    +0.150 HD
BRANCH   7  19
ATOM     19  C   UNL     1      -0.866   3.904  24.894  0.00  0.00    +0.163 C 
BRANCH  19  26
ATOM      4  O   UNL     1       0.215   6.064  24.625  0.00  0.00    -0.274 OA
ATOM     10  N   UNL     1       0.593   4.442  23.043  0.00  0.00    -0.328 N 
ATOM     26  C   UNL     1       0.011   4.933  24.193  0.00  0.00    +0.231 C 
ATOM     41  H   UNL     1       1.213   5.021  22.487  0.00  0.00    +0.145 HD
ATOM     42  H   UNL     1       0.433   3.497  22.711  0.00  0.00    +0.145 HD
ENDBRANCH  19  26
BRANCH  19  24
ATOM     24  C   UNL     1      -2.252   3.848  24.243  0.00  0.00    +0.069 C 
BRANCH  24  25
ATOM      9  N   UNL     1      -4.631   3.909  27.044  0.00  0.00    -0.360 N 
ATOM     25  C   UNL     1      -3.365   3.673  25.237  0.00  0.00    -0.020 A 
ATOM     28  C   UNL     1      -4.469   2.782  25.125  0.00  0.00    +0.003 A 
ATOM     29  C   UNL     1      -3.492   4.351  26.427  0.00  0.00    +0.087 A 
ATOM     30  C   UNL     1      -5.249   2.951  26.273  0.00  0.00    +0.047 A 
ATOM     33  C   UNL     1      -4.882   1.847  24.156  0.00  0.00    +0.010 A 
ATOM     34  C   UNL     1      -6.424   2.227  26.498  0.00  0.00    +0.026 A 
ATOM     35  C   UNL     1      -6.056   1.115  24.369  0.00  0.00    +0.001 A 
ATOM     36  C   UNL     1      -6.814   1.305  25.524  0.00  0.00    +0.002 A 
ATOM     40  H   UNL     1      -4.971   4.238  27.937  0.00  0.00    +0.165 HD
ENDBRANCH  24  25
ENDBRANCH  19  24
ENDBRANCH   7  19
ENDBRANCH  11  16
BRANCH  15  17
ATOM     17  C   UNL     1      -1.864  -2.298  25.054  0.00  0.00    +0.102 C 
BRANCH  17  18
ATOM     18  C   UNL     1      -3.373  -2.109  24.818  0.00  0.00    -0.029 C 
ATOM     20  C   UNL     1      -3.961  -1.412  26.059  0.00  0.00    +0.011 C 
ATOM     21  C   UNL     1      -3.636  -1.223  23.588  0.00  0.00    +0.011 C 
ATOM     22  C   UNL     1      -4.081  -3.463  24.634  0.00  0.00    +0.011 C 
ENDBRANCH  17  18
ENDBRANCH  15  17
TORSDOF 9
ENDMDL
MODEL 5
REMARK VINA RESULT:       3.8      2.217      5.847
REMARK  Name = 11865857
REMARK  14 active torsions:
REMARK  status: ('A' for Active; 'I' for Inactive)
REMARK    1  A    between atoms: N_6  and  C_12
REMARK    2  A    between atoms: N_7  and  C_19
REMARK    3  A    between atoms: N_8  and  C_27
REMARK    4  A    between atoms: C_11  and  C_16
REMARK    5  A    between atoms: C_15  and  C_17
REMARK    6  A    between atoms: C_17  and  C_18
REMARK    7  A    between atoms: C_18  and  C_20
REMARK    8  A    between atoms: C_18  and  C_21
REMARK    9  A    between atoms: C_18  and  C_22
REMARK   10  A    between atoms: C_19  and  C_24
REMARK   11  A    between atoms: C_19  and  C_26
REMARK   12  A    between atoms: C_24  and  C_25
REMARK   13  A    between atoms: C_27  and  C_31
REMARK   14  A    between atoms: C_27  and  C_32
REMARK                            x       y       z     vdW  Elec       q    Type
REMARK                         _______ _______ _______ _____ _____    ______ ____
ROOT
ATOM      1  O   UNL     1       2.609  -1.347  23.869  0.00  0.00    -0.276 OA
ATOM      5  N   UNL     1       1.702   0.772  23.653  0.00  0.00    -0.288 N 
ATOM     11  C   UNL     1       0.549   0.548  24.519  0.00  0.00    +0.182 C 
ATOM     12  C   UNL     1      -0.004   1.944  24.809  0.00  0.00    +0.105 C 
ATOM     13  C   UNL     1       0.411   2.754  23.578  0.00  0.00    +0.043 C 
ATOM     14  C   UNL     1       1.754   2.154  23.183  0.00  0.00    +0.110 C 
ATOM     15  C   UNL     1       2.684  -0.188  23.458  0.00  0.00    +0.217 C 
ENDROOT
BRANCH  12   6
ATOM      3  O   UNL     1      -0.294   0.916  27.490  0.00  0.00    -0.253 OA
ATOM      6  N   UNL     1       0.571   2.488  26.016  0.00  0.00    -0.294 N 
ATOM      8  N   UNL     1       1.044   2.649  28.261  0.00  0.00    -0.297 N 
ATOM     23  C   UNL     1       0.377   1.924  27.275  0.00  0.00    +0.300 C 
ATOM     37  H   UNL     1       1.085   3.362  25.955  0.00  0.00    +0.151 HD
ATOM     39  H   UNL     1       1.512   3.510  27.994  0.00  0.00    +0.150 HD
BRANCH   8  27
ATOM     27  C   UNL     1       1.011   2.284  29.657  0.00  0.00    +0.068 C 
ATOM     31  C   UNL     1       2.396   1.861  30.131  0.00  0.00    +0.027 C 
ATOM     32  C   UNL     1       0.469   3.436  30.493  0.00  0.00    +0.027 C 
ENDBRANCH   8  27
ENDBRANCH  12   6
BRANCH  11  16
ATOM      2  O   UNL     1      -0.203  -0.603  22.567  0.00  0.00    -0.274 OA
ATOM      7  N   UNL     1      -1.561  -0.583  24.458  0.00  0.00    -0.302 N 
ATOM     16  C   UNL     1      -0.423  -0.276  23.731  0.00  0.00    +0.236 C 
ATOM     38  H   UNL     1      -1.589  -0.344  25.444  0.00  0.00    +0.150 HD
BRANCH   7  19
ATOM     19  C   UNL     1      -2.662  -1.348  23.919  0.00  0.00    +0.163 C 
BRANCH  19  26
ATOM      4  O   UNL     1      -3.605  -1.408  26.157  0.00  0.00    -0.274 OA
ATOM     10  N   UNL     1      -3.806  -3.272  24.831  0.00  0.00    -0.328 N 
ATOM     26  C   UNL     1      -3.383  -1.987  25.097  0.00  0.00    +0.231 C 
ATOM     41  H   UNL     1      -4.312  -3.808  25.528  0.00  0.00    +0.145 HD
ATOM     42  H   UNL     1      -3.634  -3.730  23.942  0.00  0.00    +0.145 HD
ENDBRANCH  19  26
BRANCH  19  24
ATOM     24  C   UNL     1      -3.630  -0.480  23.105  0.00  0.00    +0.069 C 
BRANCH  24  25
ATOM      9  N   UNL     1      -2.963   3.112  23.509  0.00  0.00    -0.360 N 
ATOM     25  C   UNL     1      -3.564   0.976  23.469  0.00  0.00    -0.020 A 
ATOM     28  C   UNL     1      -4.357   1.642  24.445  0.00  0.00    +0.003 A 
ATOM     29  C   UNL     1      -2.716   1.906  22.912  0.00  0.00    +0.087 A 
ATOM     30  C   UNL     1      -3.960   2.982  24.449  0.00  0.00    +0.047 A 
ATOM     33  C   UNL     1      -5.377   1.235  25.326  0.00  0.00    +0.010 A 
ATOM     34  C   UNL     1      -4.535   3.936  25.296  0.00  0.00    +0.026 A 
ATOM     35  C   UNL     1      -5.961   2.178  26.179  0.00  0.00    +0.001 A 
ATOM     36  C   UNL     1      -5.544   3.508  26.162  0.00  0.00    +0.002 A 
ATOM     40  H   UNL     1      -2.483   3.975  23.292  0.00  0.00    +0.165 HD
ENDBRANCH  24  25
ENDBRANCH  19  24
ENDBRANCH   7  19
ENDBRANCH  11  16
BRANCH  15  17
ATOM     17  C   UNL     1       3.893   0.267  22.681  0.00  0.00    +0.102 C 
BRANCH  17  18
ATOM     18  C   UNL     1       5.220  -0.157  23.337  0.00  0.00    -0.029 C 
ATOM     20  C   UNL     1       5.607   0.926  24.361  0.00  0.00    +0.011 C 
ATOM     21  C   UNL     1       5.071  -1.498  24.075  0.00  0.00    +0.011 C 
ATOM     22  C   UNL     1       6.345  -0.269  22.293  0.00  0.00    +0.011 C 
ENDBRANCH  17  18
ENDBRANCH  15  17
TORSDOF 9
ENDMDL
MODEL 6
REMARK VINA RESULT:       4.2      2.282      4.506
REMARK  Name = 11865857
REMARK  14 active torsions:
REMARK  status: ('A' for Active; 'I' for Inactive)
REMARK    1  A    between atoms: N_6  and  C_12
REMARK    2  A    between atoms: N_7  and  C_19
REMARK    3  A    between atoms: N_8  and  C_27
REMARK    4  A    between atoms: C_11  and  C_16
REMARK    5  A    between atoms: C_15  and  C_17
REMARK    6  A    between atoms: C_17  and  C_18
REMARK    7  A    between atoms: C_18  and  C_20
REMARK    8  A    between atoms: C_18  and  C_21
REMARK    9  A    between atoms: C_18  and  C_22
REMARK   10  A    between atoms: C_19  and  C_24
REMARK   11  A    between atoms: C_19  and  C_26
REMARK   12  A    between atoms: C_24  and  C_25
REMARK   13  A    between atoms: C_27  and  C_31
REMARK   14  A    between atoms: C_27  and  C_32
REMARK                            x       y       z     vdW  Elec       q    Type
REMARK                         _______ _______ _______ _____ _____    ______ ____
ROOT
ATOM      1  O   UNL     1       0.846   3.426  26.615  0.00  0.00    -0.276 OA
ATOM      5  N   UNL     1      -0.097   1.437  25.900  0.00  0.00    -0.288 N 
ATOM     11  C   UNL     1      -0.001   1.712  24.470  0.00  0.00    +0.182 C 
ATOM     12  C   UNL     1      -0.243   0.364  23.791  0.00  0.00    +0.105 C 
ATOM     13  C   UNL     1      -1.123  -0.388  24.794  0.00  0.00    +0.043 C 
ATOM     14  C   UNL     1      -0.625   0.098  26.149  0.00  0.00    +0.110 C 
ATOM     15  C   UNL     1       0.408   2.301  26.860  0.00  0.00    +0.217 C 
ENDROOT
BRANCH  12   6
ATOM      3  O   UNL     1       2.360   1.546  23.398  0.00  0.00    -0.253 OA
ATOM      6  N   UNL     1       1.001  -0.331  23.559  0.00  0.00    -0.294 N 
ATOM      8  N   UNL     1       3.254  -0.585  23.176  0.00  0.00    -0.297 N 
ATOM     23  C   UNL     1       2.217   0.324  23.379  0.00  0.00    +0.300 C 
ATOM     37  H   UNL     1       0.979  -1.341  23.456  0.00  0.00    +0.151 HD
ATOM     39  H   UNL     1       3.025  -1.571  23.105  0.00  0.00    +0.150 HD
BRANCH   8  27
ATOM     27  C   UNL     1       4.622  -0.176  22.961  0.00  0.00    +0.068 C 
ATOM     31  C   UNL     1       4.677   1.255  22.440  0.00  0.00    +0.027 C 
ATOM     32  C   UNL     1       5.428  -0.328  24.245  0.00  0.00    +0.027 C 
ENDBRANCH   8  27
ENDBRANCH  12   6
BRANCH  11  16
ATOM      2  O   UNL     1      -0.948   3.899  24.332  0.00  0.00    -0.274 OA
ATOM      7  N   UNL     1      -2.227   2.072  23.664  0.00  0.00    -0.302 N 
ATOM     16  C   UNL     1      -1.088   2.692  24.149  0.00  0.00    +0.236 C 
ATOM     38  H   UNL     1      -2.193   1.079  23.460  0.00  0.00    +0.150 HD
BRANCH   7  19
ATOM     19  C   UNL     1      -3.426   2.792  23.302  0.00  0.00    +0.163 C 
BRANCH  19  26
ATOM      4  O   UNL     1      -4.164   3.694  21.169  0.00  0.00    -0.274 OA
ATOM     10  N   UNL     1      -2.473   2.140  21.178  0.00  0.00    -0.328 N 
ATOM     26  C   UNL     1      -3.426   2.929  21.785  0.00  0.00    +0.231 C 
ATOM     41  H   UNL     1      -2.357   2.146  20.171  0.00  0.00    +0.145 HD
ATOM     42  H   UNL     1      -1.854   1.530  21.703  0.00  0.00    +0.145 HD
ENDBRANCH  19  26
BRANCH  19  24
ATOM     24  C   UNL     1      -4.698   2.079  23.775  0.00  0.00    +0.069 C 
BRANCH  24  25
ATOM      9  N   UNL     1      -4.083  -0.204  26.589  0.00  0.00    -0.360 N 
ATOM     25  C   UNL     1      -4.421   0.945  24.721  0.00  0.00    -0.020 A 
ATOM     28  C   UNL     1      -4.178  -0.412  24.370  0.00  0.00    +0.003 A 
ATOM     29  C   UNL     1      -4.355   1.041  26.092  0.00  0.00    +0.087 A 
ATOM     30  C   UNL     1      -3.969  -1.112  25.561  0.00  0.00    +0.047 A 
ATOM     33  C   UNL     1      -4.116  -1.114  23.150  0.00  0.00    +0.010 A 
ATOM     34  C   UNL     1      -3.700  -2.485  25.591  0.00  0.00    +0.026 A 
ATOM     35  C   UNL     1      -3.847  -2.488  23.165  0.00  0.00    +0.001 A 
ATOM     36  C   UNL     1      -3.643  -3.160  24.369  0.00  0.00    +0.002 A 
ATOM     40  H   UNL     1      -3.980  -0.427  27.570  0.00  0.00    +0.165 HD
ENDBRANCH  24  25
ENDBRANCH  19  24
ENDBRANCH   7  19
ENDBRANCH  11  16
BRANCH  15  17
ATOM     17  C   UNL     1       0.387   1.784  28.276  0.00  0.00    +0.102 C 
BRANCH  17  18
ATOM     18  C   UNL     1       1.417   2.481  29.183  0.00  0.00    -0.029 C 
ATOM     20  C   UNL     1       0.651   3.423  30.130  0.00  0.00    +0.011 C 
ATOM     21  C   UNL     1       2.192   1.459  30.031  0.00  0.00    +0.011 C 
ATOM     22  C   UNL     1       2.409   3.317  28.355  0.00  0.00    +0.011 C 
ENDBRANCH  17  18
ENDBRANCH  15  17
TORSDOF 9
ENDMDL
MODEL 7
REMARK VINA RESULT:       5.0      1.987      3.181
REMARK  Name = 11865857
REMARK  14 active torsions:
REMARK  status: ('A' for Active; 'I' for Inactive)
REMARK    1  A    between atoms: N_6  and  C_12
REMARK    2  A    between atoms: N_7  and  C_19
REMARK    3  A    between atoms: N_8  and  C_27
REMARK    4  A    between atoms: C_11  and  C_16
REMARK    5  A    between atoms: C_15  and  C_17
REMARK    6  A    between atoms: C_17  and  C_18
REMARK    7  A    between atoms: C_18  and  C_20
REMARK    8  A    between atoms: C_18  and  C_21
REMARK    9  A    between atoms: C_18  and  C_22
REMARK   10  A    between atoms: C_19  and  C_24
REMARK   11  A    between atoms: C_19  and  C_26
REMARK   12  A    between atoms: C_24  and  C_25
REMARK   13  A    between atoms: C_27  and  C_31
REMARK   14  A    between atoms: C_27  and  C_32
REMARK                            x       y       z     vdW  Elec       q    Type
REMARK                         _______ _______ _______ _____ _____    ______ ____
ROOT
ATOM      1  O   UNL     1      -1.203  -0.336  26.000  0.00  0.00    -0.276 OA
ATOM      5  N   UNL     1      -0.350  -0.804  23.900  0.00  0.00    -0.288 N 
ATOM     11  C   UNL     1       0.510   0.371  23.804  0.00  0.00    +0.182 C 
ATOM     12  C   UNL     1       1.450   0.079  22.634  0.00  0.00    +0.105 C 
ATOM     13  C   UNL     1       0.632  -0.863  21.747  0.00  0.00    +0.043 C 
ATOM     14  C   UNL     1      -0.189  -1.676  22.739  0.00  0.00    +0.110 C 
ATOM     15  C   UNL     1      -1.088  -1.096  25.037  0.00  0.00    +0.217 C 
ENDROOT
BRANCH  12   6
ATOM      3  O   UNL     1       4.023   1.331  23.007  0.00  0.00    -0.253 OA
ATOM      6  N   UNL     1       2.665  -0.551  23.091  0.00  0.00    -0.294 N 
ATOM      8  N   UNL     1       4.878  -0.714  23.696  0.00  0.00    -0.297 N 
ATOM     23  C   UNL     1       3.869   0.133  23.242  0.00  0.00    +0.300 C 
ATOM     37  H   UNL     1       2.661  -1.555  23.245  0.00  0.00    +0.151 HD
ATOM     39  H   UNL     1       4.671  -1.704  23.793  0.00  0.00    +0.150 HD
BRANCH   8  27
ATOM     27  C   UNL     1       6.228  -0.264  23.938  0.00  0.00    +0.068 C 
ATOM     31  C   UNL     1       7.112  -0.551  22.731  0.00  0.00    +0.027 C 
ATOM     32  C   UNL     1       6.237   1.219  24.289  0.00  0.00    +0.027 C 
ENDBRANCH   8  27
ENDBRANCH  12   6
BRANCH  11  16
ATOM      2  O   UNL     1      -0.023   2.696  23.681  0.00  0.00    -0.274 OA
ATOM      7  N   UNL     1      -1.636   1.134  23.064  0.00  0.00    -0.302 N 
ATOM     16  C   UNL     1      -0.388   1.535  23.510  0.00  0.00    +0.236 C 
ATOM     38  H   UNL     1      -1.791   0.151  22.866  0.00  0.00    +0.150 HD
BRANCH   7  19
ATOM     19  C   UNL     1      -2.693   2.062  22.735  0.00  0.00    +0.163 C 
BRANCH  19  26
ATOM      4  O   UNL     1      -3.152   3.214  20.645  0.00  0.00    -0.274 OA
ATOM     10  N   UNL     1      -2.032   1.211  20.571  0.00  0.00    -0.328 N 
ATOM     26  C   UNL     1      -2.679   2.239  21.223  0.00  0.00    +0.231 C 
ATOM     41  H   UNL     1      -1.939   1.212  19.561  0.00  0.00    +0.145 HD
ATOM     42  H   UNL     1      -1.626   0.422  21.064  0.00  0.00    +0.145 HD
ENDBRANCH  19  26
BRANCH  19  24
ATOM     24  C   UNL     1      -4.067   1.568  23.203  0.00  0.00    +0.069 C 
BRANCH  24  25
ATOM      9  N   UNL     1      -5.760   2.758  26.241  0.00  0.00    -0.360 N 
ATOM     25  C   UNL     1      -4.528   2.223  24.473  0.00  0.00    -0.020 A 
ATOM     28  C   UNL     1      -3.837   3.225  25.210  0.00  0.00    +0.003 A 
ATOM     29  C   UNL     1      -5.707   1.958  25.132  0.00  0.00    +0.087 A 
ATOM     30  C   UNL     1      -4.631   3.542  26.315  0.00  0.00    +0.047 A 
ATOM     33  C   UNL     1      -2.608   3.893  25.044  0.00  0.00    +0.010 A 
ATOM     34  C   UNL     1      -4.254   4.499  27.264  0.00  0.00    +0.026 A 
ATOM     35  C   UNL     1      -2.219   4.853  25.985  0.00  0.00    +0.001 A 
ATOM     36  C   UNL     1      -3.032   5.150  27.078  0.00  0.00    +0.002 A 
ATOM     40  H   UNL     1      -6.517   2.772  26.910  0.00  0.00    +0.165 HD
ENDBRANCH  24  25
ENDBRANCH  19  24
ENDBRANCH   7  19
ENDBRANCH  11  16
BRANCH  15  17
ATOM     17  C   UNL     1      -1.779  -2.436  25.038  0.00  0.00    +0.102 C 
BRANCH  17  18
ATOM     18  C   UNL     1      -3.312  -2.318  24.948  0.00  0.00    -0.029 C 
ATOM     20  C   UNL     1      -3.902  -3.734  25.080  0.00  0.00    +0.011 C 
ATOM     21  C   UNL     1      -3.869  -1.447  26.087  0.00  0.00    +0.011 C 
ATOM     22  C   UNL     1      -3.746  -1.729  23.595  0.00  0.00    +0.011 C 
ENDBRANCH  17  18
ENDBRANCH  15  17
TORSDOF 9
ENDMDL
