MODEL 1
REMARK VINA RESULT:      -3.0      0.000      0.000
REMARK  Name = 38030690
REMARK  12 active torsions:
REMARK  status: ('A' for Active; 'I' for Inactive)
REMARK    1  A    between atoms: N_2  and  C_13
REMARK    2  A    between atoms: N_2  and  C_19
REMARK    3  A    between atoms: C_6  and  C_10
REMARK    4  A    between atoms: C_7  and  C_13
REMARK    5  A    between atoms: C_9  and  C_14
REMARK    6  A    between atoms: C_10  and  C_15
REMARK    7  A    between atoms: C_10  and  C_16
REMARK    8  A    between atoms: C_11  and  C_17
REMARK    9  A    between atoms: C_14  and  C_18
REMARK   10  A    between atoms: C_19  and  C_20
REMARK   11  A    between atoms: C_21  and  C_23
REMARK   12  A    between atoms: C_31  and  C_32
REMARK                            x       y       z     vdW  Elec       q    Type
REMARK                         _______ _______ _______ _____ _____    ______ ____
ROOT
ATOM      6  C   UNL     1      -2.514   3.776  25.754  0.00  0.00    +0.000 C 
ATOM      7  C   UNL     1      -3.799   3.903  24.903  0.00  0.00    +0.029 C 
ATOM      8  C   UNL     1      -1.924   2.365  25.630  0.00  0.00    +0.012 C 
ATOM      9  C   UNL     1      -1.618   1.956  24.173  0.00  0.00    +0.024 C 
ATOM     11  C   UNL     1      -2.680   2.421  23.188  0.00  0.00    -0.073 C 
ATOM     12  C   UNL     1      -3.653   3.282  23.538  0.00  0.00    -0.023 C 
ATOM     17  C   UNL     1      -2.577   1.928  21.771  0.00  0.00    +0.039 C 
ENDROOT
BRANCH   6  10
ATOM     10  C   UNL     1      -1.481   4.845  25.371  0.00  0.00    -0.013 C 
ATOM     15  C   UNL     1      -2.130   5.932  24.520  0.00  0.00    +0.007 C 
ATOM     16  C   UNL     1      -0.307   4.210  24.635  0.00  0.00    +0.007 C 
ENDBRANCH   6  10
BRANCH   7  13
ATOM     13  C   UNL     1      -5.010   3.285  25.611  0.00  0.00    +0.089 C 
BRANCH  13   2
ATOM      2  N   UNL     1      -5.326   1.985  25.045  0.00  0.00    -0.310 NA
ATOM     33  H   UNL     1      -4.717   1.817  24.244  0.00  0.00    +0.122 HD
BRANCH   2  19
ATOM     19  C   UNL     1      -5.127   0.925  26.026  0.00  0.00    +0.136 C 
BRANCH  19  20
ATOM      5  N   UNL     1      -3.744  -1.069  26.218  0.00  0.00    -0.259 NA
ATOM     20  C   UNL     1      -4.509  -0.301  25.408  0.00  0.00    +0.055 A 
ATOM     22  C   UNL     1      -4.747  -0.581  24.073  0.00  0.00    +0.024 A 
ATOM     24  C   UNL     1      -4.162  -1.721  23.532  0.00  0.00    +0.003 A 
ATOM     25  C   UNL     1      -3.193  -2.169  25.657  0.00  0.00    +0.111 A 
ATOM     28  C   UNL     1      -3.369  -2.535  24.332  0.00  0.00    +0.020 A 
ENDBRANCH  19  20
ENDBRANCH   2  19
ENDBRANCH  13   2
ENDBRANCH   7  13
BRANCH   9  14
ATOM     14  C   UNL     1      -1.386   0.440  24.128  0.00  0.00    +0.105 C 
BRANCH  14  18
ATOM      1  O   UNL     1       1.026   0.188  23.853  0.00  0.00    -0.420 OA
ATOM      3  N   UNL     1      -0.162  -0.305  22.022  0.00  0.00    -0.112 NA
ATOM      4  N   UNL     1       1.175  -0.490  21.726  0.00  0.00    -0.107 NA
ATOM     18  C   UNL     1      -0.203   0.091  23.273  0.00  0.00    +0.218 A 
ATOM     21  C   UNL     1       1.831  -0.190  22.823  0.00  0.00    +0.248 A 
BRANCH  21  23
ATOM     23  C   UNL     1       3.238  -0.200  23.098  0.00  0.00    +0.038 A 
ATOM     26  C   UNL     1       4.012   0.927  22.821  0.00  0.00    +0.013 A 
ATOM     27  C   UNL     1       3.834  -1.337  23.645  0.00  0.00    +0.013 A 
ATOM     29  C   UNL     1       5.381   0.918  23.091  0.00  0.00    +0.004 A 
ATOM     30  C   UNL     1       5.203  -1.347  23.914  0.00  0.00    +0.004 A 
ATOM     31  C   UNL     1       5.976  -0.219  23.637  0.00  0.00    -0.050 A 
ATOM     32  C   UNL     1       7.439  -0.230  23.924  0.00  0.00    +0.044 C 
ENDBRANCH  21  23
ENDBRANCH  14  18
ENDBRANCH   9  14
TORSDOF 8
ENDMDL
MODEL 2
REMARK VINA RESULT:      -0.6     15.057     18.026
REMARK  Name = 38030690
REMARK  12 active torsions:
REMARK  status: ('A' for Active; 'I' for Inactive)
REMARK    1  A    between atoms: N_2  and  C_13
REMARK    2  A    between atoms: N_2  and  C_19
REMARK    3  A    between atoms: C_6  and  C_10
REMARK    4  A    between atoms: C_7  and  C_13
REMARK    5  A    between atoms: C_9  and  C_14
REMARK    6  A    between atoms: C_10  and  C_15
REMARK    7  A    between atoms: C_10  and  C_16
REMARK    8  A    between atoms: C_11  and  C_17
REMARK    9  A    between atoms: C_14  and  C_18
REMARK   10  A    between atoms: C_19  and  C_20
REMARK   11  A    between atoms: C_21  and  C_23
REMARK   12  A    between atoms: C_31  and  C_32
REMARK                            x       y       z     vdW  Elec       q    Type
REMARK                         _______ _______ _______ _____ _____    ______ ____
ROOT
ATOM      6  C   UNL     1      13.838  -7.606  32.450  0.00  0.00    +0.000 C 
ATOM      7  C   UNL     1      12.559  -6.932  31.904  0.00  0.00    +0.029 C 
ATOM      8  C   UNL     1      14.370  -8.640  31.447  0.00  0.00    +0.012 C 
ATOM      9  C   UNL     1      14.657  -8.047  30.051  0.00  0.00    +0.024 C 
ATOM     11  C   UNL     1      13.614  -7.032  29.609  0.00  0.00    -0.073 C 
ATOM     12  C   UNL     1      12.677  -6.556  30.449  0.00  0.00    -0.023 C 
ATOM     17  C   UNL     1      13.695  -6.523  28.196  0.00  0.00    +0.039 C 
ENDROOT
BRANCH   6  10
ATOM     10  C   UNL     1      14.913  -6.567  32.799  0.00  0.00    -0.013 C 
ATOM     15  C   UNL     1      14.375  -5.155  32.596  0.00  0.00    +0.007 C 
ATOM     16  C   UNL     1      16.165  -6.796  31.958  0.00  0.00    +0.007 C 
ENDBRANCH   6  10
BRANCH   7  13
ATOM     13  C   UNL     1      11.324  -7.820  32.096  0.00  0.00    +0.089 C 
BRANCH  13   2
ATOM      2  N   UNL     1      11.708  -9.130  32.593  0.00  0.00    -0.310 NA
ATOM     33  H   UNL     1      12.024  -9.036  33.559  0.00  0.00    +0.122 HD
BRANCH   2  19
ATOM     19  C   UNL     1      10.583 -10.056  32.549  0.00  0.00    +0.136 C 
BRANCH  19  20
ATOM      5  N   UNL     1       8.505  -9.957  31.286  0.00  0.00    -0.259 NA
ATOM     20  C   UNL     1       9.293  -9.358  32.207  0.00  0.00    +0.055 A 
ATOM     22  C   UNL     1       8.982  -8.164  32.837  0.00  0.00    +0.024 A 
ATOM     24  C   UNL     1       7.784  -7.544  32.500  0.00  0.00    +0.003 A 
ATOM     25  C   UNL     1       7.348  -9.325  30.985  0.00  0.00    +0.111 A 
ATOM     28  C   UNL     1       6.945  -8.129  31.558  0.00  0.00    +0.020 A 
ENDBRANCH  19  20
ENDBRANCH   2  19
ENDBRANCH  13   2
ENDBRANCH   7  13
BRANCH   9  14
ATOM     14  C   UNL     1      14.827  -9.201  29.055  0.00  0.00    +0.105 C 
BRANCH  14  18
ATOM      1  O   UNL     1      15.702  -7.630  27.405  0.00  0.00    -0.420 OA
ATOM      3  N   UNL     1      16.808  -9.572  27.497  0.00  0.00    -0.112 NA
ATOM      4  N   UNL     1      17.405  -8.786  26.530  0.00  0.00    -0.107 NA
ATOM     18  C   UNL     1      15.819  -8.858  27.981  0.00  0.00    +0.218 A 
ATOM     21  C   UNL     1      16.727  -7.662  26.510  0.00  0.00    +0.248 A 
BRANCH  21  23
ATOM     23  C   UNL     1      16.896  -6.486  25.708  0.00  0.00    +0.038 A 
ATOM     26  C   UNL     1      16.933  -5.229  26.311  0.00  0.00    +0.013 A 
ATOM     27  C   UNL     1      17.026  -6.599  24.323  0.00  0.00    +0.013 A 
ATOM     29  C   UNL     1      17.099  -4.085  25.531  0.00  0.00    +0.004 A 
ATOM     30  C   UNL     1      17.192  -5.455  23.543  0.00  0.00    +0.004 A 
ATOM     31  C   UNL     1      17.228  -4.198  24.147  0.00  0.00    -0.050 A 
ATOM     32  C   UNL     1      17.405  -2.975  23.312  0.00  0.00    +0.044 C 
ENDBRANCH  21  23
ENDBRANCH  14  18
ENDBRANCH   9  14
TORSDOF 8
ENDMDL
MODEL 3
REMARK VINA RESULT:      -0.1      1.692      6.719
REMARK  Name = 38030690
REMARK  12 active torsions:
REMARK  status: ('A' for Active; 'I' for Inactive)
REMARK    1  A    between atoms: N_2  and  C_13
REMARK    2  A    between atoms: N_2  and  C_19
REMARK    3  A    between atoms: C_6  and  C_10
REMARK    4  A    between atoms: C_7  and  C_13
REMARK    5  A    between atoms: C_9  and  C_14
REMARK    6  A    between atoms: C_10  and  C_15
REMARK    7  A    between atoms: C_10  and  C_16
REMARK    8  A    between atoms: C_11  and  C_17
REMARK    9  A    between atoms: C_14  and  C_18
REMARK   10  A    between atoms: C_19  and  C_20
REMARK   11  A    between atoms: C_21  and  C_23
REMARK   12  A    between atoms: C_31  and  C_32
REMARK                            x       y       z     vdW  Elec       q    Type
REMARK                         _______ _______ _______ _____ _____    ______ ____
ROOT
ATOM      6  C   UNL     1      -0.835   3.559  23.790  0.00  0.00    +0.000 C 
ATOM      7  C   UNL     1      -0.509   2.496  24.864  0.00  0.00    +0.029 C 
ATOM      8  C   UNL     1      -2.333   3.894  23.802  0.00  0.00    +0.012 C 
ATOM      9  C   UNL     1      -2.839   4.381  25.177  0.00  0.00    +0.024 C 
ATOM     11  C   UNL     1      -2.225   3.619  26.342  0.00  0.00    -0.073 C 
ATOM     12  C   UNL     1      -1.192   2.772  26.179  0.00  0.00    -0.023 C 
ATOM     17  C   UNL     1      -2.777   3.886  27.716  0.00  0.00    +0.039 C 
ENDROOT
BRANCH   6  10
ATOM     10  C   UNL     1       0.018   4.822  23.975  0.00  0.00    -0.013 C 
ATOM     15  C   UNL     1      -0.791   5.913  24.668  0.00  0.00    +0.007 C 
ATOM     16  C   UNL     1       0.545   5.309  22.630  0.00  0.00    +0.007 C 
ENDBRANCH   6  10
BRANCH   7  13
ATOM     13  C   UNL     1      -0.876   1.084  24.392  0.00  0.00    +0.089 C 
BRANCH  13   2
ATOM      2  N   UNL     1       0.273   0.200  24.480  0.00  0.00    -0.310 NA
ATOM     33  H   UNL     1      -0.024  -0.689  24.884  0.00  0.00    +0.122 HD
BRANCH   2  19
ATOM     19  C   UNL     1       0.847  -0.045  23.162  0.00  0.00    +0.136 C 
BRANCH  19  20
ATOM      5  N   UNL     1       2.948  -1.185  23.622  0.00  0.00    -0.259 NA
ATOM     20  C   UNL     1       2.353  -0.047  23.198  0.00  0.00    +0.055 A 
ATOM     22  C   UNL     1       3.042   1.088  22.805  0.00  0.00    +0.024 A 
ATOM     24  C   UNL     1       4.431   1.054  22.849  0.00  0.00    +0.003 A 
ATOM     25  C   UNL     1       4.299  -1.181  23.650  0.00  0.00    +0.111 A 
ATOM     28  C   UNL     1       5.080  -0.098  23.278  0.00  0.00    +0.020 A 
ENDBRANCH  19  20
ENDBRANCH   2  19
ENDBRANCH  13   2
ENDBRANCH   7  13
BRANCH   9  14
ATOM     14  C   UNL     1      -4.372   4.336  25.178  0.00  0.00    +0.105 C 
BRANCH  14  18
ATOM      1  O   UNL     1      -4.085   1.926  24.922  0.00  0.00    -0.420 OA
ATOM      3  N   UNL     1      -6.000   2.520  25.914  0.00  0.00    -0.112 NA
ATOM      4  N   UNL     1      -5.970   1.141  25.835  0.00  0.00    -0.107 NA
ATOM     18  C   UNL     1      -4.881   2.937  25.369  0.00  0.00    +0.218 A 
ATOM     21  C   UNL     1      -4.834   0.839  25.249  0.00  0.00    +0.248 A 
BRANCH  21  23
ATOM     23  C   UNL     1      -4.273  -0.436  24.908  0.00  0.00    +0.038 A 
ATOM     26  C   UNL     1      -4.762  -1.142  23.809  0.00  0.00    +0.013 A 
ATOM     27  C   UNL     1      -3.236  -0.969  25.674  0.00  0.00    +0.013 A 
ATOM     29  C   UNL     1      -4.215  -2.382  23.476  0.00  0.00    +0.004 A 
ATOM     30  C   UNL     1      -2.689  -2.209  25.341  0.00  0.00    +0.004 A 
ATOM     31  C   UNL     1      -3.179  -2.914  24.242  0.00  0.00    -0.050 A 
ATOM     32  C   UNL     1      -2.595  -4.240  23.887  0.00  0.00    +0.044 C 
ENDBRANCH  21  23
ENDBRANCH  14  18
ENDBRANCH   9  14
TORSDOF 8
ENDMDL
MODEL 4
REMARK VINA RESULT:      -0.0      1.179      4.101
REMARK  Name = 38030690
REMARK  12 active torsions:
REMARK  status: ('A' for Active; 'I' for Inactive)
REMARK    1  A    between atoms: N_2  and  C_13
REMARK    2  A    between atoms: N_2  and  C_19
REMARK    3  A    between atoms: C_6  and  C_10
REMARK    4  A    between atoms: C_7  and  C_13
REMARK    5  A    between atoms: C_9  and  C_14
REMARK    6  A    between atoms: C_10  and  C_15
REMARK    7  A    between atoms: C_10  and  C_16
REMARK    8  A    between atoms: C_11  and  C_17
REMARK    9  A    between atoms: C_14  and  C_18
REMARK   10  A    between atoms: C_19  and  C_20
REMARK   11  A    between atoms: C_21  and  C_23
REMARK   12  A    between atoms: C_31  and  C_32
REMARK                            x       y       z     vdW  Elec       q    Type
REMARK                         _______ _______ _______ _____ _____    ______ ____
ROOT
ATOM      6  C   UNL     1      -4.338  -0.831  24.142  0.00  0.00    +0.000 C 
ATOM      7  C   UNL     1      -4.677   0.076  25.347  0.00  0.00    +0.029 C 
ATOM      8  C   UNL     1      -3.282  -0.166  23.249  0.00  0.00    +0.012 C 
ATOM      9  C   UNL     1      -1.983   0.195  24.001  0.00  0.00    +0.024 C 
ATOM     11  C   UNL     1      -2.236   0.732  25.402  0.00  0.00    -0.073 C 
ATOM     12  C   UNL     1      -3.450   0.681  25.981  0.00  0.00    -0.023 C 
ATOM     17  C   UNL     1      -1.058   1.280  26.159  0.00  0.00    +0.039 C 
ENDROOT
BRANCH   6  10
ATOM     10  C   UNL     1      -3.881  -2.223  24.600  0.00  0.00    -0.013 C 
ATOM     15  C   UNL     1      -2.358  -2.301  24.625  0.00  0.00    +0.007 C 
ATOM     16  C   UNL     1      -4.463  -3.299  23.690  0.00  0.00    +0.007 C 
ENDBRANCH   6  10
BRANCH   7  13
ATOM     13  C   UNL     1      -5.647   1.197  24.957  0.00  0.00    +0.089 C 
BRANCH  13   2
ATOM      2  N   UNL     1      -5.902   2.071  26.089  0.00  0.00    -0.310 NA
ATOM     33  H   UNL     1      -5.232   1.857  26.829  0.00  0.00    +0.122 HD
BRANCH   2  19
ATOM     19  C   UNL     1      -5.761   3.472  25.711  0.00  0.00    +0.136 C 
BRANCH  19  20
ATOM      5  N   UNL     1      -3.962   3.769  24.099  0.00  0.00    -0.259 NA
ATOM     20  C   UNL     1      -4.332   3.828  25.399  0.00  0.00    +0.055 A 
ATOM     22  C   UNL     1      -3.483   4.191  26.430  0.00  0.00    +0.024 A 
ATOM     24  C   UNL     1      -2.169   4.515  26.109  0.00  0.00    +0.003 A 
ATOM     25  C   UNL     1      -2.679   4.091  23.825  0.00  0.00    +0.111 A 
ATOM     28  C   UNL     1      -1.751   4.466  24.784  0.00  0.00    +0.020 A 
ENDBRANCH  19  20
ENDBRANCH   2  19
ENDBRANCH  13   2
ENDBRANCH   7  13
BRANCH   9  14
ATOM     14  C   UNL     1      -1.165   1.157  23.132  0.00  0.00    +0.105 C 
BRANCH  14  18
ATOM      1  O   UNL     1       1.210   0.611  23.272  0.00  0.00    -0.420 OA
ATOM      3  N   UNL     1       0.183  -0.222  21.468  0.00  0.00    -0.112 NA
ATOM      4  N   UNL     1       1.510  -0.606  21.419  0.00  0.00    -0.107 NA
ATOM     18  C   UNL     1       0.053   0.486  22.565  0.00  0.00    +0.218 A 
ATOM     21  C   UNL     1       2.071  -0.097  22.491  0.00  0.00    +0.248 A 
BRANCH  21  23
ATOM     23  C   UNL     1       3.424  -0.171  22.958  0.00  0.00    +0.038 A 
ATOM     26  C   UNL     1       4.264   0.937  22.844  0.00  0.00    +0.013 A 
ATOM     27  C   UNL     1       3.902  -1.351  23.528  0.00  0.00    +0.013 A 
ATOM     29  C   UNL     1       5.580   0.866  23.299  0.00  0.00    +0.004 A 
ATOM     30  C   UNL     1       5.219  -1.423  23.983  0.00  0.00    +0.004 A 
ATOM     31  C   UNL     1       6.058  -0.314  23.869  0.00  0.00    -0.050 A 
ATOM     32  C   UNL     1       7.465  -0.391  24.355  0.00  0.00    +0.044 C 
ENDBRANCH  21  23
ENDBRANCH  14  18
ENDBRANCH   9  14
TORSDOF 8
ENDMDL
MODEL 5
REMARK VINA RESULT:       0.4      1.511      2.816
REMARK  Name = 38030690
REMARK  12 active torsions:
REMARK  status: ('A' for Active; 'I' for Inactive)
REMARK    1  A    between atoms: N_2  and  C_13
REMARK    2  A    between atoms: N_2  and  C_19
REMARK    3  A    between atoms: C_6  and  C_10
REMARK    4  A    between atoms: C_7  and  C_13
REMARK    5  A    between atoms: C_9  and  C_14
REMARK    6  A    between atoms: C_10  and  C_15
REMARK    7  A    between atoms: C_10  and  C_16
REMARK    8  A    between atoms: C_11  and  C_17
REMARK    9  A    between atoms: C_14  and  C_18
REMARK   10  A    between atoms: C_19  and  C_20
REMARK   11  A    between atoms: C_21  and  C_23
REMARK   12  A    between atoms: C_31  and  C_32
REMARK                            x       y       z     vdW  Elec       q    Type
REMARK                         _______ _______ _______ _____ _____    ______ ____
ROOT
ATOM      6  C   UNL     1      -4.312   2.442  24.987  0.00  0.00    +0.000 C 
ATOM      7  C   UNL     1      -4.169   3.341  23.738  0.00  0.00    +0.029 C 
ATOM      8  C   UNL     1      -2.932   2.115  25.574  0.00  0.00    +0.012 C 
ATOM      9  C   UNL     1      -2.107   3.369  25.935  0.00  0.00    +0.024 C 
ATOM     11  C   UNL     1      -2.249   4.489  24.914  0.00  0.00    -0.073 C 
ATOM     12  C   UNL     1      -3.169   4.451  23.933  0.00  0.00    -0.023 C 
ATOM     17  C   UNL     1      -1.354   5.688  25.069  0.00  0.00    +0.039 C 
ENDROOT
BRANCH   6  10
ATOM     10  C   UNL     1      -5.224   3.088  26.040  0.00  0.00    -0.013 C 
ATOM     15  C   UNL     1      -6.271   2.089  26.522  0.00  0.00    +0.007 C 
ATOM     16  C   UNL     1      -5.888   4.338  25.473  0.00  0.00    +0.007 C 
ENDBRANCH   6  10
BRANCH   7  13
ATOM     13  C   UNL     1      -3.784   2.527  22.497  0.00  0.00    +0.089 C 
BRANCH  13   2
ATOM      2  N   UNL     1      -3.180   1.263  22.879  0.00  0.00    -0.310 NA
ATOM     33  H   UNL     1      -2.446   1.443  23.565  0.00  0.00    +0.122 HD
BRANCH   2  19
ATOM     19  C   UNL     1      -4.169   0.366  23.464  0.00  0.00    +0.136 C 
BRANCH  19  20
ATOM      5  N   UNL     1      -2.276  -0.836  24.411  0.00  0.00    -0.259 NA
ATOM     20  C   UNL     1      -3.545  -0.916  23.950  0.00  0.00    +0.055 A 
ATOM     22  C   UNL     1      -4.282  -2.088  23.904  0.00  0.00    +0.024 A 
ATOM     24  C   UNL     1      -3.678  -3.254  24.360  0.00  0.00    +0.003 A 
ATOM     25  C   UNL     1      -1.723  -1.990  24.847  0.00  0.00    +0.111 A 
ATOM     28  C   UNL     1      -2.374  -3.213  24.842  0.00  0.00    +0.020 A 
ENDBRANCH  19  20
ENDBRANCH   2  19
ENDBRANCH  13   2
ENDBRANCH   7  13
BRANCH   9  14
ATOM     14  C   UNL     1      -0.649   2.949  26.160  0.00  0.00    +0.105 C 
BRANCH  14  18
ATOM      1  O   UNL     1       1.201   1.839  25.020  0.00  0.00    -0.420 OA
ATOM      3  N   UNL     1      -0.760   1.673  23.957  0.00  0.00    -0.112 NA
ATOM      4  N   UNL     1       0.189   1.006  23.207  0.00  0.00    -0.107 NA
ATOM     18  C   UNL     1      -0.126   2.143  25.006  0.00  0.00    +0.218 A 
ATOM     21  C   UNL     1       1.319   1.129  23.865  0.00  0.00    +0.248 A 
BRANCH  21  23
ATOM     23  C   UNL     1       2.631   0.639  23.560  0.00  0.00    +0.038 A 
ATOM     26  C   UNL     1       2.948  -0.699  23.793  0.00  0.00    +0.013 A 
ATOM     27  C   UNL     1       3.592   1.501  23.030  0.00  0.00    +0.013 A 
ATOM     29  C   UNL     1       4.225  -1.176  23.496  0.00  0.00    +0.004 A 
ATOM     30  C   UNL     1       4.869   1.024  22.733  0.00  0.00    +0.004 A 
ATOM     31  C   UNL     1       5.185  -0.314  22.966  0.00  0.00    -0.050 A 
ATOM     32  C   UNL     1       6.550  -0.824  22.649  0.00  0.00    +0.044 C 
ENDBRANCH  21  23
ENDBRANCH  14  18
ENDBRANCH   9  14
TORSDOF 8
ENDMDL
