MODEL 1
REMARK VINA RESULT:      -4.9      0.000      0.000
REMARK  Name = 26762517
REMARK  7 active torsions:
REMARK  status: ('A' for Active; 'I' for Inactive)
REMARK    1  A    between atoms: S_1  and  N_9
REMARK    2  A    between atoms: S_1  and  C_21
REMARK    3  A    between atoms: N_9  and  C_12
REMARK    4  A    between atoms: N_10  and  C_25
REMARK    5  A    between atoms: C_14  and  C_18
REMARK    6  A    between atoms: C_18  and  C_19
REMARK    7  A    between atoms: C_19  and  C_20
REMARK                            x       y       z     vdW  Elec       q    Type
REMARK                         _______ _______ _______ _____ _____    ______ ____
ROOT
ATOM      3  O   UNL     1       0.979   2.848  26.542  0.00  0.00    -0.274 OA
ATOM      7  N   UNL     1      -2.137   2.170  24.845  0.00  0.00    -0.285 NA
ATOM      8  N   UNL     1      -0.582   4.312  25.760  0.00  0.00    -0.313 N 
ATOM     11  C   UNL     1      -1.130   1.902  25.872  0.00  0.00    +0.145 C 
ATOM     12  C   UNL     1      -0.598   0.710  23.831  0.00  0.00    +0.092 C 
ATOM     13  C   UNL     1      -0.468   0.629  25.353  0.00  0.00    +0.050 C 
ATOM     14  C   UNL     1      -2.790   3.466  25.021  0.00  0.00    +0.075 C 
ATOM     15  C   UNL     1      -1.506   1.907  23.553  0.00  0.00    +0.106 C 
ATOM     16  C   UNL     1      -1.781   4.609  25.004  0.00  0.00    +0.123 C 
ATOM     17  C   UNL     1      -0.137   3.045  26.057  0.00  0.00    +0.230 C 
ATOM     31  H   UNL     1       0.057   5.083  25.937  0.00  0.00    +0.149 HD
ENDROOT
BRANCH  12   9
ATOM      9  N   UNL     1       0.729   0.929  23.212  0.00  0.00    -0.185 NA
ATOM     32  H   UNL     1       0.874   1.865  22.811  0.00  0.00    +0.148 HD
BRANCH   9   1
ATOM      1  S   UNL     1       1.561  -0.376  22.513  0.00  0.00    +0.065 S 
ATOM      4  O   UNL     1       1.487  -0.277  21.067  0.00  0.00    -0.153 OA
ATOM      5  O   UNL     1       1.160  -1.598  23.182  0.00  0.00    -0.153 OA
BRANCH   1  21
ATOM      2  S   UNL     1       4.026  -1.352  23.762  0.00  0.00    -0.077 S 
ATOM     21  C   UNL     1       3.229  -0.045  22.996  0.00  0.00    +0.142 A 
ATOM     22  C   UNL     1       4.041   1.063  22.884  0.00  0.00    +0.036 A 
ATOM     23  C   UNL     1       5.335   0.834  23.436  0.00  0.00    +0.010 A 
ATOM     24  C   UNL     1       5.462  -0.439  23.947  0.00  0.00    +0.047 A 
ENDBRANCH   1  21
ENDBRANCH   9   1
ENDBRANCH  12   9
BRANCH  14  18
ATOM     18  C   UNL     1      -3.903   3.700  24.000  0.00  0.00    +0.029 C 
BRANCH  18  19
ATOM     19  C   UNL     1      -5.250   3.170  24.482  0.00  0.00    +0.098 C 
BRANCH  19  20
ATOM      6  O   UNL     1      -5.769   1.496  26.137  0.00  0.00    -0.275 OA
ATOM     10  N   UNL     1      -4.415   0.930  24.305  0.00  0.00    -0.285 N 
ATOM     20  C   UNL     1      -5.184   1.777  25.096  0.00  0.00    +0.217 C 
ATOM     33  H   UNL     1      -4.007   1.321  23.458  0.00  0.00    +0.155 HD
BRANCH  10  25
ATOM     25  C   UNL     1      -4.118  -0.434  24.537  0.00  0.00    +0.033 A 
ATOM     26  C   UNL     1      -3.573  -0.832  25.759  0.00  0.00    +0.023 A 
ATOM     27  C   UNL     1      -4.371  -1.381  23.545  0.00  0.00    +0.023 A 
ATOM     28  C   UNL     1      -3.281  -2.177  25.986  0.00  0.00    +0.002 A 
ATOM     29  C   UNL     1      -4.079  -2.726  23.773  0.00  0.00    +0.002 A 
ATOM     30  C   UNL     1      -3.534  -3.124  24.994  0.00  0.00    +0.000 A 
ENDBRANCH  10  25
ENDBRANCH  19  20
ENDBRANCH  18  19
ENDBRANCH  14  18
TORSDOF 7
ENDMDL
