MODEL 1
REMARK VINA RESULT:      -4.8      0.000      0.000
REMARK  Name = 75536134
REMARK  8 active torsions:
REMARK  status: ('A' for Active; 'I' for Inactive)
REMARK    1  A    between atoms: O_4  and  C_12
REMARK    2  A    between atoms: O_5  and  C_14
REMARK    3  A    between atoms: O_7  and  C_21
REMARK    4  A    between atoms: O_7  and  C_25
REMARK    5  A    between atoms: N_8  and  C_11
REMARK    6  A    between atoms: N_9  and  C_22
REMARK    7  A    between atoms: C_10  and  C_15
REMARK    8  A    between atoms: C_28  and  C_29
REMARK                            x       y       z     vdW  Elec       q    Type
REMARK                         _______ _______ _______ _____ _____    ______ ____
ROOT
ATOM     10  C   UNL     1      16.169  -8.020  30.567  0.00  0.00    +0.044 C 
ATOM     11  C   UNL     1      16.155  -8.400  29.069  0.00  0.00    +0.113 C 
ATOM     12  C   UNL     1      16.723  -9.819  29.057  0.00  0.00    +0.164 C 
ATOM     13  C   UNL     1      16.160  -9.362  31.343  0.00  0.00    +0.044 C 
ATOM     14  C   UNL     1      16.081 -10.458  30.282  0.00  0.00    +0.145 C 
ENDROOT
BRANCH  11   8
ATOM      6  O   UNL     1      15.189  -6.507  27.148  0.00  0.00    -0.252 OA
ATOM      8  N   UNL     1      16.950  -7.496  28.275  0.00  0.00    -0.293 N 
ATOM      9  N   UNL     1      17.405  -5.853  26.735  0.00  0.00    -0.269 N 
ATOM     18  C   UNL     1      16.398  -6.597  27.354  0.00  0.00    +0.304 C 
ATOM     30  H   UNL     1      17.951  -7.461  28.439  0.00  0.00    +0.151 HD
ATOM     33  H   UNL     1      18.361  -6.052  27.020  0.00  0.00    +0.156 HD
BRANCH   9  22
ATOM     22  C   UNL     1      17.262  -4.847  25.750  0.00  0.00    +0.035 A 
ATOM     23  C   UNL     1      17.179  -5.197  24.402  0.00  0.00    +0.024 A 
ATOM     24  C   UNL     1      17.203  -3.505  26.127  0.00  0.00    +0.024 A 
ATOM     26  C   UNL     1      17.037  -4.206  23.432  0.00  0.00    +0.014 A 
ATOM     27  C   UNL     1      17.061  -2.514  25.156  0.00  0.00    +0.014 A 
ATOM     28  C   UNL     1      16.979  -2.864  23.809  0.00  0.00    +0.055 A 
BRANCH  28  29
ATOM      1  F   UNL     1      17.389  -2.130  21.569  0.00  0.00    -0.166 F 
ATOM      2  F   UNL     1      17.396  -0.612  23.117  0.00  0.00    -0.166 F 
ATOM      3  F   UNL     1      15.520  -1.519  22.498  0.00  0.00    -0.166 F 
ATOM     29  C   UNL     1      16.827  -1.804  22.770  0.00  0.00    +0.417 C 
ENDBRANCH  28  29
ENDBRANCH   9  22
ENDBRANCH  11   8
BRANCH  10  15
ATOM     15  C   UNL     1      15.051  -7.072  30.947  0.00  0.00    -0.042 A 
ATOM     16  C   UNL     1      15.333  -5.921  31.684  0.00  0.00    +0.007 A 
ATOM     17  C   UNL     1      13.740  -7.349  30.563  0.00  0.00    +0.007 A 
ATOM     19  C   UNL     1      14.304  -5.048  32.036  0.00  0.00    +0.046 A 
ATOM     20  C   UNL     1      12.711  -6.476  30.914  0.00  0.00    +0.046 A 
ATOM     21  C   UNL     1      12.993  -5.326  31.650  0.00  0.00    +0.120 A 
BRANCH  21   7
ATOM      7  O   UNL     1      11.987  -4.475  31.994  0.00  0.00    -0.495 OA
ATOM     25  C   UNL     1      10.970  -4.987  32.854  0.00  0.00    +0.277 C 
ENDBRANCH  21   7
ENDBRANCH  10  15
BRANCH  12   4
ATOM      4  O   UNL     1      16.384 -10.522  27.876  0.00  0.00    -0.387 OA
ATOM     31  H   UNL     1      16.877 -11.360  27.884  0.00  0.00    +0.210 HD
ENDBRANCH  12   4
BRANCH  14   5
ATOM      5  O   UNL     1      14.711 -10.762  30.041  0.00  0.00    -0.389 OA
ATOM     32  H   UNL     1      14.243 -10.697  30.890  0.00  0.00    +0.210 HD
ENDBRANCH  14   5
TORSDOF 7
ENDMDL
