MODEL 1
REMARK VINA RESULT:       2.0      0.000      0.000
REMARK  Name = 45783286
REMARK  4 active torsions:
REMARK  status: ('A' for Active; 'I' for Inactive)
REMARK    1  A    between atoms: N_3  and  C_13
REMARK    2  A    between atoms: C_9  and  C_14
REMARK    3  A    between atoms: C_13  and  C_15
REMARK    4  A    between atoms: C_17  and  C_19
REMARK                            x       y       z     vdW  Elec       q    Type
REMARK                         _______ _______ _______ _____ _____    ______ ____
ROOT
ATOM      1  O   UNL     1      -1.728   3.348  24.800  0.00  0.00    -0.336 OA
ATOM      4  N   UNL     1      -2.215   1.773  23.283  0.00  0.00    -0.190 NA
ATOM      6  N   UNL     1      -0.520   2.702  24.506  0.00  0.00    -0.056 NA
ATOM     14  C   UNL     1      -2.675   2.739  24.038  0.00  0.00    +0.245 A 
ATOM     17  C   UNL     1      -0.889   1.788  23.605  0.00  0.00    +0.202 A 
ENDROOT
BRANCH  17  19
ATOM      2  O   UNL     1       6.298  -0.048  23.875  0.00  0.00    -0.377 OA
ATOM      5  N   UNL     1       3.554  -0.064  23.266  0.00  0.00    -0.311 N 
ATOM      8  N   UNL     1       1.855  -0.913  21.854  0.00  0.00    -0.240 NA
ATOM     19  C   UNL     1       0.042   0.873  23.010  0.00  0.00    +0.027 A 
ATOM     21  C   UNL     1       4.339   1.171  23.127  0.00  0.00    +0.134 C 
ATOM     22  C   UNL     1       4.331  -1.306  23.214  0.00  0.00    +0.134 C 
ATOM     23  C   UNL     1       2.225  -0.053  22.829  0.00  0.00    +0.122 A 
ATOM     24  C   UNL     1       5.527   1.135  24.082  0.00  0.00    +0.178 C 
ATOM     25  C   UNL     1       5.520  -1.210  24.163  0.00  0.00    +0.178 C 
ATOM     27  C   UNL     1       1.367   0.850  23.434  0.00  0.00    +0.055 A 
ATOM     28  C   UNL     1      -0.377   0.005  22.009  0.00  0.00    +0.031 A 
ATOM     31  C   UNL     1       0.560  -0.861  21.468  0.00  0.00    +0.113 A 
ENDBRANCH  17  19
BRANCH  14   9
ATOM      3  N   UNL     1      -4.807   2.668  25.318  0.00  0.00    -0.287 NA
ATOM      9  C   UNL     1      -4.089   3.262  24.172  0.00  0.00    +0.146 C 
ATOM     10  C   UNL     1      -4.142   4.780  24.422  0.00  0.00    +0.030 C 
ATOM     11  C   UNL     1      -4.959   4.946  25.695  0.00  0.00    +0.017 C 
ATOM     12  C   UNL     1      -5.775   3.671  25.764  0.00  0.00    +0.085 C 
BRANCH   3  13
ATOM     13  C   UNL     1      -5.443   1.396  25.002  0.00  0.00    +0.121 C 
BRANCH  13  15
ATOM      7  N   UNL     1      -3.850  -1.791  23.783  0.00  0.00    -0.255 NA
ATOM     15  C   UNL     1      -4.460   0.293  24.837  0.00  0.00    -0.015 A 
ATOM     16  C   UNL     1      -3.266   0.282  25.544  0.00  0.00    +0.016 A 
ATOM     18  C   UNL     1      -4.702  -0.759  23.976  0.00  0.00    +0.116 A 
ATOM     20  C   UNL     1      -2.356  -0.769  25.372  0.00  0.00    +0.001 A 
ATOM     26  C   UNL     1      -2.692  -1.799  24.469  0.00  0.00    +0.071 A 
ATOM     29  C   UNL     1      -1.138  -0.809  26.073  0.00  0.00    +0.010 A 
ATOM     30  C   UNL     1      -1.786  -2.843  24.300  0.00  0.00    +0.028 A 
ATOM     32  C   UNL     1      -0.251  -1.865  25.884  0.00  0.00    +0.001 A 
ATOM     33  C   UNL     1      -0.576  -2.884  24.997  0.00  0.00    +0.002 A 
ENDBRANCH  13  15
ENDBRANCH   3  13
ENDBRANCH  14   9
TORSDOF 4
ENDMDL
