MODEL 1
REMARK VINA RESULT:      -2.5      0.000      0.000
REMARK  Name = 11943210
REMARK  9 active torsions:
REMARK  status: ('A' for Active; 'I' for Inactive)
REMARK    1  A    between atoms: O_1  and  C_14
REMARK    2  A    between atoms: O_1  and  C_17
REMARK    3  A    between atoms: O_3  and  C_21
REMARK    4  A    between atoms: O_3  and  C_24
REMARK    5  A    between atoms: O_4  and  C_22
REMARK    6  A    between atoms: O_4  and  C_25
REMARK    7  A    between atoms: N_6  and  C_18
REMARK    8  A    between atoms: C_8  and  C_14
REMARK    9  A    between atoms: C_10  and  C_15
REMARK                            x       y       z     vdW  Elec       q    Type
REMARK                         _______ _______ _______ _____ _____    ______ ____
ROOT
ATOM      2  O   UNL     1      -0.033   4.036  23.527  0.00  0.00    -0.226 OA
ATOM      6  N   UNL     1      -0.668   2.397  25.073  0.00  0.00    -0.251 N 
ATOM     17  C   UNL     1      -0.567   3.680  24.570  0.00  0.00    +0.405 C 
ATOM     26  H   UNL     1      -1.151   2.300  25.962  0.00  0.00    +0.158 HD
ENDROOT
BRANCH   6  18
ATOM     18  C   UNL     1      -0.180   1.199  24.503  0.00  0.00    +0.043 A 
ATOM     19  C   UNL     1      -0.827   0.004  24.779  0.00  0.00    +0.069 A 
ATOM     20  C   UNL     1       0.933   1.241  23.680  0.00  0.00    +0.069 A 
ATOM     21  C   UNL     1       1.414   0.059  23.117  0.00  0.00    +0.125 A 
ATOM     22  C   UNL     1      -0.346  -1.179  24.217  0.00  0.00    +0.125 A 
ATOM     23  C   UNL     1       0.774  -1.151  23.386  0.00  0.00    +0.091 A 
BRANCH  21   3
ATOM      3  O   UNL     1       2.508   0.085  22.307  0.00  0.00    -0.495 OA
ATOM     24  C   UNL     1       3.647   0.804  22.776  0.00  0.00    +0.277 C 
ENDBRANCH  21   3
BRANCH  22   4
ATOM      4  O   UNL     1      -0.970  -2.360  24.478  0.00  0.00    -0.495 OA
ATOM     25  C   UNL     1      -2.396  -2.341  24.546  0.00  0.00    +0.277 C 
ENDBRANCH  22   4
ENDBRANCH   6  18
BRANCH  17   1
ATOM      1  O   UNL     1      -1.176   4.559  25.438  0.00  0.00    -0.449 OA
BRANCH   1  14
ATOM     14  C   UNL     1      -1.932   3.992  26.490  0.00  0.00    +0.252 C 
BRANCH  14   8
ATOM      5  N   UNL     1      -4.152   2.834  26.351  0.00  0.00    -0.295 NA
ATOM      7  C   UNL     1      -4.750   3.821  24.018  0.00  0.00    +0.008 C 
ATOM      8  C   UNL     1      -3.416   4.109  26.134  0.00  0.00    +0.095 C 
ATOM      9  C   UNL     1      -3.622   4.628  24.694  0.00  0.00    +0.027 C 
ATOM     10  C   UNL     1      -4.312   2.345  23.898  0.00  0.00    +0.081 C 
ATOM     11  C   UNL     1      -5.966   3.851  24.964  0.00  0.00    +0.020 C 
ATOM     12  C   UNL     1      -3.822   1.862  25.280  0.00  0.00    +0.101 C 
ATOM     13  C   UNL     1      -5.605   3.129  26.274  0.00  0.00    +0.085 C 
BRANCH  10  15
ATOM     15  C   UNL     1      -3.282   2.158  22.863  0.00  0.00    -0.101 C 
ATOM     16  C   UNL     1      -2.441   2.005  22.020  0.00  0.00    +0.004 C 
ENDBRANCH  10  15
ENDBRANCH  14   8
ENDBRANCH   1  14
ENDBRANCH  17   1
TORSDOF 7
ENDMDL
MODEL 2
REMARK VINA RESULT:      -2.5      0.015      2.593
REMARK  Name = 11943210
REMARK  9 active torsions:
REMARK  status: ('A' for Active; 'I' for Inactive)
REMARK    1  A    between atoms: O_1  and  C_14
REMARK    2  A    between atoms: O_1  and  C_17
REMARK    3  A    between atoms: O_3  and  C_21
REMARK    4  A    between atoms: O_3  and  C_24
REMARK    5  A    between atoms: O_4  and  C_22
REMARK    6  A    between atoms: O_4  and  C_25
REMARK    7  A    between atoms: N_6  and  C_18
REMARK    8  A    between atoms: C_8  and  C_14
REMARK    9  A    between atoms: C_10  and  C_15
REMARK                            x       y       z     vdW  Elec       q    Type
REMARK                         _______ _______ _______ _____ _____    ______ ____
ROOT
ATOM      2  O   UNL     1      -0.042   4.031  23.531  0.00  0.00    -0.226 OA
ATOM      6  N   UNL     1      -0.656   2.385  25.079  0.00  0.00    -0.251 N 
ATOM     17  C   UNL     1      -0.564   3.670  24.579  0.00  0.00    +0.405 C 
ATOM     26  H   UNL     1      -1.129   2.285  25.973  0.00  0.00    +0.158 HD
ENDROOT
BRANCH   6  18
ATOM     18  C   UNL     1      -0.172   1.190  24.501  0.00  0.00    +0.043 A 
ATOM     19  C   UNL     1       0.943   1.238  23.679  0.00  0.00    +0.069 A 
ATOM     20  C   UNL     1      -0.819  -0.005  24.768  0.00  0.00    +0.069 A 
ATOM     21  C   UNL     1      -0.341  -1.185  24.197  0.00  0.00    +0.125 A 
ATOM     22  C   UNL     1       1.422   0.059  23.108  0.00  0.00    +0.125 A 
ATOM     23  C   UNL     1       0.781  -1.153  23.367  0.00  0.00    +0.091 A 
BRANCH  21   3
ATOM      3  O   UNL     1      -0.967  -2.367  24.449  0.00  0.00    -0.495 OA
ATOM     24  C   UNL     1      -2.391  -2.342  24.535  0.00  0.00    +0.277 C 
ENDBRANCH  21   3
BRANCH  22   4
ATOM      4  O   UNL     1       2.516   0.089  22.299  0.00  0.00    -0.495 OA
ATOM     25  C   UNL     1       3.655   0.806  22.772  0.00  0.00    +0.277 C 
ENDBRANCH  22   4
ENDBRANCH   6  18
BRANCH  17   1
ATOM      1  O   UNL     1      -1.166   4.546  25.456  0.00  0.00    -0.449 OA
BRANCH   1  14
ATOM     14  C   UNL     1      -1.930   3.974  26.500  0.00  0.00    +0.252 C 
BRANCH  14   8
ATOM      5  N   UNL     1      -4.156   2.831  26.349  0.00  0.00    -0.295 NA
ATOM      7  C   UNL     1      -4.738   3.827  24.016  0.00  0.00    +0.008 C 
ATOM      8  C   UNL     1      -3.411   4.101  26.139  0.00  0.00    +0.095 C 
ATOM      9  C   UNL     1      -3.608   4.625  24.698  0.00  0.00    +0.027 C 
ATOM     10  C   UNL     1      -4.310   2.348  23.894  0.00  0.00    +0.081 C 
ATOM     11  C   UNL     1      -5.958   3.863  24.957  0.00  0.00    +0.020 C 
ATOM     12  C   UNL     1      -3.828   1.859  25.277  0.00  0.00    +0.101 C 
ATOM     13  C   UNL     1      -5.607   3.135  26.267  0.00  0.00    +0.085 C 
BRANCH  10  15
ATOM     15  C   UNL     1      -3.276   2.157  22.864  0.00  0.00    -0.101 C 
ATOM     16  C   UNL     1      -2.433   2.000  22.024  0.00  0.00    +0.004 C 
ENDBRANCH  10  15
ENDBRANCH  14   8
ENDBRANCH   1  14
ENDBRANCH  17   1
TORSDOF 7
ENDMDL
MODEL 3
REMARK VINA RESULT:      -1.5      1.307      2.539
REMARK  Name = 11943210
REMARK  9 active torsions:
REMARK  status: ('A' for Active; 'I' for Inactive)
REMARK    1  A    between atoms: O_1  and  C_14
REMARK    2  A    between atoms: O_1  and  C_17
REMARK    3  A    between atoms: O_3  and  C_21
REMARK    4  A    between atoms: O_3  and  C_24
REMARK    5  A    between atoms: O_4  and  C_22
REMARK    6  A    between atoms: O_4  and  C_25
REMARK    7  A    between atoms: N_6  and  C_18
REMARK    8  A    between atoms: C_8  and  C_14
REMARK    9  A    between atoms: C_10  and  C_15
REMARK                            x       y       z     vdW  Elec       q    Type
REMARK                         _______ _______ _______ _____ _____    ______ ____
ROOT
ATOM      2  O   UNL     1       0.521   2.705  26.756  0.00  0.00    -0.226 OA
ATOM      6  N   UNL     1      -0.233   2.631  24.541  0.00  0.00    -0.251 N 
ATOM     17  C   UNL     1      -0.139   3.142  25.822  0.00  0.00    +0.405 C 
ATOM     26  H   UNL     1      -0.837   3.137  23.899  0.00  0.00    +0.158 HD
ENDROOT
BRANCH   6  18
ATOM     18  C   UNL     1       0.407   1.487  24.013  0.00  0.00    +0.043 A 
ATOM     19  C   UNL     1      -0.230   0.258  24.086  0.00  0.00    +0.069 A 
ATOM     20  C   UNL     1       1.658   1.615  23.430  0.00  0.00    +0.069 A 
ATOM     21  C   UNL     1       2.289   0.486  22.909  0.00  0.00    +0.125 A 
ATOM     22  C   UNL     1       0.400  -0.871  23.564  0.00  0.00    +0.125 A 
ATOM     23  C   UNL     1       1.660  -0.757  22.975  0.00  0.00    +0.091 A 
BRANCH  21   3
ATOM      3  O   UNL     1       3.518   0.596  22.334  0.00  0.00    -0.495 OA
ATOM     24  C   UNL     1       4.650   0.436  23.188  0.00  0.00    +0.277 C 
ENDBRANCH  21   3
BRANCH  22   4
ATOM      4  O   UNL     1      -0.213  -2.085  23.628  0.00  0.00    -0.495 OA
ATOM     25  C   UNL     1      -1.382  -2.181  24.441  0.00  0.00    +0.277 C 
ENDBRANCH  22   4
ENDBRANCH   6  18
BRANCH  17   1
ATOM      1  O   UNL     1      -0.923   4.270  25.922  0.00  0.00    -0.449 OA
BRANCH   1  14
ATOM     14  C   UNL     1      -2.309   4.101  25.698  0.00  0.00    +0.252 C 
BRANCH  14   8
ATOM      5  N   UNL     1      -3.427   3.170  23.656  0.00  0.00    -0.295 NA
ATOM      7  C   UNL     1      -4.082   0.921  24.790  0.00  0.00    +0.008 C 
ATOM      8  C   UNL     1      -2.507   2.886  24.789  0.00  0.00    +0.095 C 
ATOM      9  C   UNL     1      -2.974   1.645  25.583  0.00  0.00    +0.027 C 
ATOM     10  C   UNL     1      -5.306   1.854  24.666  0.00  0.00    +0.081 C 
ATOM     11  C   UNL     1      -3.549   0.690  23.364  0.00  0.00    +0.020 C 
ATOM     12  C   UNL     1      -4.831   3.224  24.134  0.00  0.00    +0.101 C 
ATOM     13  C   UNL     1      -3.313   2.052  22.686  0.00  0.00    +0.085 C 
BRANCH  10  15
ATOM     15  C   UNL     1      -6.027   1.991  25.942  0.00  0.00    -0.101 C 
ATOM     16  C   UNL     1      -6.615   2.103  26.983  0.00  0.00    +0.004 C 
ENDBRANCH  10  15
ENDBRANCH  14   8
ENDBRANCH   1  14
ENDBRANCH  17   1
TORSDOF 7
ENDMDL
MODEL 4
REMARK VINA RESULT:      -1.5      1.303      3.591
REMARK  Name = 11943210
REMARK  9 active torsions:
REMARK  status: ('A' for Active; 'I' for Inactive)
REMARK    1  A    between atoms: O_1  and  C_14
REMARK    2  A    between atoms: O_1  and  C_17
REMARK    3  A    between atoms: O_3  and  C_21
REMARK    4  A    between atoms: O_3  and  C_24
REMARK    5  A    between atoms: O_4  and  C_22
REMARK    6  A    between atoms: O_4  and  C_25
REMARK    7  A    between atoms: N_6  and  C_18
REMARK    8  A    between atoms: C_8  and  C_14
REMARK    9  A    between atoms: C_10  and  C_15
REMARK                            x       y       z     vdW  Elec       q    Type
REMARK                         _______ _______ _______ _____ _____    ______ ____
ROOT
ATOM      2  O   UNL     1       0.567   2.722  26.718  0.00  0.00    -0.226 OA
ATOM      6  N   UNL     1      -0.240   2.620  24.524  0.00  0.00    -0.251 N 
ATOM     17  C   UNL     1      -0.118   3.145  25.796  0.00  0.00    +0.405 C 
ATOM     26  H   UNL     1      -0.864   3.116  23.892  0.00  0.00    +0.158 HD
ENDROOT
BRANCH   6  18
ATOM     18  C   UNL     1       0.394   1.475  23.991  0.00  0.00    +0.043 A 
ATOM     19  C   UNL     1       1.648   1.601  23.414  0.00  0.00    +0.069 A 
ATOM     20  C   UNL     1      -0.249   0.250  24.056  0.00  0.00    +0.069 A 
ATOM     21  C   UNL     1       0.377  -0.880  23.530  0.00  0.00    +0.125 A 
ATOM     22  C   UNL     1       2.275   0.471  22.889  0.00  0.00    +0.125 A 
ATOM     23  C   UNL     1       1.640  -0.770  22.947  0.00  0.00    +0.091 A 
BRANCH  21   3
ATOM      3  O   UNL     1      -0.242  -2.091  23.586  0.00  0.00    -0.495 OA
ATOM     24  C   UNL     1      -1.375  -2.202  24.445  0.00  0.00    +0.277 C 
ENDBRANCH  21   3
BRANCH  22   4
ATOM      4  O   UNL     1       3.507   0.578  22.320  0.00  0.00    -0.495 OA
ATOM     25  C   UNL     1       4.634   0.509  23.192  0.00  0.00    +0.277 C 
ENDBRANCH  22   4
ENDBRANCH   6  18
BRANCH  17   1
ATOM      1  O   UNL     1      -0.908   4.269  25.904  0.00  0.00    -0.449 OA
BRANCH   1  14
ATOM     14  C   UNL     1      -2.296   4.091  25.700  0.00  0.00    +0.252 C 
BRANCH  14   8
ATOM      5  N   UNL     1      -3.409   3.164  23.654  0.00  0.00    -0.295 NA
ATOM      7  C   UNL     1      -4.094   0.925  24.792  0.00  0.00    +0.008 C 
ATOM      8  C   UNL     1      -2.499   2.875  24.795  0.00  0.00    +0.095 C 
ATOM      9  C   UNL     1      -2.984   1.641  25.590  0.00  0.00    +0.027 C 
ATOM     10  C   UNL     1      -5.308   1.870  24.656  0.00  0.00    +0.081 C 
ATOM     11  C   UNL     1      -3.553   0.684  23.370  0.00  0.00    +0.020 C 
ATOM     12  C   UNL     1      -4.815   3.233  24.122  0.00  0.00    +0.101 C 
ATOM     13  C   UNL     1      -3.299   2.041  22.689  0.00  0.00    +0.085 C 
BRANCH  10  15
ATOM     15  C   UNL     1      -6.036   2.018  25.926  0.00  0.00    -0.101 C 
ATOM     16  C   UNL     1      -6.630   2.140  26.962  0.00  0.00    +0.004 C 
ENDBRANCH  10  15
ENDBRANCH  14   8
ENDBRANCH   1  14
ENDBRANCH  17   1
TORSDOF 7
ENDMDL
MODEL 5
REMARK VINA RESULT:      -0.9      2.269      4.432
REMARK  Name = 11943210
REMARK  9 active torsions:
REMARK  status: ('A' for Active; 'I' for Inactive)
REMARK    1  A    between atoms: O_1  and  C_14
REMARK    2  A    between atoms: O_1  and  C_17
REMARK    3  A    between atoms: O_3  and  C_21
REMARK    4  A    between atoms: O_3  and  C_24
REMARK    5  A    between atoms: O_4  and  C_22
REMARK    6  A    between atoms: O_4  and  C_25
REMARK    7  A    between atoms: N_6  and  C_18
REMARK    8  A    between atoms: C_8  and  C_14
REMARK    9  A    between atoms: C_10  and  C_15
REMARK                            x       y       z     vdW  Elec       q    Type
REMARK                         _______ _______ _______ _____ _____    ______ ____
ROOT
ATOM      2  O   UNL     1      -6.042   0.660  24.312  0.00  0.00    -0.226 OA
ATOM      6  N   UNL     1      -3.987   0.990  25.383  0.00  0.00    -0.251 N 
ATOM     17  C   UNL     1      -5.283   1.307  25.022  0.00  0.00    +0.405 C 
ATOM     26  H   UNL     1      -3.512   1.659  25.983  0.00  0.00    +0.158 HD
ENDROOT
BRANCH   6  18
ATOM     18  C   UNL     1      -3.237  -0.150  25.017  0.00  0.00    +0.043 A 
ATOM     19  C   UNL     1      -1.863  -0.039  24.865  0.00  0.00    +0.069 A 
ATOM     20  C   UNL     1      -3.887  -1.357  24.820  0.00  0.00    +0.069 A 
ATOM     21  C   UNL     1      -3.147  -2.483  24.460  0.00  0.00    +0.125 A 
ATOM     22  C   UNL     1      -1.122  -1.164  24.504  0.00  0.00    +0.125 A 
ATOM     23  C   UNL     1      -1.764  -2.387  24.302  0.00  0.00    +0.091 A 
BRANCH  21   3
ATOM      3  O   UNL     1      -3.772  -3.676  24.261  0.00  0.00    -0.495 OA
ATOM     24  C   UNL     1      -4.845  -3.698  23.322  0.00  0.00    +0.277 C 
ENDBRANCH  21   3
BRANCH  22   4
ATOM      4  O   UNL     1       0.227  -1.071  24.351  0.00  0.00    -0.495 OA
ATOM     25  C   UNL     1       0.707  -0.170  23.354  0.00  0.00    +0.277 C 
ENDBRANCH  22   4
ENDBRANCH   6  18
BRANCH  17   1
ATOM      1  O   UNL     1      -5.635   2.510  25.594  0.00  0.00    -0.449 OA
BRANCH   1  14
ATOM     14  C   UNL     1      -4.663   3.134  26.410  0.00  0.00    +0.252 C 
BRANCH  14   8
ATOM      5  N   UNL     1      -3.694   3.910  24.232  0.00  0.00    -0.295 NA
ATOM      7  C   UNL     1      -1.704   5.175  25.333  0.00  0.00    +0.008 C 
ATOM      8  C   UNL     1      -4.045   4.293  25.626  0.00  0.00    +0.095 C 
ATOM      9  C   UNL     1      -2.824   4.895  26.357  0.00  0.00    +0.027 C 
ATOM     10  C   UNL     1      -1.236   3.838  24.719  0.00  0.00    +0.081 C 
ATOM     11  C   UNL     1      -2.324   6.000  24.190  0.00  0.00    +0.020 C 
ATOM     12  C   UNL     1      -2.476   3.062  24.223  0.00  0.00    +0.101 C 
ATOM     13  C   UNL     1      -3.396   5.154  23.479  0.00  0.00    +0.085 C 
BRANCH  10  15
ATOM     15  C   UNL     1      -0.446   3.040  25.671  0.00  0.00    -0.101 C 
ATOM     16  C   UNL     1       0.199   2.390  26.447  0.00  0.00    +0.004 C 
ENDBRANCH  10  15
ENDBRANCH  14   8
ENDBRANCH   1  14
ENDBRANCH  17   1
TORSDOF 7
ENDMDL
MODEL 6
REMARK VINA RESULT:      -0.9      2.271      3.692
REMARK  Name = 11943210
REMARK  9 active torsions:
REMARK  status: ('A' for Active; 'I' for Inactive)
REMARK    1  A    between atoms: O_1  and  C_14
REMARK    2  A    between atoms: O_1  and  C_17
REMARK    3  A    between atoms: O_3  and  C_21
REMARK    4  A    between atoms: O_3  and  C_24
REMARK    5  A    between atoms: O_4  and  C_22
REMARK    6  A    between atoms: O_4  and  C_25
REMARK    7  A    between atoms: N_6  and  C_18
REMARK    8  A    between atoms: C_8  and  C_14
REMARK    9  A    between atoms: C_10  and  C_15
REMARK                            x       y       z     vdW  Elec       q    Type
REMARK                         _______ _______ _______ _____ _____    ______ ____
ROOT
ATOM      2  O   UNL     1      -6.022   0.650  24.317  0.00  0.00    -0.226 OA
ATOM      6  N   UNL     1      -3.968   0.979  25.390  0.00  0.00    -0.251 N 
ATOM     17  C   UNL     1      -5.263   1.296  25.029  0.00  0.00    +0.405 C 
ATOM     26  H   UNL     1      -3.494   1.647  25.993  0.00  0.00    +0.158 HD
ENDROOT
BRANCH   6  18
ATOM     18  C   UNL     1      -3.217  -0.161  25.023  0.00  0.00    +0.043 A 
ATOM     19  C   UNL     1      -3.872  -1.361  24.798  0.00  0.00    +0.069 A 
ATOM     20  C   UNL     1      -1.842  -0.056  24.894  0.00  0.00    +0.069 A 
ATOM     21  C   UNL     1      -1.100  -1.180  24.532  0.00  0.00    +0.125 A 
ATOM     22  C   UNL     1      -3.131  -2.486  24.435  0.00  0.00    +0.125 A 
ATOM     23  C   UNL     1      -1.745  -2.396  24.302  0.00  0.00    +0.091 A 
BRANCH  21   3
ATOM      3  O   UNL     1       0.252  -1.094  24.403  0.00  0.00    -0.495 OA
ATOM     24  C   UNL     1       0.753  -0.210  23.401  0.00  0.00    +0.277 C 
ENDBRANCH  21   3
BRANCH  22   4
ATOM      4  O   UNL     1      -3.760  -3.672  24.210  0.00  0.00    -0.495 OA
ATOM     25  C   UNL     1      -4.896  -3.652  23.346  0.00  0.00    +0.277 C 
ENDBRANCH  22   4
ENDBRANCH   6  18
BRANCH  17   1
ATOM      1  O   UNL     1      -5.616   2.498  25.603  0.00  0.00    -0.449 OA
BRANCH   1  14
ATOM     14  C   UNL     1      -4.643   3.123  26.417  0.00  0.00    +0.252 C 
BRANCH  14   8
ATOM      5  N   UNL     1      -3.680   3.899  24.236  0.00  0.00    -0.295 NA
ATOM      7  C   UNL     1      -1.691   5.170  25.333  0.00  0.00    +0.008 C 
ATOM      8  C   UNL     1      -4.029   4.283  25.630  0.00  0.00    +0.095 C 
ATOM      9  C   UNL     1      -2.809   4.889  26.359  0.00  0.00    +0.027 C 
ATOM     10  C   UNL     1      -1.221   3.833  24.719  0.00  0.00    +0.081 C 
ATOM     11  C   UNL     1      -2.315   5.993  24.190  0.00  0.00    +0.020 C 
ATOM     12  C   UNL     1      -2.460   3.055  24.225  0.00  0.00    +0.101 C 
ATOM     13  C   UNL     1      -3.386   5.144  23.482  0.00  0.00    +0.085 C 
BRANCH  10  15
ATOM     15  C   UNL     1      -0.428   3.038  25.670  0.00  0.00    -0.101 C 
ATOM     16  C   UNL     1       0.219   2.389  26.446  0.00  0.00    +0.004 C 
ENDBRANCH  10  15
ENDBRANCH  14   8
ENDBRANCH   1  14
ENDBRANCH  17   1
TORSDOF 7
ENDMDL
MODEL 7
REMARK VINA RESULT:      -0.0      1.513      3.563
REMARK  Name = 11943210
REMARK  9 active torsions:
REMARK  status: ('A' for Active; 'I' for Inactive)
REMARK    1  A    between atoms: O_1  and  C_14
REMARK    2  A    between atoms: O_1  and  C_17
REMARK    3  A    between atoms: O_3  and  C_21
REMARK    4  A    between atoms: O_3  and  C_24
REMARK    5  A    between atoms: O_4  and  C_22
REMARK    6  A    between atoms: O_4  and  C_25
REMARK    7  A    between atoms: N_6  and  C_18
REMARK    8  A    between atoms: C_8  and  C_14
REMARK    9  A    between atoms: C_10  and  C_15
REMARK                            x       y       z     vdW  Elec       q    Type
REMARK                         _______ _______ _______ _____ _____    ______ ____
ROOT
ATOM      2  O   UNL     1      -1.493  -1.030  26.650  0.00  0.00    -0.226 OA
ATOM      6  N   UNL     1      -1.811  -0.478  24.398  0.00  0.00    -0.251 N 
ATOM     17  C   UNL     1      -2.142  -1.047  25.612  0.00  0.00    +0.405 C 
ATOM     26  H   UNL     1      -2.484  -0.601  23.646  0.00  0.00    +0.158 HD
ENDROOT
BRANCH   6  18
ATOM     18  C   UNL     1      -0.648   0.254  24.069  0.00  0.00    +0.043 A 
ATOM     19  C   UNL     1      -0.610   1.617  24.320  0.00  0.00    +0.069 A 
ATOM     20  C   UNL     1       0.433  -0.404  23.505  0.00  0.00    +0.069 A 
ATOM     21  C   UNL     1       1.581   0.319  23.181  0.00  0.00    +0.125 A 
ATOM     22  C   UNL     1       0.537   2.340  23.996  0.00  0.00    +0.125 A 
ATOM     23  C   UNL     1       1.634   1.691  23.427  0.00  0.00    +0.091 A 
BRANCH  21   3
ATOM      3  O   UNL     1       2.651  -0.313  22.625  0.00  0.00    -0.495 OA
ATOM     24  C   UNL     1       3.878   0.414  22.569  0.00  0.00    +0.277 C 
ENDBRANCH  21   3
BRANCH  22   4
ATOM      4  O   UNL     1       0.590   3.679  24.236  0.00  0.00    -0.495 OA
ATOM     25  C   UNL     1      -0.570   4.283  24.807  0.00  0.00    +0.277 C 
ENDBRANCH  22   4
ENDBRANCH   6  18
BRANCH  17   1
ATOM      1  O   UNL     1      -3.365  -1.672  25.505  0.00  0.00    -0.449 OA
BRANCH   1  14
ATOM     14  C   UNL     1      -4.378  -0.971  24.809  0.00  0.00    +0.252 C 
BRANCH  14   8
ATOM      5  N   UNL     1      -5.870   1.030  25.045  0.00  0.00    -0.295 NA
ATOM      7  C   UNL     1      -3.905   2.725  25.255  0.00  0.00    +0.008 C 
ATOM      8  C   UNL     1      -4.654   0.339  25.551  0.00  0.00    +0.095 C 
ATOM      9  C   UNL     1      -3.430   1.282  25.526  0.00  0.00    +0.027 C 
ATOM     10  C   UNL     1      -4.544   2.790  23.851  0.00  0.00    +0.081 C 
ATOM     11  C   UNL     1      -5.022   3.038  26.269  0.00  0.00    +0.020 C 
ATOM     12  C   UNL     1      -5.592   1.663  23.732  0.00  0.00    +0.101 C 
ATOM     13  C   UNL     1      -6.218   2.104  26.010  0.00  0.00    +0.085 C 
BRANCH  10  15
ATOM     15  C   UNL     1      -3.536   2.705  22.781  0.00  0.00    -0.101 C 
ATOM     16  C   UNL     1      -2.714   2.635  21.909  0.00  0.00    +0.004 C 
ENDBRANCH  10  15
ENDBRANCH  14   8
ENDBRANCH   1  14
ENDBRANCH  17   1
TORSDOF 7
ENDMDL
MODEL 8
REMARK VINA RESULT:       0.0      1.510      3.780
REMARK  Name = 11943210
REMARK  9 active torsions:
REMARK  status: ('A' for Active; 'I' for Inactive)
REMARK    1  A    between atoms: O_1  and  C_14
REMARK    2  A    between atoms: O_1  and  C_17
REMARK    3  A    between atoms: O_3  and  C_21
REMARK    4  A    between atoms: O_3  and  C_24
REMARK    5  A    between atoms: O_4  and  C_22
REMARK    6  A    between atoms: O_4  and  C_25
REMARK    7  A    between atoms: N_6  and  C_18
REMARK    8  A    between atoms: C_8  and  C_14
REMARK    9  A    between atoms: C_10  and  C_15
REMARK                            x       y       z     vdW  Elec       q    Type
REMARK                         _______ _______ _______ _____ _____    ______ ____
ROOT
ATOM      2  O   UNL     1      -1.499  -1.026  26.657  0.00  0.00    -0.226 OA
ATOM      6  N   UNL     1      -1.820  -0.472  24.406  0.00  0.00    -0.251 N 
ATOM     17  C   UNL     1      -2.150  -1.043  25.620  0.00  0.00    +0.405 C 
ATOM     26  H   UNL     1      -2.494  -0.596  23.654  0.00  0.00    +0.158 HD
ENDROOT
BRANCH   6  18
ATOM     18  C   UNL     1      -0.658   0.262  24.076  0.00  0.00    +0.043 A 
ATOM     19  C   UNL     1       0.427  -0.398  23.521  0.00  0.00    +0.069 A 
ATOM     20  C   UNL     1      -0.626   1.626  24.314  0.00  0.00    +0.069 A 
ATOM     21  C   UNL     1       0.520   2.351  23.989  0.00  0.00    +0.125 A 
ATOM     22  C   UNL     1       1.574   0.326  23.196  0.00  0.00    +0.125 A 
ATOM     23  C   UNL     1       1.621   1.701  23.429  0.00  0.00    +0.091 A 
BRANCH  21   3
ATOM      3  O   UNL     1       0.567   3.692  24.217  0.00  0.00    -0.495 OA
ATOM     24  C   UNL     1      -0.581   4.289  24.818  0.00  0.00    +0.277 C 
ENDBRANCH  21   3
BRANCH  22   4
ATOM      4  O   UNL     1       2.647  -0.308  22.649  0.00  0.00    -0.495 OA
ATOM     25  C   UNL     1       3.879   0.412  22.614  0.00  0.00    +0.277 C 
ENDBRANCH  22   4
ENDBRANCH   6  18
BRANCH  17   1
ATOM      1  O   UNL     1      -3.372  -1.670  25.513  0.00  0.00    -0.449 OA
BRANCH   1  14
ATOM     14  C   UNL     1      -4.387  -0.968  24.822  0.00  0.00    +0.252 C 
BRANCH  14   8
ATOM      5  N   UNL     1      -5.869   1.041  25.057  0.00  0.00    -0.295 NA
ATOM      7  C   UNL     1      -3.895   2.727  25.253  0.00  0.00    +0.008 C 
ATOM      8  C   UNL     1      -4.654   0.346  25.560  0.00  0.00    +0.095 C 
ATOM      9  C   UNL     1      -3.426   1.283  25.526  0.00  0.00    +0.027 C 
ATOM     10  C   UNL     1      -4.540   2.791  23.851  0.00  0.00    +0.081 C 
ATOM     11  C   UNL     1      -5.006   3.049  26.270  0.00  0.00    +0.020 C 
ATOM     12  C   UNL     1      -5.594   1.668  23.740  0.00  0.00    +0.101 C 
ATOM     13  C   UNL     1      -6.207   2.120  26.020  0.00  0.00    +0.085 C 
BRANCH  10  15
ATOM     15  C   UNL     1      -3.537   2.697  22.777  0.00  0.00    -0.101 C 
ATOM     16  C   UNL     1      -2.719   2.621  21.902  0.00  0.00    +0.004 C 
ENDBRANCH  10  15
ENDBRANCH  14   8
ENDBRANCH   1  14
ENDBRANCH  17   1
TORSDOF 7
ENDMDL
MODEL 9
REMARK VINA RESULT:       0.6      2.028      5.719
REMARK  Name = 11943210
REMARK  9 active torsions:
REMARK  status: ('A' for Active; 'I' for Inactive)
REMARK    1  A    between atoms: O_1  and  C_14
REMARK    2  A    between atoms: O_1  and  C_17
REMARK    3  A    between atoms: O_3  and  C_21
REMARK    4  A    between atoms: O_3  and  C_24
REMARK    5  A    between atoms: O_4  and  C_22
REMARK    6  A    between atoms: O_4  and  C_25
REMARK    7  A    between atoms: N_6  and  C_18
REMARK    8  A    between atoms: C_8  and  C_14
REMARK    9  A    between atoms: C_10  and  C_15
REMARK                            x       y       z     vdW  Elec       q    Type
REMARK                         _______ _______ _______ _____ _____    ______ ____
ROOT
ATOM      2  O   UNL     1      -0.181   0.765  22.751  0.00  0.00    -0.226 OA
ATOM      6  N   UNL     1      -0.196   1.239  25.044  0.00  0.00    -0.251 N 
ATOM     17  C   UNL     1       0.025   0.465  23.920  0.00  0.00    +0.405 C 
ATOM     26  H   UNL     1       0.040   0.812  25.936  0.00  0.00    +0.158 HD
ENDROOT
BRANCH   6  18
ATOM     18  C   UNL     1      -0.712   2.553  25.107  0.00  0.00    +0.043 A 
ATOM     19  C   UNL     1      -0.044   3.576  24.453  0.00  0.00    +0.069 A 
ATOM     20  C   UNL     1      -1.876   2.792  25.819  0.00  0.00    +0.069 A 
ATOM     21  C   UNL     1      -2.385   4.089  25.881  0.00  0.00    +0.125 A 
ATOM     22  C   UNL     1      -0.553   4.873  24.514  0.00  0.00    +0.125 A 
ATOM     23  C   UNL     1      -1.724   5.130  25.228  0.00  0.00    +0.091 A 
BRANCH  21   3
ATOM      3  O   UNL     1      -3.528   4.341  26.578  0.00  0.00    -0.495 OA
ATOM     24  C   UNL     1      -4.729   3.742  26.094  0.00  0.00    +0.277 C 
ENDBRANCH  21   3
BRANCH  22   4
ATOM      4  O   UNL     1       0.091   5.889  23.877  0.00  0.00    -0.495 OA
ATOM     25  C   UNL     1       0.593   5.621  22.569  0.00  0.00    +0.277 C 
ENDBRANCH  22   4
ENDBRANCH   6  18
BRANCH  17   1
ATOM      1  O   UNL     1       0.538  -0.756  24.300  0.00  0.00    -0.449 OA
BRANCH   1  14
ATOM     14  C   UNL     1      -0.221  -1.899  23.955  0.00  0.00    +0.252 C 
BRANCH  14   8
ATOM      5  N   UNL     1      -2.547  -2.715  24.409  0.00  0.00    -0.295 NA
ATOM      7  C   UNL     1      -3.239  -0.608  25.772  0.00  0.00    +0.008 C 
ATOM      8  C   UNL     1      -1.340  -2.063  24.985  0.00  0.00    +0.095 C 
ATOM      9  C   UNL     1      -1.705  -0.720  25.656  0.00  0.00    +0.027 C 
ATOM     10  C   UNL     1      -3.851  -0.574  24.355  0.00  0.00    +0.081 C 
ATOM     11  C   UNL     1      -3.743  -1.898  26.447  0.00  0.00    +0.020 C 
ATOM     12  C   UNL     1      -3.284  -1.760  23.544  0.00  0.00    +0.101 C 
ATOM     13  C   UNL     1      -3.437  -3.099  25.534  0.00  0.00    +0.085 C 
BRANCH  10  15
ATOM     15  C   UNL     1      -3.605   0.709  23.678  0.00  0.00    -0.101 C 
ATOM     16  C   UNL     1      -3.404   1.756  23.126  0.00  0.00    +0.004 C 
ENDBRANCH  10  15
ENDBRANCH  14   8
ENDBRANCH   1  14
ENDBRANCH  17   1
TORSDOF 7
ENDMDL
MODEL 10
REMARK VINA RESULT:       0.6      2.039      5.552
REMARK  Name = 11943210
REMARK  9 active torsions:
REMARK  status: ('A' for Active; 'I' for Inactive)
REMARK    1  A    between atoms: O_1  and  C_14
REMARK    2  A    between atoms: O_1  and  C_17
REMARK    3  A    between atoms: O_3  and  C_21
REMARK    4  A    between atoms: O_3  and  C_24
REMARK    5  A    between atoms: O_4  and  C_22
REMARK    6  A    between atoms: O_4  and  C_25
REMARK    7  A    between atoms: N_6  and  C_18
REMARK    8  A    between atoms: C_8  and  C_14
REMARK    9  A    between atoms: C_10  and  C_15
REMARK                            x       y       z     vdW  Elec       q    Type
REMARK                         _______ _______ _______ _____ _____    ______ ____
ROOT
ATOM      2  O   UNL     1       0.389   0.998  23.514  0.00  0.00    -0.226 OA
ATOM      6  N   UNL     1      -0.951   1.125  25.429  0.00  0.00    -0.251 N 
ATOM     17  C   UNL     1      -0.117   0.509  24.516  0.00  0.00    +0.405 C 
ATOM     26  H   UNL     1      -1.272   0.550  26.203  0.00  0.00    +0.158 HD
ENDROOT
BRANCH   6  18
ATOM     18  C   UNL     1      -1.416   2.459  25.420  0.00  0.00    +0.043 A 
ATOM     19  C   UNL     1      -2.669   2.745  25.939  0.00  0.00    +0.069 A 
ATOM     20  C   UNL     1      -0.611   3.456  24.893  0.00  0.00    +0.069 A 
ATOM     21  C   UNL     1      -1.070   4.773  24.883  0.00  0.00    +0.125 A 
ATOM     22  C   UNL     1      -3.129   4.062  25.930  0.00  0.00    +0.125 A 
ATOM     23  C   UNL     1      -2.329   5.076  25.403  0.00  0.00    +0.091 A 
BRANCH  21   3
ATOM      3  O   UNL     1      -0.292   5.764  24.367  0.00  0.00    -0.495 OA
ATOM     24  C   UNL     1       0.329   5.512  23.108  0.00  0.00    +0.277 C 
ENDBRANCH  21   3
BRANCH  22   4
ATOM      4  O   UNL     1      -4.356   4.358  26.437  0.00  0.00    -0.495 OA
ATOM     25  C   UNL     1      -5.483   4.119  25.595  0.00  0.00    +0.277 C 
ENDBRANCH  22   4
ENDBRANCH   6  18
BRANCH  17   1
ATOM      1  O   UNL     1       0.089  -0.799  24.896  0.00  0.00    -0.449 OA
BRANCH   1  14
ATOM     14  C   UNL     1      -0.727  -1.293  25.940  0.00  0.00    +0.252 C 
BRANCH  14   8
ATOM      5  N   UNL     1      -1.767  -2.265  23.876  0.00  0.00    -0.295 NA
ATOM      7  C   UNL     1      -4.145  -2.456  24.916  0.00  0.00    +0.008 C 
ATOM      8  C   UNL     1      -1.668  -2.351  25.358  0.00  0.00    +0.095 C 
ATOM      9  C   UNL     1      -3.068  -2.295  26.009  0.00  0.00    +0.027 C 
ATOM     10  C   UNL     1      -4.061  -1.258  23.946  0.00  0.00    +0.081 C 
ATOM     11  C   UNL     1      -3.789  -3.716  24.104  0.00  0.00    +0.020 C 
ATOM     12  C   UNL     1      -2.596  -1.099  23.482  0.00  0.00    +0.101 C 
ATOM     13  C   UNL     1      -2.442  -3.496  23.393  0.00  0.00    +0.085 C 
BRANCH  10  15
ATOM     15  C   UNL     1      -4.573  -0.018  24.553  0.00  0.00    -0.101 C 
ATOM     16  C   UNL     1      -4.990   0.992  25.048  0.00  0.00    +0.004 C 
ENDBRANCH  10  15
ENDBRANCH  14   8
ENDBRANCH   1  14
ENDBRANCH  17   1
TORSDOF 7
ENDMDL
