MODEL 1
REMARK VINA RESULT:      -0.7      0.000      0.000
REMARK  Name = 11882566
REMARK  17 active torsions:
REMARK  status: ('A' for Active; 'I' for Inactive)
REMARK    1  A    between atoms: O_1  and  C_12
REMARK    2  A    between atoms: O_2  and  C_15
REMARK    3  A    between atoms: O_3  and  C_17
REMARK    4  A    between atoms: O_7  and  C_33
REMARK    5  A    between atoms: O_7  and  C_34
REMARK    6  A    between atoms: N_8  and  C_13
REMARK    7  A    between atoms: N_9  and  C_21
REMARK    8  A    between atoms: N_10  and  C_20
REMARK    9  A    between atoms: N_10  and  C_28
REMARK   10  A    between atoms: C_12  and  C_18
REMARK   11  A    between atoms: C_19  and  C_20
REMARK   12  A    between atoms: C_20  and  C_22
REMARK   13  A    between atoms: C_21  and  C_23
REMARK   14  A    between atoms: C_21  and  C_26
REMARK   15  A    between atoms: C_22  and  C_24
REMARK   16  A    between atoms: C_22  and  C_25
REMARK   17  A    between atoms: C_23  and  C_27
REMARK                            x       y       z     vdW  Elec       q    Type
REMARK                         _______ _______ _______ _____ _____    ______ ____
ROOT
ATOM     12  C   UNL     1      -1.954   3.333  24.775  0.00  0.00    +0.146 C 
ATOM     13  C   UNL     1       0.282   2.146  24.557  0.00  0.00    +0.107 C 
ATOM     14  C   UNL     1      -1.178   2.205  24.093  0.00  0.00    +0.069 C 
ATOM     15  C   UNL     1       0.392   2.071  26.086  0.00  0.00    +0.163 C 
ATOM     16  C   UNL     1      -1.853   3.235  26.296  0.00  0.00    +0.078 C 
ATOM     17  C   UNL     1      -0.402   3.185  26.774  0.00  0.00    +0.148 C 
ENDROOT
BRANCH  12  18
ATOM      4  O   UNL     1      -3.851   4.151  23.575  0.00  0.00    -0.273 OA
ATOM      9  N   UNL     1      -4.104   2.287  24.946  0.00  0.00    -0.301 N 
ATOM     18  C   UNL     1      -3.394   3.315  24.350  0.00  0.00    +0.246 C 
ATOM     39  H   UNL     1      -3.655   1.703  25.645  0.00  0.00    +0.150 HD
BRANCH   9  21
ATOM     21  C   UNL     1      -5.514   2.066  24.721  0.00  0.00    +0.163 C 
BRANCH  21  26
ATOM      6  O   UNL     1      -6.761   2.069  26.806  0.00  0.00    -0.274 OA
ATOM     11  N   UNL     1      -6.267   4.083  25.818  0.00  0.00    -0.328 N 
ATOM     26  C   UNL     1      -6.259   2.705  25.883  0.00  0.00    +0.231 C 
ATOM     41  H   UNL     1      -5.844   4.596  25.051  0.00  0.00    +0.145 HD
ATOM     42  H   UNL     1      -6.718   4.636  26.540  0.00  0.00    +0.145 HD
ENDBRANCH  21  26
BRANCH  21  23
ATOM     23  C   UNL     1      -5.857   0.575  24.622  0.00  0.00    +0.067 C 
BRANCH  23  27
ATOM     27  C   UNL     1      -4.639  -0.312  24.706  0.00  0.00    -0.045 A 
ATOM     29  C   UNL     1      -3.662  -0.067  25.670  0.00  0.00    +0.007 A 
ATOM     30  C   UNL     1      -4.490  -1.377  23.816  0.00  0.00    +0.007 A 
ATOM     31  C   UNL     1      -2.537  -0.887  25.747  0.00  0.00    +0.046 A 
ATOM     32  C   UNL     1      -3.365  -2.197  23.893  0.00  0.00    +0.046 A 
ATOM     33  C   UNL     1      -2.387  -1.952  24.858  0.00  0.00    +0.120 A 
BRANCH  33   7
ATOM      7  O   UNL     1      -1.289  -2.752  24.933  0.00  0.00    -0.495 OA
ATOM     34  C   UNL     1      -0.064  -2.137  25.329  0.00  0.00    +0.277 C 
ENDBRANCH  33   7
ENDBRANCH  23  27
ENDBRANCH  21  23
ENDBRANCH   9  21
ENDBRANCH  12  18
BRANCH  13   8
ATOM      5  O   UNL     1       2.810   2.165  23.184  0.00  0.00    -0.274 OA
ATOM      8  N   UNL     1       0.944   1.015  23.943  0.00  0.00    -0.309 N 
ATOM     19  C   UNL     1       2.167   1.122  23.301  0.00  0.00    +0.231 C 
ATOM     35  H   UNL     1       0.458   0.125  23.940  0.00  0.00    +0.149 HD
BRANCH  19  20
ATOM     20  C   UNL     1       2.644  -0.212  22.730  0.00  0.00    +0.143 C 
BRANCH  20  10
ATOM     10  N   UNL     1       2.308  -0.212  21.304  0.00  0.00    -0.309 NA
ATOM     28  C   UNL     1       0.944  -0.670  21.099  0.00  0.00    +0.101 C 
ATOM     40  H   UNL     1       2.935  -0.844  20.806  0.00  0.00    +0.122 HD
ENDBRANCH  20  10
BRANCH  20  22
ATOM     22  C   UNL     1       4.155  -0.466  22.949  0.00  0.00    +0.009 C 
ATOM     24  C   UNL     1       4.459  -1.617  23.915  0.00  0.00    +0.009 C 
ATOM     25  C   UNL     1       4.884   0.801  23.409  0.00  0.00    +0.009 C 
ENDBRANCH  20  22
ENDBRANCH  19  20
ENDBRANCH  13   8
BRANCH  12   1
ATOM      1  O   UNL     1      -1.463   4.600  24.356  0.00  0.00    -0.379 OA
ATOM     36  H   UNL     1      -0.542   4.493  24.063  0.00  0.00    +0.211 HD
ENDBRANCH  12   1
BRANCH  15   2
ATOM      2  O   UNL     1       1.764   2.221  26.463  0.00  0.00    -0.387 OA
ATOM     37  H   UNL     1       1.804   2.304  27.430  0.00  0.00    +0.210 HD
ENDBRANCH  15   2
BRANCH  17   3
ATOM      3  O   UNL     1      -0.388   2.946  28.182  0.00  0.00    -0.389 OA
ATOM     38  H   UNL     1       0.448   3.300  28.530  0.00  0.00    +0.210 HD
ENDBRANCH  17   3
TORSDOF 13
ENDMDL
MODEL 2
REMARK VINA RESULT:       1.7      1.833      4.777
REMARK  Name = 11882566
REMARK  17 active torsions:
REMARK  status: ('A' for Active; 'I' for Inactive)
REMARK    1  A    between atoms: O_1  and  C_12
REMARK    2  A    between atoms: O_2  and  C_15
REMARK    3  A    between atoms: O_3  and  C_17
REMARK    4  A    between atoms: O_7  and  C_33
REMARK    5  A    between atoms: O_7  and  C_34
REMARK    6  A    between atoms: N_8  and  C_13
REMARK    7  A    between atoms: N_9  and  C_21
REMARK    8  A    between atoms: N_10  and  C_20
REMARK    9  A    between atoms: N_10  and  C_28
REMARK   10  A    between atoms: C_12  and  C_18
REMARK   11  A    between atoms: C_19  and  C_20
REMARK   12  A    between atoms: C_20  and  C_22
REMARK   13  A    between atoms: C_21  and  C_23
REMARK   14  A    between atoms: C_21  and  C_26
REMARK   15  A    between atoms: C_22  and  C_24
REMARK   16  A    between atoms: C_22  and  C_25
REMARK   17  A    between atoms: C_23  and  C_27
REMARK                            x       y       z     vdW  Elec       q    Type
REMARK                         _______ _______ _______ _____ _____    ______ ____
ROOT
ATOM     12  C   UNL     1      -3.519  -0.263  25.095  0.00  0.00    +0.146 C 
ATOM     13  C   UNL     1      -1.234  -1.374  25.112  0.00  0.00    +0.107 C 
ATOM     14  C   UNL     1      -2.013  -0.069  24.912  0.00  0.00    +0.069 C 
ATOM     15  C   UNL     1      -1.775  -2.503  24.225  0.00  0.00    +0.163 C 
ATOM     16  C   UNL     1      -4.049  -1.376  24.193  0.00  0.00    +0.078 C 
ATOM     17  C   UNL     1      -3.287  -2.687  24.389  0.00  0.00    +0.148 C 
ENDROOT
BRANCH  12  18
ATOM      4  O   UNL     1      -5.336   1.267  25.346  0.00  0.00    -0.273 OA
ATOM      9  N   UNL     1      -3.581   1.826  23.923  0.00  0.00    -0.301 N 
ATOM     18  C   UNL     1      -4.253   1.017  24.823  0.00  0.00    +0.246 C 
ATOM     39  H   UNL     1      -2.735   1.488  23.476  0.00  0.00    +0.150 HD
BRANCH   9  21
ATOM     21  C   UNL     1      -4.088   3.104  23.477  0.00  0.00    +0.163 C 
BRANCH  21  26
ATOM      6  O   UNL     1      -4.405   3.969  21.228  0.00  0.00    -0.274 OA
ATOM     11  N   UNL     1      -2.815   2.345  21.567  0.00  0.00    -0.328 N 
ATOM     26  C   UNL     1      -3.821   3.193  21.981  0.00  0.00    +0.231 C 
ATOM     41  H   UNL     1      -2.339   1.712  22.201  0.00  0.00    +0.145 HD
ATOM     42  H   UNL     1      -2.527   2.316  20.594  0.00  0.00    +0.145 HD
ENDBRANCH  21  26
BRANCH  21  23
ATOM     23  C   UNL     1      -3.426   4.277  24.209  0.00  0.00    +0.067 C 
BRANCH  23  27
ATOM     27  C   UNL     1      -2.194   3.866  24.976  0.00  0.00    -0.045 A 
ATOM     29  C   UNL     1      -0.966   3.761  24.323  0.00  0.00    +0.007 A 
ATOM     30  C   UNL     1      -2.283   3.588  26.341  0.00  0.00    +0.007 A 
ATOM     31  C   UNL     1       0.173   3.382  25.033  0.00  0.00    +0.046 A 
ATOM     32  C   UNL     1      -1.145   3.208  27.051  0.00  0.00    +0.046 A 
ATOM     33  C   UNL     1       0.083   3.104  26.398  0.00  0.00    +0.120 A 
BRANCH  33   7
ATOM      7  O   UNL     1       1.194   2.733  27.090  0.00  0.00    -0.495 OA
ATOM     34  C   UNL     1       1.038   2.497  28.489  0.00  0.00    +0.277 C 
ENDBRANCH  33   7
ENDBRANCH  23  27
ENDBRANCH  21  23
ENDBRANCH   9  21
ENDBRANCH  12  18
BRANCH  13   8
ATOM      5  O   UNL     1      -0.111   0.399  23.145  0.00  0.00    -0.274 OA
ATOM      8  N   UNL     1       0.171  -1.149  24.849  0.00  0.00    -0.309 N 
ATOM     19  C   UNL     1       0.619  -0.270  23.876  0.00  0.00    +0.231 C 
ATOM     35  H   UNL     1       0.846  -1.703  25.366  0.00  0.00    +0.149 HD
BRANCH  19  20
ATOM     20  C   UNL     1       2.144  -0.222  23.791  0.00  0.00    +0.143 C 
BRANCH  20  10
ATOM     10  N   UNL     1       2.615  -1.609  23.774  0.00  0.00    -0.309 NA
ATOM     28  C   UNL     1       4.062  -1.660  23.907  0.00  0.00    +0.101 C 
ATOM     40  H   UNL     1       2.360  -2.044  22.887  0.00  0.00    +0.122 HD
ENDBRANCH  20  10
BRANCH  20  22
ATOM     22  C   UNL     1       2.662   0.561  22.561  0.00  0.00    +0.009 C 
ATOM     24  C   UNL     1       2.526  -0.199  21.236  0.00  0.00    +0.009 C 
ATOM     25  C   UNL     1       4.113   1.019  22.747  0.00  0.00    +0.009 C 
ENDBRANCH  20  22
ENDBRANCH  19  20
ENDBRANCH  13   8
BRANCH  12   1
ATOM      1  O   UNL     1      -3.820  -0.579  26.449  0.00  0.00    -0.379 OA
ATOM     36  H   UNL     1      -4.039  -1.525  26.504  0.00  0.00    +0.211 HD
ENDBRANCH  12   1
BRANCH  15   2
ATOM      2  O   UNL     1      -1.147  -3.733  24.600  0.00  0.00    -0.387 OA
ATOM     37  H   UNL     1      -1.182  -4.334  23.837  0.00  0.00    +0.210 HD
ENDBRANCH  15   2
BRANCH  17   3
ATOM      3  O   UNL     1      -3.735  -3.631  23.415  0.00  0.00    -0.389 OA
ATOM     38  H   UNL     1      -3.080  -3.641  22.696  0.00  0.00    +0.210 HD
ENDBRANCH  17   3
TORSDOF 13
ENDMDL
MODEL 3
REMARK VINA RESULT:       2.9      2.427      5.883
REMARK  Name = 11882566
REMARK  17 active torsions:
REMARK  status: ('A' for Active; 'I' for Inactive)
REMARK    1  A    between atoms: O_1  and  C_12
REMARK    2  A    between atoms: O_2  and  C_15
REMARK    3  A    between atoms: O_3  and  C_17
REMARK    4  A    between atoms: O_7  and  C_33
REMARK    5  A    between atoms: O_7  and  C_34
REMARK    6  A    between atoms: N_8  and  C_13
REMARK    7  A    between atoms: N_9  and  C_21
REMARK    8  A    between atoms: N_10  and  C_20
REMARK    9  A    between atoms: N_10  and  C_28
REMARK   10  A    between atoms: C_12  and  C_18
REMARK   11  A    between atoms: C_19  and  C_20
REMARK   12  A    between atoms: C_20  and  C_22
REMARK   13  A    between atoms: C_21  and  C_23
REMARK   14  A    between atoms: C_21  and  C_26
REMARK   15  A    between atoms: C_22  and  C_24
REMARK   16  A    between atoms: C_22  and  C_25
REMARK   17  A    between atoms: C_23  and  C_27
REMARK                            x       y       z     vdW  Elec       q    Type
REMARK                         _______ _______ _______ _____ _____    ______ ____
ROOT
ATOM     12  C   UNL     1      -0.191  -0.969  24.246  0.00  0.00    +0.146 C 
ATOM     13  C   UNL     1       0.906   1.302  24.556  0.00  0.00    +0.107 C 
ATOM     14  C   UNL     1      -0.385   0.484  24.681  0.00  0.00    +0.069 C 
ATOM     15  C   UNL     1       1.508   1.204  23.148  0.00  0.00    +0.163 C 
ATOM     16  C   UNL     1       0.390  -1.053  22.835  0.00  0.00    +0.078 C 
ATOM     17  C   UNL     1       1.683  -0.249  22.698  0.00  0.00    +0.148 C 
ENDROOT
BRANCH  12  18
ATOM      4  O   UNL     1      -1.598  -2.867  23.893  0.00  0.00    -0.273 OA
ATOM      9  N   UNL     1      -2.504  -0.961  24.874  0.00  0.00    -0.301 N 
ATOM     18  C   UNL     1      -1.489  -1.719  24.315  0.00  0.00    +0.246 C 
ATOM     39  H   UNL     1      -2.335   0.012  25.110  0.00  0.00    +0.150 HD
BRANCH   9  21
ATOM     21  C   UNL     1      -3.856  -1.444  25.034  0.00  0.00    +0.163 C 
BRANCH  21  26
ATOM      6  O   UNL     1      -3.500  -3.820  25.401  0.00  0.00    -0.274 OA
ATOM     11  N   UNL     1      -4.341  -3.134  23.376  0.00  0.00    -0.328 N 
ATOM     26  C   UNL     1      -3.854  -2.916  24.648  0.00  0.00    +0.231 C 
ATOM     41  H   UNL     1      -4.634  -2.378  22.766  0.00  0.00    +0.145 HD
ATOM     42  H   UNL     1      -4.408  -4.074  22.998  0.00  0.00    +0.145 HD
ENDBRANCH  21  26
BRANCH  21  23
ATOM     23  C   UNL     1      -4.855  -0.666  24.170  0.00  0.00    +0.067 C 
BRANCH  23  27
ATOM     27  C   UNL     1      -5.066   0.748  24.652  0.00  0.00    -0.045 A 
ATOM     29  C   UNL     1      -4.422   1.807  24.013  0.00  0.00    +0.007 A 
ATOM     30  C   UNL     1      -5.905   0.996  25.739  0.00  0.00    +0.007 A 
ATOM     31  C   UNL     1      -4.618   3.114  24.458  0.00  0.00    +0.046 A 
ATOM     32  C   UNL     1      -6.101   2.303  26.185  0.00  0.00    +0.046 A 
ATOM     33  C   UNL     1      -5.457   3.362  25.545  0.00  0.00    +0.120 A 
BRANCH  33   7
ATOM      7  O   UNL     1      -5.648   4.637  25.980  0.00  0.00    -0.495 OA
ATOM     34  C   UNL     1      -6.537   5.457  25.222  0.00  0.00    +0.277 C 
ENDBRANCH  33   7
ENDBRANCH  23  27
ENDBRANCH  21  23
ENDBRANCH   9  21
ENDBRANCH  12  18
BRANCH  13   8
ATOM      5  O   UNL     1      -1.232   2.954  23.568  0.00  0.00    -0.274 OA
ATOM      8  N   UNL     1       0.645   2.682  24.903  0.00  0.00    -0.309 N 
ATOM     19  C   UNL     1      -0.416   3.399  24.373  0.00  0.00    +0.231 C 
ATOM     35  H   UNL     1       1.303   3.150  25.518  0.00  0.00    +0.149 HD
BRANCH  19  20
ATOM     20  C   UNL     1      -0.465   4.836  24.892  0.00  0.00    +0.143 C 
BRANCH  20  10
ATOM     10  N   UNL     1      -0.338   5.716  23.728  0.00  0.00    -0.309 NA
ATOM     28  C   UNL     1       0.558   5.135  22.742  0.00  0.00    +0.101 C 
ATOM     40  H   UNL     1       0.048   6.613  24.020  0.00  0.00    +0.122 HD
ENDBRANCH  20  10
BRANCH  20  22
ATOM     22  C   UNL     1      -1.749   5.151  25.696  0.00  0.00    +0.009 C 
ATOM     24  C   UNL     1      -2.338   3.940  26.429  0.00  0.00    +0.009 C 
ATOM     25  C   UNL     1      -2.826   5.798  24.819  0.00  0.00    +0.009 C 
ENDBRANCH  20  22
ENDBRANCH  19  20
ENDBRANCH  13   8
BRANCH  12   1
ATOM      1  O   UNL     1       0.675  -1.648  25.147  0.00  0.00    -0.379 OA
ATOM     36  H   UNL     1       1.532  -1.784  24.708  0.00  0.00    +0.211 HD
ENDBRANCH  12   1
BRANCH  15   2
ATOM      2  O   UNL     1       2.801   1.816  23.150  0.00  0.00    -0.387 OA
ATOM     37  H   UNL     1       3.424   1.206  22.719  0.00  0.00    +0.210 HD
ENDBRANCH  15   2
BRANCH  17   3
ATOM      3  O   UNL     1       2.085  -0.252  21.327  0.00  0.00    -0.389 OA
ATOM     38  H   UNL     1       3.057  -0.260  21.308  0.00  0.00    +0.210 HD
ENDBRANCH  17   3
TORSDOF 13
ENDMDL
