MODEL 1
REMARK VINA RESULT:      -3.1      0.000      0.000
REMARK  Name = 51136665
REMARK  8 active torsions:
REMARK  status: ('A' for Active; 'I' for Inactive)
REMARK    1  A    between atoms: O_3  and  C_18
REMARK    2  A    between atoms: O_5  and  C_26
REMARK    3  A    between atoms: O_5  and  C_30
REMARK    4  A    between atoms: C_8  and  C_12
REMARK    5  A    between atoms: C_9  and  C_14
REMARK    6  A    between atoms: C_12  and  C_15
REMARK    7  A    between atoms: C_14  and  C_18
REMARK    8  A    between atoms: C_16  and  C_22
REMARK                            x       y       z     vdW  Elec       q    Type
REMARK                         _______ _______ _______ _____ _____    ______ ____
ROOT
ATOM      2  O   UNL     1      17.391  -6.516  23.652  0.00  0.00    -0.269 OA
ATOM      6  N   UNL     1      16.011  -6.744  25.529  0.00  0.00    -0.297 N 
ATOM      8  C   UNL     1      15.734  -6.821  27.997  0.00  0.00    +0.016 C 
ATOM      9  C   UNL     1      15.591  -8.360  27.894  0.00  0.00    +0.006 C 
ATOM     10  C   UNL     1      16.313  -8.914  26.654  0.00  0.00    +0.023 C 
ATOM     11  C   UNL     1      15.298  -6.163  26.675  0.00  0.00    +0.112 C 
ATOM     13  C   UNL     1      15.868  -8.191  25.386  0.00  0.00    +0.108 C 
ATOM     16  C   UNL     1      16.788  -6.034  24.610  0.00  0.00    +0.253 C 
ENDROOT
BRANCH  16  22
ATOM      1  S   UNL     1      16.538  -3.550  23.470  0.00  0.00    -0.092 S 
ATOM     22  C   UNL     1      16.908  -4.582  24.785  0.00  0.00    +0.074 A 
ATOM     27  C   UNL     1      17.292  -3.876  25.905  0.00  0.00    +0.021 A 
ATOM     28  C   UNL     1      17.283  -2.470  25.679  0.00  0.00    +0.008 A 
ATOM     29  C   UNL     1      16.891  -2.154  24.396  0.00  0.00    +0.046 A 
ENDBRANCH  16  22
BRANCH   8  12
ATOM     12  C   UNL     1      17.143  -6.351  28.386  0.00  0.00    +0.061 C 
BRANCH  12  15
ATOM      7  N   UNL     1      17.272  -6.948  30.708  0.00  0.00    -0.287 NA
ATOM     15  C   UNL     1      17.176  -5.986  29.850  0.00  0.00    +0.044 C 
ATOM     17  C   UNL     1      17.090  -4.554  30.232  0.00  0.00    -0.001 A 
ATOM     19  C   UNL     1      16.736  -4.276  31.559  0.00  0.00    -0.033 A 
ATOM     20  C   UNL     1      16.458  -5.421  32.487  0.00  0.00    +0.059 C 
ATOM     21  C   UNL     1      17.366  -6.591  32.127  0.00  0.00    +0.146 C 
ATOM     23  C   UNL     1      17.331  -3.516  29.330  0.00  0.00    +0.013 A 
ATOM     24  C   UNL     1      16.599  -2.947  31.972  0.00  0.00    +0.050 A 
ATOM     25  C   UNL     1      17.206  -2.193  29.756  0.00  0.00    +0.046 A 
ATOM     26  C   UNL     1      16.839  -1.909  31.072  0.00  0.00    +0.120 A 
BRANCH  26   5
ATOM      5  O   UNL     1      16.712  -0.616  31.477  0.00  0.00    -0.495 OA
ATOM     30  C   UNL     1      17.248  -0.281  32.757  0.00  0.00    +0.277 C 
ENDBRANCH  26   5
ENDBRANCH  12  15
ENDBRANCH   8  12
BRANCH   9  14
ATOM     14  C   UNL     1      16.047  -9.092  29.156  0.00  0.00    +0.124 C 
BRANCH  14  18
ATOM      4  O   UNL     1      14.407 -10.699  29.975  0.00  0.00    -0.251 OA
ATOM     18  C   UNL     1      14.879  -9.572  29.972  0.00  0.00    +0.305 C 
BRANCH  18   3
ATOM      3  O   UNL     1      14.403  -8.552  30.732  0.00  0.00    -0.481 OA
ATOM     31  H   UNL     1      15.125  -8.073  31.192  0.00  0.00    +0.295 HD
ENDBRANCH  18   3
ENDBRANCH  14  18
ENDBRANCH   9  14
TORSDOF 7
ENDMDL
