MODEL 1
REMARK VINA RESULT:      18.1      0.000      0.000
REMARK  Name = 56776079
REMARK  3 active torsions:
REMARK  status: ('A' for Active; 'I' for Inactive)
REMARK    1  A    between atoms: N_9  and  C_30
REMARK    2  A    between atoms: C_11  and  C_16
REMARK    3  A    between atoms: C_16  and  C_18
REMARK                            x       y       z     vdW  Elec       q    Type
REMARK                         _______ _______ _______ _____ _____    ______ ____
ROOT
ATOM      1  O   UNL     1      -1.681   0.177  22.307  0.00  0.00    -0.492 OA
ATOM      3  O   UNL     1      -4.247  -2.013  23.644  0.00  0.00    -0.274 OA
ATOM      6  N   UNL     1      -4.642  -0.336  25.192  0.00  0.00    -0.300 N 
ATOM      8  N   UNL     1      -1.646  -1.330  25.232  0.00  0.00    -0.304 NA
ATOM     10  C   UNL     1      -5.139   1.846  24.140  0.00  0.00    +0.010 C 
ATOM     11  C   UNL     1      -5.204   2.488  25.555  0.00  0.00    +0.004 C 
ATOM     12  C   UNL     1      -4.295   1.734  26.542  0.00  0.00    +0.023 C 
ATOM     13  C   UNL     1      -5.559   0.370  24.291  0.00  0.00    +0.111 C 
ATOM     14  C   UNL     1      -3.743   1.994  23.489  0.00  0.00    +0.008 C 
ATOM     15  C   UNL     1      -4.566   0.229  26.547  0.00  0.00    +0.108 C 
ATOM     17  C   UNL     1      -3.643   1.505  22.036  0.00  0.00    +0.041 C 
ATOM     19  C   UNL     1      -3.991  -1.481  24.732  0.00  0.00    +0.229 C 
ATOM     20  C   UNL     1      -2.172   1.342  21.638  0.00  0.00    +0.229 C 
ATOM     21  C   UNL     1      -2.868  -2.062  25.573  0.00  0.00    +0.178 C 
ATOM     26  C   UNL     1      -0.981  -1.897  24.053  0.00  0.00    +0.120 C 
ATOM     27  C   UNL     1      -0.342   0.080  22.569  0.00  0.00    +0.125 A 
ATOM     28  C   UNL     1       0.038  -0.947  23.460  0.00  0.00    +0.010 A 
ATOM     29  C   UNL     1       1.391  -1.090  23.804  0.00  0.00    +0.031 A 
ATOM     30  C   UNL     1       2.356  -0.250  23.253  0.00  0.00    +0.030 A 
ATOM     31  C   UNL     1       0.637   0.903  22.003  0.00  0.00    +0.048 A 
ATOM     32  C   UNL     1       1.980   0.739  22.349  0.00  0.00    +0.027 A 
ATOM     37  H   UNL     1      -0.997  -1.375  26.019  0.00  0.00    +0.123 HD
ENDROOT
BRANCH  30   9
ATOM      5  O   UNL     1       6.456  -0.707  24.066  0.00  0.00    -0.377 OA
ATOM      9  N   UNL     1       3.700  -0.395  23.614  0.00  0.00    -0.326 N 
ATOM     33  C   UNL     1       4.282  -1.735  23.742  0.00  0.00    +0.133 C 
ATOM     34  C   UNL     1       4.642   0.661  23.217  0.00  0.00    +0.133 C 
ATOM     35  C   UNL     1       5.544  -1.669  24.596  0.00  0.00    +0.178 C 
ATOM     36  C   UNL     1       5.884   0.600  24.099  0.00  0.00    +0.178 C 
ENDBRANCH  30   9
BRANCH  11  16
ATOM     16  C   UNL     1      -4.887   3.984  25.561  0.00  0.00    +0.100 C 
BRANCH  16  18
ATOM      2  O   UNL     1      -3.601   4.334  27.521  0.00  0.00    -0.276 OA
ATOM      4  O   UNL     1      -0.053   3.804  24.116  0.00  0.00    -0.377 OA
ATOM      7  N   UNL     1      -2.445   4.334  25.508  0.00  0.00    -0.297 N 
ATOM     18  C   UNL     1      -3.593   4.234  26.292  0.00  0.00    +0.216 C 
ATOM     22  C   UNL     1      -2.416   4.348  24.040  0.00  0.00    +0.136 C 
ATOM     23  C   UNL     1      -1.147   4.572  26.136  0.00  0.00    +0.136 C 
ATOM     24  C   UNL     1      -1.304   3.441  23.527  0.00  0.00    +0.179 C 
ATOM     25  C   UNL     1      -0.092   3.652  25.538  0.00  0.00    +0.179 C 
ENDBRANCH  16  18
ENDBRANCH  11  16
TORSDOF 3
ENDMDL
