MODEL 1
REMARK VINA RESULT:       5.7      0.000      0.000
REMARK  Name = 7051430
REMARK  5 active torsions:
REMARK  status: ('A' for Active; 'I' for Inactive)
REMARK    1  A    between atoms: S_1  and  N_8
REMARK    2  A    between atoms: S_1  and  C_25
REMARK    3  A    between atoms: N_8  and  C_20
REMARK    4  A    between atoms: C_19  and  C_22
REMARK    5  A    between atoms: C_29  and  C_34
REMARK                            x       y       z     vdW  Elec       q    Type
REMARK                         _______ _______ _______ _____ _____    ______ ____
ROOT
ATOM      2  O   UNL     1       0.201   2.570  25.714  0.00  0.00    -0.266 OA
ATOM      3  O   UNL     1      -3.973  -0.120  27.191  0.00  0.00    -0.270 OA
ATOM      6  N   UNL     1      -4.620   1.285  25.436  0.00  0.00    -0.297 N 
ATOM      7  N   UNL     1      -1.876   2.658  24.634  0.00  0.00    -0.310 N 
ATOM     10  C   UNL     1      -3.967   3.672  25.710  0.00  0.00    +0.027 C 
ATOM     11  C   UNL     1      -4.103   2.691  23.455  0.00  0.00    +0.054 C 
ATOM     12  C   UNL     1      -4.399   3.947  24.274  0.00  0.00    +0.018 C 
ATOM     13  C   UNL     1      -4.741   2.471  26.284  0.00  0.00    +0.113 C 
ATOM     14  C   UNL     1      -2.450   3.445  25.734  0.00  0.00    +0.130 C 
ATOM     15  C   UNL     1      -4.919   1.508  24.011  0.00  0.00    +0.117 C 
ATOM     16  C   UNL     1      -2.625   2.353  23.488  0.00  0.00    +0.027 A 
ATOM     17  C   UNL     1      -2.050   1.731  22.443  0.00  0.00    +0.024 A 
ATOM     18  C   UNL     1      -0.512   2.316  24.744  0.00  0.00    +0.274 A 
ATOM     19  C   UNL     1      -4.224   0.071  26.002  0.00  0.00    +0.247 C 
ATOM     20  C   UNL     1       0.060   1.611  23.569  0.00  0.00    +0.112 A 
ATOM     21  C   UNL     1      -0.665   1.346  22.482  0.00  0.00    +0.031 A 
ENDROOT
BRANCH  19  22
ATOM     22  C   UNL     1      -4.072  -1.085  25.114  0.00  0.00    +0.037 A 
ATOM     23  C   UNL     1      -3.256  -2.147  25.493  0.00  0.00    +0.013 A 
ATOM     24  C   UNL     1      -4.744  -1.114  23.894  0.00  0.00    +0.013 A 
ATOM     26  C   UNL     1      -3.111  -3.247  24.647  0.00  0.00    +0.001 A 
ATOM     27  C   UNL     1      -4.599  -2.213  23.048  0.00  0.00    +0.001 A 
ATOM     28  C   UNL     1      -3.782  -3.280  23.425  0.00  0.00    +0.000 A 
ENDBRANCH  19  22
BRANCH  20   8
ATOM      8  N   UNL     1       1.406   1.206  23.572  0.00  0.00    -0.211 N 
ATOM     35  H   UNL     1       2.046   1.962  23.294  0.00  0.00    +0.174 HD
BRANCH   8   1
ATOM      1  S   UNL     1       1.757  -0.307  22.900  0.00  0.00    +0.074 S 
ATOM      4  O   UNL     1       1.028  -1.340  23.613  0.00  0.00    -0.150 OA
ATOM      5  O   UNL     1       1.683  -0.229  21.453  0.00  0.00    -0.150 OA
BRANCH   1  25
ATOM     25  C   UNL     1       3.464  -0.472  23.334  0.00  0.00    +0.126 A 
ATOM     29  C   UNL     1       4.359   0.568  23.139  0.00  0.00    +0.078 A 
ATOM     30  C   UNL     1       3.875  -1.681  23.877  0.00  0.00    +0.030 A 
ATOM     31  C   UNL     1       5.698   0.397  23.494  0.00  0.00    +0.021 A 
ATOM     32  C   UNL     1       5.213  -1.852  24.231  0.00  0.00    +0.002 A 
ATOM     33  C   UNL     1       6.124  -0.813  24.040  0.00  0.00    +0.001 A 
BRANCH  29  34
ATOM      9  N   UNL     1       3.631   2.840  22.127  0.00  0.00    -0.191 NA
ATOM     34  C   UNL     1       3.957   1.824  22.579  0.00  0.00    +0.101 C 
ENDBRANCH  29  34
ENDBRANCH   1  25
ENDBRANCH   8   1
ENDBRANCH  20   8
TORSDOF 5
ENDMDL
MODEL 2
REMARK VINA RESULT:       8.0      2.917      5.909
REMARK  Name = 7051430
REMARK  5 active torsions:
REMARK  status: ('A' for Active; 'I' for Inactive)
REMARK    1  A    between atoms: S_1  and  N_8
REMARK    2  A    between atoms: S_1  and  C_25
REMARK    3  A    between atoms: N_8  and  C_20
REMARK    4  A    between atoms: C_19  and  C_22
REMARK    5  A    between atoms: C_29  and  C_34
REMARK                            x       y       z     vdW  Elec       q    Type
REMARK                         _______ _______ _______ _____ _____    ______ ____
ROOT
ATOM      2  O   UNL     1       0.387   0.311  22.642  0.00  0.00    -0.266 OA
ATOM      3  O   UNL     1      -4.650  -0.880  22.875  0.00  0.00    -0.270 OA
ATOM      6  N   UNL     1      -3.632  -1.723  24.805  0.00  0.00    -0.297 N 
ATOM      7  N   UNL     1      -0.643  -0.714  24.480  0.00  0.00    -0.310 N 
ATOM     10  C   UNL     1      -1.592  -3.091  24.402  0.00  0.00    +0.027 C 
ATOM     11  C   UNL     1      -1.787  -1.763  26.467  0.00  0.00    +0.054 C 
ATOM     12  C   UNL     1      -1.311  -3.100  25.901  0.00  0.00    +0.018 C 
ATOM     13  C   UNL     1      -3.099  -2.911  24.138  0.00  0.00    +0.113 C 
ATOM     14  C   UNL     1      -0.755  -1.984  23.750  0.00  0.00    +0.130 C 
ATOM     15  C   UNL     1      -3.303  -1.615  26.237  0.00  0.00    +0.117 C 
ATOM     16  C   UNL     1      -1.055  -0.604  25.816  0.00  0.00    +0.027 A 
ATOM     17  C   UNL     1      -0.841   0.532  26.504  0.00  0.00    +0.024 A 
ATOM     18  C   UNL     1      -0.011   0.351  23.806  0.00  0.00    +0.274 A 
ATOM     19  C   UNL     1      -4.373  -0.794  24.070  0.00  0.00    +0.247 C 
ATOM     20  C   UNL     1       0.176   1.586  24.610  0.00  0.00    +0.112 A 
ATOM     21  C   UNL     1      -0.207   1.664  25.885  0.00  0.00    +0.031 A 
ENDROOT
BRANCH  19  22
ATOM     22  C   UNL     1      -4.854   0.404  24.763  0.00  0.00    +0.037 A 
ATOM     23  C   UNL     1      -3.981   1.143  25.558  0.00  0.00    +0.013 A 
ATOM     24  C   UNL     1      -6.183   0.798  24.624  0.00  0.00    +0.013 A 
ATOM     26  C   UNL     1      -4.440   2.284  26.218  0.00  0.00    +0.001 A 
ATOM     27  C   UNL     1      -6.641   1.939  25.283  0.00  0.00    +0.001 A 
ATOM     28  C   UNL     1      -5.769   2.681  26.080  0.00  0.00    +0.000 A 
ENDBRANCH  19  22
BRANCH  20   8
ATOM      8  N   UNL     1       0.780   2.719  24.038  0.00  0.00    -0.211 N 
ATOM     35  H   UNL     1       1.776   2.801  24.284  0.00  0.00    +0.174 HD
BRANCH   8   1
ATOM      1  S   UNL     1      -0.091   4.168  24.096  0.00  0.00    +0.074 S 
ATOM      4  O   UNL     1      -0.307   4.554  25.478  0.00  0.00    -0.150 OA
ATOM      5  O   UNL     1       0.473   5.115  23.153  0.00  0.00    -0.150 OA
BRANCH   1  25
ATOM     25  C   UNL     1      -1.650   3.641  23.447  0.00  0.00    +0.126 A 
ATOM     29  C   UNL     1      -2.844   4.070  24.005  0.00  0.00    +0.078 A 
ATOM     30  C   UNL     1      -1.635   2.782  22.357  0.00  0.00    +0.030 A 
ATOM     31  C   UNL     1      -4.052   3.630  23.463  0.00  0.00    +0.021 A 
ATOM     32  C   UNL     1      -2.842   2.342  21.816  0.00  0.00    +0.002 A 
ATOM     33  C   UNL     1      -4.051   2.766  22.369  0.00  0.00    +0.001 A 
BRANCH  29  34
ATOM      9  N   UNL     1      -2.914   5.673  26.041  0.00  0.00    -0.191 NA
ATOM     34  C   UNL     1      -2.883   4.956  25.130  0.00  0.00    +0.101 C 
ENDBRANCH  29  34
ENDBRANCH   1  25
ENDBRANCH   8   1
ENDBRANCH  20   8
TORSDOF 5
ENDMDL
MODEL 3
REMARK VINA RESULT:       8.9      3.000      5.143
REMARK  Name = 7051430
REMARK  5 active torsions:
REMARK  status: ('A' for Active; 'I' for Inactive)
REMARK    1  A    between atoms: S_1  and  N_8
REMARK    2  A    between atoms: S_1  and  C_25
REMARK    3  A    between atoms: N_8  and  C_20
REMARK    4  A    between atoms: C_19  and  C_22
REMARK    5  A    between atoms: C_29  and  C_34
REMARK                            x       y       z     vdW  Elec       q    Type
REMARK                         _______ _______ _______ _____ _____    ______ ____
ROOT
ATOM      2  O   UNL     1       0.904   1.616  25.751  0.00  0.00    -0.266 OA
ATOM      3  O   UNL     1      -3.471   3.826  27.432  0.00  0.00    -0.270 OA
ATOM      6  N   UNL     1      -3.069   4.608  25.264  0.00  0.00    -0.297 N 
ATOM      7  N   UNL     1      -0.472   2.985  24.439  0.00  0.00    -0.310 N 
ATOM     10  C   UNL     1      -0.774   5.490  24.876  0.00  0.00    +0.027 C 
ATOM     11  C   UNL     1      -1.999   4.413  23.031  0.00  0.00    +0.054 C 
ATOM     12  C   UNL     1      -1.066   5.571  23.382  0.00  0.00    +0.018 C 
ATOM     13  C   UNL     1      -2.080   5.599  25.686  0.00  0.00    +0.113 C 
ATOM     14  C   UNL     1      -0.024   4.183  25.162  0.00  0.00    +0.130 C 
ATOM     15  C   UNL     1      -3.319   4.559  23.813  0.00  0.00    +0.117 C 
ATOM     16  C   UNL     1      -1.358   3.077  23.355  0.00  0.00    +0.027 A 
ATOM     17  C   UNL     1      -1.667   1.985  22.634  0.00  0.00    +0.024 A 
ATOM     18  C   UNL     1       0.110   1.759  24.822  0.00  0.00    +0.274 A 
ATOM     19  C   UNL     1      -3.676   3.790  26.220  0.00  0.00    +0.247 C 
ATOM     20  C   UNL     1      -0.289   0.586  24.003  0.00  0.00    +0.112 A 
ATOM     21  C   UNL     1      -1.119   0.698  22.965  0.00  0.00    +0.031 A 
ENDROOT
BRANCH  19  22
ATOM     22  C   UNL     1      -4.630   2.779  25.754  0.00  0.00    +0.037 A 
ATOM     23  C   UNL     1      -5.833   2.598  26.433  0.00  0.00    +0.013 A 
ATOM     24  C   UNL     1      -4.329   2.005  24.636  0.00  0.00    +0.013 A 
ATOM     26  C   UNL     1      -6.742   1.636  25.989  0.00  0.00    +0.001 A 
ATOM     27  C   UNL     1      -5.237   1.044  24.193  0.00  0.00    +0.001 A 
ATOM     28  C   UNL     1      -6.444   0.859  24.870  0.00  0.00    +0.000 A 
ENDBRANCH  19  22
BRANCH  20   8
ATOM      8  N   UNL     1       0.215  -0.691  24.302  0.00  0.00    -0.211 N 
ATOM     35  H   UNL     1       0.413  -1.245  23.457  0.00  0.00    +0.174 HD
BRANCH   8   1
ATOM      1  S   UNL     1      -0.542  -1.545  25.552  0.00  0.00    +0.074 S 
ATOM      4  O   UNL     1       0.345  -2.584  26.042  0.00  0.00    -0.150 OA
ATOM      5  O   UNL     1      -1.156  -0.612  26.478  0.00  0.00    -0.150 OA
BRANCH   1  25
ATOM     25  C   UNL     1      -1.847  -2.342  24.663  0.00  0.00    +0.126 A 
ATOM     29  C   UNL     1      -3.178  -2.105  24.971  0.00  0.00    +0.078 A 
ATOM     30  C   UNL     1      -1.491  -3.214  23.644  0.00  0.00    +0.030 A 
ATOM     31  C   UNL     1      -4.176  -2.755  24.246  0.00  0.00    +0.021 A 
ATOM     32  C   UNL     1      -2.489  -3.864  22.919  0.00  0.00    +0.002 A 
ATOM     33  C   UNL     1      -3.832  -3.635  23.220  0.00  0.00    +0.001 A 
BRANCH  29  34
ATOM      9  N   UNL     1      -3.883  -0.485  26.867  0.00  0.00    -0.191 NA
ATOM     34  C   UNL     1      -3.568  -1.210  26.019  0.00  0.00    +0.101 C 
ENDBRANCH  29  34
ENDBRANCH   1  25
ENDBRANCH   8   1
ENDBRANCH  20   8
TORSDOF 5
ENDMDL
MODEL 4
REMARK VINA RESULT:       9.1      2.354      3.013
REMARK  Name = 7051430
REMARK  5 active torsions:
REMARK  status: ('A' for Active; 'I' for Inactive)
REMARK    1  A    between atoms: S_1  and  N_8
REMARK    2  A    between atoms: S_1  and  C_25
REMARK    3  A    between atoms: N_8  and  C_20
REMARK    4  A    between atoms: C_19  and  C_22
REMARK    5  A    between atoms: C_29  and  C_34
REMARK                            x       y       z     vdW  Elec       q    Type
REMARK                         _______ _______ _______ _____ _____    ______ ____
ROOT
ATOM      2  O   UNL     1      -1.051   3.502  25.582  0.00  0.00    -0.266 OA
ATOM      3  O   UNL     1      -4.053  -0.355  27.300  0.00  0.00    -0.270 OA
ATOM      6  N   UNL     1      -5.352   0.976  25.882  0.00  0.00    -0.297 N 
ATOM      7  N   UNL     1      -3.247   3.118  24.862  0.00  0.00    -0.310 N 
ATOM     10  C   UNL     1      -5.287   3.414  26.381  0.00  0.00    +0.027 C 
ATOM     11  C   UNL     1      -5.590   2.648  24.060  0.00  0.00    +0.054 C 
ATOM     12  C   UNL     1      -6.036   3.692  25.083  0.00  0.00    +0.018 C 
ATOM     13  C   UNL     1      -5.609   1.999  26.896  0.00  0.00    +0.113 C 
ATOM     14  C   UNL     1      -3.786   3.611  26.137  0.00  0.00    +0.130 C 
ATOM     15  C   UNL     1      -5.960   1.240  24.566  0.00  0.00    +0.117 C 
ATOM     16  C   UNL     1      -4.095   2.727  23.816  0.00  0.00    +0.027 A 
ATOM     17  C   UNL     1      -3.587   2.387  22.617  0.00  0.00    +0.024 A 
ATOM     18  C   UNL     1      -1.845   3.154  24.709  0.00  0.00    +0.274 A 
ATOM     19  C   UNL     1      -4.563  -0.130  26.204  0.00  0.00    +0.247 C 
ATOM     20  C   UNL     1      -1.344   2.745  23.373  0.00  0.00    +0.112 A 
ATOM     21  C   UNL     1      -2.169   2.394  22.385  0.00  0.00    +0.031 A 
ENDROOT
BRANCH  19  22
ATOM     22  C   UNL     1      -4.292  -1.112  25.150  0.00  0.00    +0.037 A 
ATOM     23  C   UNL     1      -3.973  -2.424  25.491  0.00  0.00    +0.013 A 
ATOM     24  C   UNL     1      -4.354  -0.727  23.813  0.00  0.00    +0.013 A 
ATOM     26  C   UNL     1      -3.714  -3.358  24.487  0.00  0.00    +0.001 A 
ATOM     27  C   UNL     1      -4.096  -1.661  22.810  0.00  0.00    +0.001 A 
ATOM     28  C   UNL     1      -3.776  -2.977  23.147  0.00  0.00    +0.000 A 
ENDBRANCH  19  22
BRANCH  20   8
ATOM      8  N   UNL     1       0.037   2.726  23.109  0.00  0.00    -0.211 N 
ATOM     35  H   UNL     1       0.249   2.464  22.137  0.00  0.00    +0.174 HD
BRANCH   8   1
ATOM      1  S   UNL     1       1.034   2.011  24.274  0.00  0.00    +0.074 S 
ATOM      4  O   UNL     1       2.337   1.736  23.700  0.00  0.00    -0.150 OA
ATOM      5  O   UNL     1       0.925   2.739  25.524  0.00  0.00    -0.150 OA
BRANCH   1  25
ATOM     25  C   UNL     1       0.218   0.457  24.495  0.00  0.00    +0.126 A 
ATOM     29  C   UNL     1       0.308  -0.546  23.542  0.00  0.00    +0.078 A 
ATOM     30  C   UNL     1      -0.518   0.277  25.658  0.00  0.00    +0.030 A 
ATOM     31  C   UNL     1      -0.352  -1.757  23.755  0.00  0.00    +0.021 A 
ATOM     32  C   UNL     1      -1.178  -0.933  25.871  0.00  0.00    +0.002 A 
ATOM     33  C   UNL     1      -1.095  -1.950  24.919  0.00  0.00    +0.001 A 
BRANCH  29  34
ATOM      9  N   UNL     1       1.670  -0.248  21.357  0.00  0.00    -0.191 NA
ATOM     34  C   UNL     1       1.060  -0.381  22.334  0.00  0.00    +0.101 C 
ENDBRANCH  29  34
ENDBRANCH   1  25
ENDBRANCH   8   1
ENDBRANCH  20   8
TORSDOF 5
ENDMDL
MODEL 5
REMARK VINA RESULT:       9.2      1.868      4.145
REMARK  Name = 7051430
REMARK  5 active torsions:
REMARK  status: ('A' for Active; 'I' for Inactive)
REMARK    1  A    between atoms: S_1  and  N_8
REMARK    2  A    between atoms: S_1  and  C_25
REMARK    3  A    between atoms: N_8  and  C_20
REMARK    4  A    between atoms: C_19  and  C_22
REMARK    5  A    between atoms: C_29  and  C_34
REMARK                            x       y       z     vdW  Elec       q    Type
REMARK                         _______ _______ _______ _____ _____    ______ ____
ROOT
ATOM      2  O   UNL     1      -1.338  -1.766  22.619  0.00  0.00    -0.266 OA
ATOM      3  O   UNL     1      -3.864   2.748  22.330  0.00  0.00    -0.270 OA
ATOM      6  N   UNL     1      -4.351   1.795  24.410  0.00  0.00    -0.297 N 
ATOM      7  N   UNL     1      -2.565  -0.826  24.379  0.00  0.00    -0.310 N 
ATOM     10  C   UNL     1      -5.113  -0.573  24.325  0.00  0.00    +0.027 C 
ATOM     11  C   UNL     1      -3.844   0.235  26.275  0.00  0.00    +0.054 C 
ATOM     12  C   UNL     1      -5.011  -0.653  25.844  0.00  0.00    +0.018 C 
ATOM     13  C   UNL     1      -5.360   0.880  23.878  0.00  0.00    +0.113 C 
ATOM     14  C   UNL     1      -3.833  -1.156  23.713  0.00  0.00    +0.130 C 
ATOM     15  C   UNL     1      -4.125   1.693  25.862  0.00  0.00    +0.117 C 
ATOM     16  C   UNL     1      -2.543  -0.232  25.649  0.00  0.00    +0.027 A 
ATOM     17  C   UNL     1      -1.377  -0.042  26.292  0.00  0.00    +0.024 A 
ATOM     18  C   UNL     1      -1.382  -1.227  23.725  0.00  0.00    +0.274 A 
ATOM     19  C   UNL     1      -3.679   2.659  23.543  0.00  0.00    +0.247 C 
ATOM     20  C   UNL     1      -0.127  -0.969  24.473  0.00  0.00    +0.112 A 
ATOM     21  C   UNL     1      -0.128  -0.420  25.688  0.00  0.00    +0.031 A 
ENDROOT
BRANCH  19  22
ATOM     22  C   UNL     1      -2.644   3.531  24.106  0.00  0.00    +0.037 A 
ATOM     23  C   UNL     1      -1.317   3.107  24.129  0.00  0.00    +0.013 A 
ATOM     24  C   UNL     1      -2.992   4.779  24.616  0.00  0.00    +0.013 A 
ATOM     26  C   UNL     1      -0.333   3.937  24.666  0.00  0.00    +0.001 A 
ATOM     27  C   UNL     1      -2.008   5.609  25.152  0.00  0.00    +0.001 A 
ATOM     28  C   UNL     1      -0.678   5.188  25.177  0.00  0.00    +0.000 A 
ENDBRANCH  19  22
BRANCH  20   8
ATOM      8  N   UNL     1       1.116  -1.312  23.913  0.00  0.00    -0.211 N 
ATOM     35  H   UNL     1       1.745  -1.760  24.593  0.00  0.00    +0.174 HD
BRANCH   8   1
ATOM      1  S   UNL     1       1.851  -0.165  22.909  0.00  0.00    +0.074 S 
ATOM      4  O   UNL     1       1.670  -0.543  21.520  0.00  0.00    -0.150 OA
ATOM      5  O   UNL     1       1.501   1.170  23.354  0.00  0.00    -0.150 OA
BRANCH   1  25
ATOM     25  C   UNL     1       3.555  -0.424  23.307  0.00  0.00    +0.126 A 
ATOM     29  C   UNL     1       4.507   0.557  23.072  0.00  0.00    +0.078 A 
ATOM     30  C   UNL     1       3.907  -1.646  23.864  0.00  0.00    +0.030 A 
ATOM     31  C   UNL     1       5.841   0.311  23.400  0.00  0.00    +0.021 A 
ATOM     32  C   UNL     1       5.240  -1.891  24.191  0.00  0.00    +0.002 A 
ATOM     33  C   UNL     1       6.207  -0.912  23.959  0.00  0.00    +0.001 A 
BRANCH  29  34
ATOM      9  N   UNL     1       3.891   2.850  22.033  0.00  0.00    -0.191 NA
ATOM     34  C   UNL     1       4.166   1.824  22.498  0.00  0.00    +0.101 C 
ENDBRANCH  29  34
ENDBRANCH   1  25
ENDBRANCH   8   1
ENDBRANCH  20   8
TORSDOF 5
ENDMDL
MODEL 6
REMARK VINA RESULT:       9.4      3.087      6.143
REMARK  Name = 7051430
REMARK  5 active torsions:
REMARK  status: ('A' for Active; 'I' for Inactive)
REMARK    1  A    between atoms: S_1  and  N_8
REMARK    2  A    between atoms: S_1  and  C_25
REMARK    3  A    between atoms: N_8  and  C_20
REMARK    4  A    between atoms: C_19  and  C_22
REMARK    5  A    between atoms: C_29  and  C_34
REMARK                            x       y       z     vdW  Elec       q    Type
REMARK                         _______ _______ _______ _____ _____    ______ ____
ROOT
ATOM      2  O   UNL     1       0.566   1.319  23.477  0.00  0.00    -0.266 OA
ATOM      3  O   UNL     1      -4.119  -0.692  22.555  0.00  0.00    -0.270 OA
ATOM      6  N   UNL     1      -3.225  -1.802  24.409  0.00  0.00    -0.297 N 
ATOM      7  N   UNL     1      -0.479  -0.274  24.842  0.00  0.00    -0.310 N 
ATOM     10  C   UNL     1      -0.918  -2.682  24.091  0.00  0.00    +0.027 C 
ATOM     11  C   UNL     1      -1.649  -1.944  26.324  0.00  0.00    +0.054 C 
ATOM     12  C   UNL     1      -0.846  -3.009  25.579  0.00  0.00    +0.018 C 
ATOM     13  C   UNL     1      -2.381  -2.690  23.609  0.00  0.00    +0.113 C 
ATOM     14  C   UNL     1      -0.237  -1.330  23.849  0.00  0.00    +0.130 C 
ATOM     15  C   UNL     1      -3.120  -1.992  25.866  0.00  0.00    +0.117 C 
ATOM     16  C   UNL     1      -1.081  -0.559  26.075  0.00  0.00    +0.027 A 
ATOM     17  C   UNL     1      -1.192   0.396  27.017  0.00  0.00    +0.024 A 
ATOM     18  C   UNL     1       0.014   1.011  24.534  0.00  0.00    +0.274 A 
ATOM     19  C   UNL     1      -4.029  -0.855  23.770  0.00  0.00    +0.247 C 
ATOM     20  C   UNL     1      -0.158   2.027  25.602  0.00  0.00    +0.112 A 
ATOM     21  C   UNL     1      -0.717   1.731  26.776  0.00  0.00    +0.031 A 
ENDROOT
BRANCH  19  22
ATOM     22  C   UNL     1      -4.827   0.046  24.606  0.00  0.00    +0.037 A 
ATOM     23  C   UNL     1      -5.976   0.637  24.086  0.00  0.00    +0.013 A 
ATOM     24  C   UNL     1      -4.433   0.306  25.917  0.00  0.00    +0.013 A 
ATOM     26  C   UNL     1      -6.736   1.494  24.883  0.00  0.00    +0.001 A 
ATOM     27  C   UNL     1      -5.193   1.163  26.712  0.00  0.00    +0.001 A 
ATOM     28  C   UNL     1      -6.345   1.757  26.195  0.00  0.00    +0.000 A 
ENDBRANCH  19  22
BRANCH  20   8
ATOM      8  N   UNL     1       0.281   3.348  25.401  0.00  0.00    -0.211 N 
ATOM     35  H   UNL     1       0.407   3.860  26.285  0.00  0.00    +0.174 HD
BRANCH   8   1
ATOM      1  S   UNL     1      -0.469   4.230  24.168  0.00  0.00    +0.074 S 
ATOM      4  O   UNL     1      -0.014   5.607  24.204  0.00  0.00    -0.150 OA
ATOM      5  O   UNL     1      -0.420   3.477  22.929  0.00  0.00    -0.150 OA
BRANCH   1  25
ATOM     25  C   UNL     1      -2.147   4.215  24.727  0.00  0.00    +0.126 A 
ATOM     29  C   UNL     1      -3.131   3.525  24.035  0.00  0.00    +0.078 A 
ATOM     30  C   UNL     1      -2.445   4.921  25.885  0.00  0.00    +0.030 A 
ATOM     31  C   UNL     1      -4.443   3.541  24.510  0.00  0.00    +0.021 A 
ATOM     32  C   UNL     1      -3.756   4.935  26.359  0.00  0.00    +0.002 A 
ATOM     33  C   UNL     1      -4.755   4.245  25.672  0.00  0.00    +0.001 A 
BRANCH  29  34
ATOM      9  N   UNL     1      -2.617   2.199  21.869  0.00  0.00    -0.191 NA
ATOM     34  C   UNL     1      -2.847   2.792  22.838  0.00  0.00    +0.101 C 
ENDBRANCH  29  34
ENDBRANCH   1  25
ENDBRANCH   8   1
ENDBRANCH  20   8
TORSDOF 5
ENDMDL
MODEL 7
REMARK VINA RESULT:       9.6      3.098      5.311
REMARK  Name = 7051430
REMARK  5 active torsions:
REMARK  status: ('A' for Active; 'I' for Inactive)
REMARK    1  A    between atoms: S_1  and  N_8
REMARK    2  A    between atoms: S_1  and  C_25
REMARK    3  A    between atoms: N_8  and  C_20
REMARK    4  A    between atoms: C_19  and  C_22
REMARK    5  A    between atoms: C_29  and  C_34
REMARK                            x       y       z     vdW  Elec       q    Type
REMARK                         _______ _______ _______ _____ _____    ______ ____
ROOT
ATOM      2  O   UNL     1       0.814   1.634  25.778  0.00  0.00    -0.266 OA
ATOM      3  O   UNL     1      -3.444   4.042  27.485  0.00  0.00    -0.270 OA
ATOM      6  N   UNL     1      -3.039   4.780  25.303  0.00  0.00    -0.297 N 
ATOM      7  N   UNL     1      -0.522   3.042  24.466  0.00  0.00    -0.310 N 
ATOM     10  C   UNL     1      -0.715   5.563  24.876  0.00  0.00    +0.027 C 
ATOM     11  C   UNL     1      -2.007   4.516  23.060  0.00  0.00    +0.054 C 
ATOM     12  C   UNL     1      -1.023   5.638  23.385  0.00  0.00    +0.018 C 
ATOM     13  C   UNL     1      -2.005   5.735  25.701  0.00  0.00    +0.113 C 
ATOM     14  C   UNL     1      -0.016   4.230  25.169  0.00  0.00    +0.130 C 
ATOM     15  C   UNL     1      -3.310   4.725  23.857  0.00  0.00    +0.117 C 
ATOM     16  C   UNL     1      -1.417   3.159  23.393  0.00  0.00    +0.027 A 
ATOM     17  C   UNL     1      -1.780   2.072  22.688  0.00  0.00    +0.024 A 
ATOM     18  C   UNL     1       0.014   1.798  24.857  0.00  0.00    +0.274 A 
ATOM     19  C   UNL     1      -3.667   3.999  26.277  0.00  0.00    +0.247 C 
ATOM     20  C   UNL     1      -0.443   0.633  24.057  0.00  0.00    +0.112 A 
ATOM     21  C   UNL     1      -1.281   0.767  23.028  0.00  0.00    +0.031 A 
ENDROOT
BRANCH  19  22
ATOM     22  C   UNL     1      -4.668   3.024  25.835  0.00  0.00    +0.037 A 
ATOM     23  C   UNL     1      -4.648   2.556  24.524  0.00  0.00    +0.013 A 
ATOM     24  C   UNL     1      -5.634   2.569  26.730  0.00  0.00    +0.013 A 
ATOM     26  C   UNL     1      -5.601   1.627  24.104  0.00  0.00    +0.001 A 
ATOM     27  C   UNL     1      -6.586   1.641  26.310  0.00  0.00    +0.001 A 
ATOM     28  C   UNL     1      -6.570   1.170  24.997  0.00  0.00    +0.000 A 
ENDBRANCH  19  22
BRANCH  20   8
ATOM      8  N   UNL     1       0.012  -0.660  24.366  0.00  0.00    -0.211 N 
ATOM     35  H   UNL     1       0.137  -1.244  23.527  0.00  0.00    +0.174 HD
BRANCH   8   1
ATOM      1  S   UNL     1      -0.719  -1.442  25.676  0.00  0.00    +0.074 S 
ATOM      4  O   UNL     1      -0.162  -2.773  25.825  0.00  0.00    -0.150 OA
ATOM      5  O   UNL     1      -0.775  -0.542  26.813  0.00  0.00    -0.150 OA
BRANCH   1  25
ATOM     25  C   UNL     1      -2.370  -1.628  25.068  0.00  0.00    +0.126 A 
ATOM     29  C   UNL     1      -2.664  -2.513  24.042  0.00  0.00    +0.078 A 
ATOM     30  C   UNL     1      -3.362  -0.854  25.655  0.00  0.00    +0.030 A 
ATOM     31  C   UNL     1      -3.980  -2.628  23.592  0.00  0.00    +0.021 A 
ATOM     32  C   UNL     1      -4.677  -0.970  25.205  0.00  0.00    +0.002 A 
ATOM     33  C   UNL     1      -4.986  -1.857  24.173  0.00  0.00    +0.001 A 
BRANCH  29  34
ATOM      9  N   UNL     1      -0.841  -3.973  22.920  0.00  0.00    -0.191 NA
ATOM     34  C   UNL     1      -1.657  -3.320  23.422  0.00  0.00    +0.101 C 
ENDBRANCH  29  34
ENDBRANCH   1  25
ENDBRANCH   8   1
ENDBRANCH  20   8
TORSDOF 5
ENDMDL
