MODEL 1
REMARK VINA RESULT:      -5.4      0.000      0.000
REMARK  Name = 51137771
REMARK  5 active torsions:
REMARK  status: ('A' for Active; 'I' for Inactive)
REMARK    1  A    between atoms: C_6  and  C_10
REMARK    2  A    between atoms: C_11  and  C_12
REMARK    3  A    between atoms: C_13  and  C_14
REMARK    4  A    between atoms: C_14  and  C_15
REMARK    5  A    between atoms: C_15  and  C_18
REMARK                            x       y       z     vdW  Elec       q    Type
REMARK                         _______ _______ _______ _____ _____    ______ ____
ROOT
ATOM      2  O   UNL     1      -0.926  -0.990  26.887  0.00  0.00    -0.270 OA
ATOM      3  N   UNL     1      -0.947   0.666  25.259  0.00  0.00    -0.297 N 
ATOM      6  C   UNL     1      -1.055   2.750  24.116  0.00  0.00    +0.095 C 
ATOM      7  C   UNL     1       0.227   2.691  24.960  0.00  0.00    +0.033 C 
ATOM      8  C   UNL     1      -1.442   1.268  24.019  0.00  0.00    +0.121 C 
ATOM      9  C   UNL     1      -0.040   1.567  25.953  0.00  0.00    +0.109 C 
ATOM     11  C   UNL     1      -1.312  -0.555  25.804  0.00  0.00    +0.247 C 
ENDROOT
BRANCH  11  12
ATOM     12  C   UNL     1      -2.246  -1.392  25.034  0.00  0.00    +0.037 A 
ATOM     16  C   UNL     1      -1.833  -2.630  24.546  0.00  0.00    +0.013 A 
ATOM     17  C   UNL     1      -3.546  -0.944  24.795  0.00  0.00    +0.013 A 
ATOM     19  C   UNL     1      -2.720  -3.424  23.816  0.00  0.00    +0.001 A 
ATOM     20  C   UNL     1      -4.433  -1.738  24.066  0.00  0.00    +0.001 A 
ATOM     21  C   UNL     1      -4.020  -2.976  23.577  0.00  0.00    +0.000 A 
ENDBRANCH  11  12
BRANCH   6  10
ATOM      1  O   UNL     1      -3.362   3.216  24.810  0.00  0.00    -0.424 OA
ATOM      4  N   UNL     1      -1.938   4.896  25.203  0.00  0.00    -0.112 NA
ATOM      5  N   UNL     1      -3.192   5.288  25.638  0.00  0.00    -0.112 NA
ATOM     10  C   UNL     1      -2.086   3.682  24.728  0.00  0.00    +0.222 A 
ATOM     13  C   UNL     1      -3.990   4.275  25.389  0.00  0.00    +0.217 A 
BRANCH  13  14
ATOM     14  C   UNL     1      -5.429   4.135  25.646  0.00  0.00    +0.097 C 
BRANCH  14  15
ATOM     15  C   UNL     1      -5.830   2.708  26.075  0.00  0.00    +0.006 C 
ATOM     18  C   UNL     1      -6.193   1.819  24.896  0.00  0.00    +0.004 C 
ENDBRANCH  14  15
ENDBRANCH  13  14
ENDBRANCH   6  10
TORSDOF 4
ENDMDL
MODEL 2
REMARK VINA RESULT:      -5.1      2.697      6.090
REMARK  Name = 51137771
REMARK  5 active torsions:
REMARK  status: ('A' for Active; 'I' for Inactive)
REMARK    1  A    between atoms: C_6  and  C_10
REMARK    2  A    between atoms: C_11  and  C_12
REMARK    3  A    between atoms: C_13  and  C_14
REMARK    4  A    between atoms: C_14  and  C_15
REMARK    5  A    between atoms: C_15  and  C_18
REMARK                            x       y       z     vdW  Elec       q    Type
REMARK                         _______ _______ _______ _____ _____    ______ ____
ROOT
ATOM      2  O   UNL     1      -3.565   4.551  23.558  0.00  0.00    -0.270 OA
ATOM      3  N   UNL     1      -1.965   3.370  24.756  0.00  0.00    -0.297 N 
ATOM      6  C   UNL     1      -0.017   2.165  25.401  0.00  0.00    +0.095 C 
ATOM      7  C   UNL     1       0.359   3.620  25.083  0.00  0.00    +0.033 C 
ATOM      8  C   UNL     1      -1.533   2.267  25.617  0.00  0.00    +0.121 C 
ATOM      9  C   UNL     1      -0.825   4.135  24.275  0.00  0.00    +0.109 C 
ATOM     11  C   UNL     1      -3.256   3.657  24.342  0.00  0.00    +0.247 C 
ENDROOT
BRANCH  11  12
ATOM     12  C   UNL     1      -4.342   2.818  24.872  0.00  0.00    +0.037 A 
ATOM     16  C   UNL     1      -4.437   1.479  24.493  0.00  0.00    +0.013 A 
ATOM     17  C   UNL     1      -5.276   3.362  25.754  0.00  0.00    +0.013 A 
ATOM     19  C   UNL     1      -5.467   0.683  24.997  0.00  0.00    +0.001 A 
ATOM     20  C   UNL     1      -6.306   2.566  26.258  0.00  0.00    +0.001 A 
ATOM     21  C   UNL     1      -6.400   1.227  25.879  0.00  0.00    +0.000 A 
ENDBRANCH  11  12
BRANCH   6  10
ATOM      1  O   UNL     1       1.736   1.355  23.887  0.00  0.00    -0.424 OA
ATOM      4  N   UNL     1      -0.203   0.253  23.703  0.00  0.00    -0.112 NA
ATOM      5  N   UNL     1       0.689  -0.299  22.802  0.00  0.00    -0.112 NA
ATOM     10  C   UNL     1       0.451   1.214  24.313  0.00  0.00    +0.222 A 
ATOM     13  C   UNL     1       1.808   0.374  22.945  0.00  0.00    +0.217 A 
BRANCH  13  14
ATOM     14  C   UNL     1       3.089   0.216  22.247  0.00  0.00    +0.097 C 
BRANCH  14  15
ATOM     15  C   UNL     1       4.251   0.959  22.941  0.00  0.00    +0.006 C 
ATOM     18  C   UNL     1       5.319   0.015  23.471  0.00  0.00    +0.004 C 
ENDBRANCH  14  15
ENDBRANCH  13  14
ENDBRANCH   6  10
TORSDOF 4
ENDMDL
MODEL 3
REMARK VINA RESULT:      -4.5      1.719      5.537
REMARK  Name = 51137771
REMARK  5 active torsions:
REMARK  status: ('A' for Active; 'I' for Inactive)
REMARK    1  A    between atoms: C_6  and  C_10
REMARK    2  A    between atoms: C_11  and  C_12
REMARK    3  A    between atoms: C_13  and  C_14
REMARK    4  A    between atoms: C_14  and  C_15
REMARK    5  A    between atoms: C_15  and  C_18
REMARK                            x       y       z     vdW  Elec       q    Type
REMARK                         _______ _______ _______ _____ _____    ______ ____
ROOT
ATOM      2  O   UNL     1      -3.164   2.787  22.118  0.00  0.00    -0.270 OA
ATOM      3  N   UNL     1      -1.890   2.012  23.896  0.00  0.00    -0.297 N 
ATOM      6  C   UNL     1      -0.486   0.709  25.310  0.00  0.00    +0.095 C 
ATOM      7  C   UNL     1       0.324   1.221  24.109  0.00  0.00    +0.033 C 
ATOM      8  C   UNL     1      -1.697   1.652  25.303  0.00  0.00    +0.121 C 
ATOM      9  C   UNL     1      -0.739   1.623  23.095  0.00  0.00    +0.109 C 
ATOM     11  C   UNL     1      -3.019   2.570  23.318  0.00  0.00    +0.247 C 
ENDROOT
BRANCH  11  12
ATOM     12  C   UNL     1      -4.138   2.916  24.209  0.00  0.00    +0.037 A 
ATOM     16  C   UNL     1      -4.290   4.226  24.660  0.00  0.00    +0.013 A 
ATOM     17  C   UNL     1      -5.047   1.932  24.599  0.00  0.00    +0.013 A 
ATOM     19  C   UNL     1      -5.353   4.554  25.504  0.00  0.00    +0.001 A 
ATOM     20  C   UNL     1      -6.109   2.260  25.443  0.00  0.00    +0.001 A 
ATOM     21  C   UNL     1      -6.262   3.571  25.894  0.00  0.00    +0.000 A 
ENDBRANCH  11  12
BRANCH   6  10
ATOM      1  O   UNL     1      -2.091  -1.135  25.089  0.00  0.00    -0.424 OA
ATOM      4  N   UNL     1       0.045  -1.795  25.176  0.00  0.00    -0.112 NA
ATOM      5  N   UNL     1      -0.746  -2.923  25.053  0.00  0.00    -0.112 NA
ATOM     10  C   UNL     1      -0.782  -0.776  25.194  0.00  0.00    +0.222 A 
ATOM     13  C   UNL     1      -1.985  -2.489  25.005  0.00  0.00    +0.217 A 
BRANCH  13  14
ATOM     14  C   UNL     1      -3.235  -3.246  24.874  0.00  0.00    +0.097 C 
BRANCH  14  15
ATOM     15  C   UNL     1      -4.160  -2.699  23.766  0.00  0.00    +0.006 C 
ATOM     18  C   UNL     1      -4.432  -1.210  23.909  0.00  0.00    +0.004 C 
ENDBRANCH  14  15
ENDBRANCH  13  14
ENDBRANCH   6  10
TORSDOF 4
ENDMDL
MODEL 4
REMARK VINA RESULT:      -4.3      2.417      4.286
REMARK  Name = 51137771
REMARK  5 active torsions:
REMARK  status: ('A' for Active; 'I' for Inactive)
REMARK    1  A    between atoms: C_6  and  C_10
REMARK    2  A    between atoms: C_11  and  C_12
REMARK    3  A    between atoms: C_13  and  C_14
REMARK    4  A    between atoms: C_14  and  C_15
REMARK    5  A    between atoms: C_15  and  C_18
REMARK                            x       y       z     vdW  Elec       q    Type
REMARK                         _______ _______ _______ _____ _____    ______ ____
ROOT
ATOM      2  O   UNL     1       0.773   2.344  26.330  0.00  0.00    -0.270 OA
ATOM      3  N   UNL     1      -0.927   3.005  24.894  0.00  0.00    -0.297 N 
ATOM      6  C   UNL     1      -3.042   3.552  23.949  0.00  0.00    +0.095 C 
ATOM      7  C   UNL     1      -2.686   4.571  25.042  0.00  0.00    +0.033 C 
ATOM      8  C   UNL     1      -1.674   2.929  23.637  0.00  0.00    +0.121 C 
ATOM      9  C   UNL     1      -1.594   3.879  25.847  0.00  0.00    +0.109 C 
ATOM     11  C   UNL     1       0.219   2.305  25.234  0.00  0.00    +0.247 C 
ENDROOT
BRANCH  11  12
ATOM     12  C   UNL     1       0.813   1.434  24.207  0.00  0.00    +0.037 A 
ATOM     16  C   UNL     1       2.105   1.681  23.745  0.00  0.00    +0.013 A 
ATOM     17  C   UNL     1       0.083   0.359  23.698  0.00  0.00    +0.013 A 
ATOM     19  C   UNL     1       2.668   0.854  22.772  0.00  0.00    +0.001 A 
ATOM     20  C   UNL     1       0.646  -0.468  22.725  0.00  0.00    +0.001 A 
ATOM     21  C   UNL     1       1.938  -0.220  22.263  0.00  0.00    +0.000 A 
ENDBRANCH  11  12
BRANCH   6  10
ATOM      1  O   UNL     1      -3.913   1.271  24.203  0.00  0.00    -0.424 OA
ATOM      4  N   UNL     1      -5.284   2.858  24.982  0.00  0.00    -0.112 NA
ATOM      5  N   UNL     1      -5.890   1.632  25.185  0.00  0.00    -0.112 NA
ATOM     10  C   UNL     1      -4.133   2.599  24.406  0.00  0.00    +0.222 A 
ATOM     13  C   UNL     1      -5.054   0.735  24.717  0.00  0.00    +0.217 A 
BRANCH  13  14
ATOM     14  C   UNL     1      -5.178  -0.727  24.674  0.00  0.00    +0.097 C 
BRANCH  14  15
ATOM     15  C   UNL     1      -4.001  -1.413  23.950  0.00  0.00    +0.006 C 
ATOM     18  C   UNL     1      -3.300  -2.448  24.816  0.00  0.00    +0.004 C 
ENDBRANCH  14  15
ENDBRANCH  13  14
ENDBRANCH   6  10
TORSDOF 4
ENDMDL
MODEL 5
REMARK VINA RESULT:      -3.7      2.266      6.239
REMARK  Name = 51137771
REMARK  5 active torsions:
REMARK  status: ('A' for Active; 'I' for Inactive)
REMARK    1  A    between atoms: C_6  and  C_10
REMARK    2  A    between atoms: C_11  and  C_12
REMARK    3  A    between atoms: C_13  and  C_14
REMARK    4  A    between atoms: C_14  and  C_15
REMARK    5  A    between atoms: C_15  and  C_18
REMARK                            x       y       z     vdW  Elec       q    Type
REMARK                         _______ _______ _______ _____ _____    ______ ____
ROOT
ATOM      2  O   UNL     1      -3.544   3.809  27.338  0.00  0.00    -0.270 OA
ATOM      3  N   UNL     1      -4.177   2.692  25.403  0.00  0.00    -0.297 N 
ATOM      6  C   UNL     1      -4.894   1.046  23.841  0.00  0.00    +0.095 C 
ATOM      7  C   UNL     1      -6.047   1.389  24.796  0.00  0.00    +0.033 C 
ATOM      8  C   UNL     1      -3.961   2.252  24.023  0.00  0.00    +0.121 C 
ATOM      9  C   UNL     1      -5.359   2.066  25.973  0.00  0.00    +0.109 C 
ATOM     11  C   UNL     1      -3.363   3.523  26.156  0.00  0.00    +0.247 C 
ENDROOT
BRANCH  11  12
ATOM     12  C   UNL     1      -2.180   4.098  25.495  0.00  0.00    +0.037 A 
ATOM     16  C   UNL     1      -1.129   3.270  25.103  0.00  0.00    +0.013 A 
ATOM     17  C   UNL     1      -2.113   5.472  25.260  0.00  0.00    +0.013 A 
ATOM     19  C   UNL     1      -0.009   3.816  24.475  0.00  0.00    +0.001 A 
ATOM     20  C   UNL     1      -0.992   6.018  24.632  0.00  0.00    +0.001 A 
ATOM     21  C   UNL     1       0.059   5.190  24.240  0.00  0.00    +0.000 A 
ENDBRANCH  11  12
BRANCH   6  10
ATOM      1  O   UNL     1      -2.965  -0.371  24.383  0.00  0.00    -0.424 OA
ATOM      4  N   UNL     1      -4.894  -1.490  24.212  0.00  0.00    -0.112 NA
ATOM      5  N   UNL     1      -3.898  -2.400  24.518  0.00  0.00    -0.112 NA
ATOM     10  C   UNL     1      -4.303  -0.320  24.143  0.00  0.00    +0.222 A 
ATOM     13  C   UNL     1      -2.790  -1.702  24.609  0.00  0.00    +0.217 A 
BRANCH  13  14
ATOM     14  C   UNL     1      -1.426  -2.150  24.915  0.00  0.00    +0.097 C 
BRANCH  14  15
ATOM     15  C   UNL     1      -0.420  -0.985  25.037  0.00  0.00    +0.006 C 
ATOM     18  C   UNL     1       0.183  -0.586  23.700  0.00  0.00    +0.004 C 
ENDBRANCH  14  15
ENDBRANCH  13  14
ENDBRANCH   6  10
TORSDOF 4
ENDMDL
MODEL 6
REMARK VINA RESULT:      -3.3      3.311      6.925
REMARK  Name = 51137771
REMARK  5 active torsions:
REMARK  status: ('A' for Active; 'I' for Inactive)
REMARK    1  A    between atoms: C_6  and  C_10
REMARK    2  A    between atoms: C_11  and  C_12
REMARK    3  A    between atoms: C_13  and  C_14
REMARK    4  A    between atoms: C_14  and  C_15
REMARK    5  A    between atoms: C_15  and  C_18
REMARK                            x       y       z     vdW  Elec       q    Type
REMARK                         _______ _______ _______ _____ _____    ______ ____
ROOT
ATOM      2  O   UNL     1      -0.289   1.769  27.305  0.00  0.00    -0.270 OA
ATOM      3  N   UNL     1      -0.681   0.917  25.181  0.00  0.00    -0.297 N 
ATOM      6  C   UNL     1      -0.477  -0.203  23.091  0.00  0.00    +0.095 C 
ATOM      7  C   UNL     1      -0.549  -1.236  24.226  0.00  0.00    +0.033 C 
ATOM      8  C   UNL     1      -1.042   1.053  23.769  0.00  0.00    +0.121 C 
ATOM      9  C   UNL     1      -0.221  -0.431  25.476  0.00  0.00    +0.109 C 
ATOM     11  C   UNL     1      -0.671   1.912  26.146  0.00  0.00    +0.247 C 
ENDROOT
BRANCH  11  12
ATOM     12  C   UNL     1      -1.141   3.249  25.749  0.00  0.00    +0.037 A 
ATOM     16  C   UNL     1      -0.291   4.109  25.054  0.00  0.00    +0.013 A 
ATOM     17  C   UNL     1      -2.437   3.654  26.067  0.00  0.00    +0.013 A 
ATOM     19  C   UNL     1      -0.738   5.376  24.677  0.00  0.00    +0.001 A 
ATOM     20  C   UNL     1      -2.884   4.921  25.689  0.00  0.00    +0.001 A 
ATOM     21  C   UNL     1      -2.035   5.781  24.994  0.00  0.00    +0.000 A 
ENDBRANCH  11  12
BRANCH   6  10
ATOM      1  O   UNL     1       1.850   0.551  23.285  0.00  0.00    -0.424 OA
ATOM      4  N   UNL     1       1.402  -0.534  21.380  0.00  0.00    -0.112 NA
ATOM      5  N   UNL     1       2.736  -0.169  21.360  0.00  0.00    -0.112 NA
ATOM     10  C   UNL     1       0.926  -0.094  22.521  0.00  0.00    +0.222 A 
ATOM     13  C   UNL     1       2.953   0.461  22.491  0.00  0.00    +0.217 A 
BRANCH  13  14
ATOM     14  C   UNL     1       4.190   1.064  23.003  0.00  0.00    +0.097 C 
BRANCH  14  15
ATOM     15  C   UNL     1       5.287   0.022  23.311  0.00  0.00    +0.006 C 
ATOM     18  C   UNL     1       4.735  -1.243  23.948  0.00  0.00    +0.004 C 
ENDBRANCH  14  15
ENDBRANCH  13  14
ENDBRANCH   6  10
TORSDOF 4
ENDMDL
MODEL 7
REMARK VINA RESULT:      -3.1      1.559      5.282
REMARK  Name = 51137771
REMARK  5 active torsions:
REMARK  status: ('A' for Active; 'I' for Inactive)
REMARK    1  A    between atoms: C_6  and  C_10
REMARK    2  A    between atoms: C_11  and  C_12
REMARK    3  A    between atoms: C_13  and  C_14
REMARK    4  A    between atoms: C_14  and  C_15
REMARK    5  A    between atoms: C_15  and  C_18
REMARK                            x       y       z     vdW  Elec       q    Type
REMARK                         _______ _______ _______ _____ _____    ______ ____
ROOT
ATOM      2  O   UNL     1      -3.787   4.371  23.166  0.00  0.00    -0.270 OA
ATOM      3  N   UNL     1      -2.214   3.424  24.588  0.00  0.00    -0.297 N 
ATOM      6  C   UNL     1      -0.318   2.290  25.473  0.00  0.00    +0.095 C 
ATOM      7  C   UNL     1       0.131   3.588  24.785  0.00  0.00    +0.033 C 
ATOM      8  C   UNL     1      -1.816   2.548  25.691  0.00  0.00    +0.121 C 
ATOM      9  C   UNL     1      -1.051   3.962  23.900  0.00  0.00    +0.109 C 
ATOM     11  C   UNL     1      -3.502   3.685  24.145  0.00  0.00    +0.247 C 
ENDROOT
BRANCH  11  12
ATOM     12  C   UNL     1      -4.614   3.083  24.897  0.00  0.00    +0.037 A 
ATOM     16  C   UNL     1      -4.942   1.742  24.705  0.00  0.00    +0.013 A 
ATOM     17  C   UNL     1      -5.340   3.856  25.805  0.00  0.00    +0.013 A 
ATOM     19  C   UNL     1      -5.996   1.172  25.419  0.00  0.00    +0.001 A 
ATOM     20  C   UNL     1      -6.394   3.286  26.519  0.00  0.00    +0.001 A 
ATOM     21  C   UNL     1      -6.722   1.944  26.326  0.00  0.00    +0.000 A 
ENDBRANCH  11  12
BRANCH   6  10
ATOM      1  O   UNL     1      -0.739  -0.034  24.808  0.00  0.00    -0.424 OA
ATOM      4  N   UNL     1       1.025   0.896  23.793  0.00  0.00    -0.112 NA
ATOM      5  N   UNL     1       0.902  -0.403  23.332  0.00  0.00    -0.112 NA
ATOM     10  C   UNL     1       0.047   1.066  24.652  0.00  0.00    +0.222 A 
ATOM     13  C   UNL     1      -0.141  -0.906  23.951  0.00  0.00    +0.217 A 
BRANCH  13  14
ATOM     14  C   UNL     1      -0.733  -2.245  23.845  0.00  0.00    +0.097 C 
BRANCH  14  15
ATOM     15  C   UNL     1      -1.862  -2.489  24.869  0.00  0.00    +0.006 C 
ATOM     18  C   UNL     1      -3.248  -2.379  24.254  0.00  0.00    +0.004 C 
ENDBRANCH  14  15
ENDBRANCH  13  14
ENDBRANCH   6  10
TORSDOF 4
ENDMDL
MODEL 8
REMARK VINA RESULT:      -2.5      3.088      6.212
REMARK  Name = 51137771
REMARK  5 active torsions:
REMARK  status: ('A' for Active; 'I' for Inactive)
REMARK    1  A    between atoms: C_6  and  C_10
REMARK    2  A    between atoms: C_11  and  C_12
REMARK    3  A    between atoms: C_13  and  C_14
REMARK    4  A    between atoms: C_14  and  C_15
REMARK    5  A    between atoms: C_15  and  C_18
REMARK                            x       y       z     vdW  Elec       q    Type
REMARK                         _______ _______ _______ _____ _____    ______ ____
ROOT
ATOM      2  O   UNL     1      -2.930  -0.726  26.676  0.00  0.00    -0.270 OA
ATOM      3  N   UNL     1      -2.022  -0.558  24.545  0.00  0.00    -0.297 N 
ATOM      6  C   UNL     1      -0.529  -0.472  22.694  0.00  0.00    +0.095 C 
ATOM      7  C   UNL     1      -0.542  -1.891  23.281  0.00  0.00    +0.033 C 
ATOM      8  C   UNL     1      -1.827   0.120  23.262  0.00  0.00    +0.121 C 
ATOM      9  C   UNL     1      -1.141  -1.708  24.669  0.00  0.00    +0.109 C 
ATOM     11  C   UNL     1      -2.852  -0.167  25.584  0.00  0.00    +0.247 C 
ENDROOT
BRANCH  11  12
ATOM     12  C   UNL     1      -3.697   1.019  25.370  0.00  0.00    +0.037 A 
ATOM     16  C   UNL     1      -5.069   0.872  25.176  0.00  0.00    +0.013 A 
ATOM     17  C   UNL     1      -3.122   2.291  25.363  0.00  0.00    +0.013 A 
ATOM     19  C   UNL     1      -5.870   1.997  24.974  0.00  0.00    +0.001 A 
ATOM     20  C   UNL     1      -3.923   3.416  25.161  0.00  0.00    +0.001 A 
ATOM     21  C   UNL     1      -5.296   3.269  24.967  0.00  0.00    +0.000 A 
ENDBRANCH  11  12
BRANCH   6  10
ATOM      1  O   UNL     1       1.887  -0.153  22.399  0.00  0.00    -0.424 OA
ATOM      4  N   UNL     1       0.956   1.262  23.861  0.00  0.00    -0.112 NA
ATOM      5  N   UNL     1       2.307   1.548  23.791  0.00  0.00    -0.112 NA
ATOM     10  C   UNL     1       0.757   0.263  23.034  0.00  0.00    +0.222 A 
ATOM     13  C   UNL     1       2.810   0.699  22.925  0.00  0.00    +0.217 A 
BRANCH  13  14
ATOM     14  C   UNL     1       4.193   0.548  22.458  0.00  0.00    +0.097 C 
BRANCH  14  15
ATOM     15  C   UNL     1       5.221   0.537  23.610  0.00  0.00    +0.006 C 
ATOM     18  C   UNL     1       5.418  -0.847  24.209  0.00  0.00    +0.004 C 
ENDBRANCH  14  15
ENDBRANCH  13  14
ENDBRANCH   6  10
TORSDOF 4
ENDMDL
MODEL 9
REMARK VINA RESULT:      -2.5      1.886      5.641
REMARK  Name = 51137771
REMARK  5 active torsions:
REMARK  status: ('A' for Active; 'I' for Inactive)
REMARK    1  A    between atoms: C_6  and  C_10
REMARK    2  A    between atoms: C_11  and  C_12
REMARK    3  A    between atoms: C_13  and  C_14
REMARK    4  A    between atoms: C_14  and  C_15
REMARK    5  A    between atoms: C_15  and  C_18
REMARK                            x       y       z     vdW  Elec       q    Type
REMARK                         _______ _______ _______ _____ _____    ______ ____
ROOT
ATOM      2  O   UNL     1      -2.653   2.664  22.053  0.00  0.00    -0.270 OA
ATOM      3  N   UNL     1      -1.337   1.686  23.698  0.00  0.00    -0.297 N 
ATOM      6  C   UNL     1      -0.056   0.157  24.995  0.00  0.00    +0.095 C 
ATOM      7  C   UNL     1       0.672   0.450  23.675  0.00  0.00    +0.033 C 
ATOM      8  C   UNL     1      -1.035   1.336  25.088  0.00  0.00    +0.121 C 
ATOM      9  C   UNL     1      -0.412   1.039  22.782  0.00  0.00    +0.109 C 
ATOM     11  C   UNL     1      -2.394   2.455  23.236  0.00  0.00    +0.247 C 
ENDROOT
BRANCH  11  12
ATOM     12  C   UNL     1      -3.286   3.058  24.240  0.00  0.00    +0.037 A 
ATOM     16  C   UNL     1      -4.630   2.689  24.290  0.00  0.00    +0.013 A 
ATOM     17  C   UNL     1      -2.785   3.997  25.142  0.00  0.00    +0.013 A 
ATOM     19  C   UNL     1      -5.474   3.259  25.243  0.00  0.00    +0.001 A 
ATOM     20  C   UNL     1      -3.630   4.568  26.095  0.00  0.00    +0.001 A 
ATOM     21  C   UNL     1      -4.974   4.199  26.145  0.00  0.00    +0.000 A 
ENDBRANCH  11  12
BRANCH   6  10
ATOM      1  O   UNL     1      -1.955  -1.341  24.577  0.00  0.00    -0.424 OA
ATOM      4  N   UNL     1      -0.135  -2.379  25.361  0.00  0.00    -0.112 NA
ATOM      5  N   UNL     1      -1.120  -3.331  25.170  0.00  0.00    -0.112 NA
ATOM     10  C   UNL     1      -0.666  -1.234  25.002  0.00  0.00    +0.222 A 
ATOM     13  C   UNL     1      -2.164  -2.679  24.711  0.00  0.00    +0.217 A 
BRANCH  13  14
ATOM     14  C   UNL     1      -3.488  -3.186  24.332  0.00  0.00    +0.097 C 
BRANCH  14  15
ATOM     15  C   UNL     1      -4.490  -2.062  23.990  0.00  0.00    +0.006 C 
ATOM     18  C   UNL     1      -3.863  -0.945  23.171  0.00  0.00    +0.004 C 
ENDBRANCH  14  15
ENDBRANCH  13  14
ENDBRANCH   6  10
TORSDOF 4
ENDMDL
MODEL 10
REMARK VINA RESULT:      -2.5     15.689     18.256
REMARK  Name = 51137771
REMARK  5 active torsions:
REMARK  status: ('A' for Active; 'I' for Inactive)
REMARK    1  A    between atoms: C_6  and  C_10
REMARK    2  A    between atoms: C_11  and  C_12
REMARK    3  A    between atoms: C_13  and  C_14
REMARK    4  A    between atoms: C_14  and  C_15
REMARK    5  A    between atoms: C_15  and  C_18
REMARK                            x       y       z     vdW  Elec       q    Type
REMARK                         _______ _______ _______ _____ _____    ______ ____
ROOT
ATOM      2  O   UNL     1      13.848   9.094  22.069  0.00  0.00    -0.270 OA
ATOM      3  N   UNL     1      14.260   7.680  20.274  0.00  0.00    -0.297 N 
ATOM      6  C   UNL     1      14.815   6.803  18.132  0.00  0.00    +0.095 C 
ATOM      7  C   UNL     1      16.071   7.399  18.787  0.00  0.00    +0.033 C 
ATOM      8  C   UNL     1      13.884   6.617  19.339  0.00  0.00    +0.121 C 
ATOM      9  C   UNL     1      15.519   8.297  19.886  0.00  0.00    +0.109 C 
ATOM     11  C   UNL     1      13.527   8.148  21.353  0.00  0.00    +0.247 C 
ENDROOT
BRANCH  11  12
ATOM     12  C   UNL     1      12.258   7.468  21.659  0.00  0.00    +0.037 A 
ATOM     16  C   UNL     1      12.129   6.098  21.434  0.00  0.00    +0.013 A 
ATOM     17  C   UNL     1      11.186   8.195  22.175  0.00  0.00    +0.013 A 
ATOM     19  C   UNL     1      10.926   5.454  21.725  0.00  0.00    +0.001 A 
ATOM     20  C   UNL     1       9.982   7.551  22.466  0.00  0.00    +0.001 A 
ATOM     21  C   UNL     1       9.853   6.181  22.242  0.00  0.00    +0.000 A 
ENDBRANCH  11  12
BRANCH   6  10
ATOM      1  O   UNL     1      12.952   7.859  16.934  0.00  0.00    -0.424 OA
ATOM      4  N   UNL     1      14.964   8.313  16.067  0.00  0.00    -0.112 NA
ATOM      5  N   UNL     1      14.012   8.965  15.304  0.00  0.00    -0.112 NA
ATOM     10  C   UNL     1      14.300   7.681  17.006  0.00  0.00    +0.222 A 
ATOM     13  C   UNL     1      12.853   8.672  15.847  0.00  0.00    +0.217 A 
BRANCH  13  14
ATOM     14  C   UNL     1      11.504   9.092  15.453  0.00  0.00    +0.097 C 
BRANCH  14  15
ATOM     15  C   UNL     1      10.408   8.585  16.414  0.00  0.00    +0.006 C 
ATOM     18  C   UNL     1      10.737   8.851  17.875  0.00  0.00    +0.004 C 
ENDBRANCH  14  15
ENDBRANCH  13  14
ENDBRANCH   6  10
TORSDOF 4
ENDMDL
