MODEL 1
REMARK VINA RESULT:      -6.6      0.000      0.000
REMARK  Name = 75536532
REMARK  7 active torsions:
REMARK  status: ('A' for Active; 'I' for Inactive)
REMARK    1  A    between atoms: O_2  and  C_8
REMARK    2  A    between atoms: N_4  and  C_7
REMARK    3  A    between atoms: N_4  and  C_15
REMARK    4  A    between atoms: N_4  and  C_16
REMARK    5  A    between atoms: N_5  and  C_13
REMARK    6  A    between atoms: C_6  and  C_14
REMARK    7  A    between atoms: C_9  and  C_13
REMARK                            x       y       z     vdW  Elec       q    Type
REMARK                         _______ _______ _______ _____ _____    ______ ____
ROOT
ATOM      1  O   UNL     1      -1.293   1.152  23.069  0.00  0.00    -0.371 OA
ATOM      7  C   UNL     1      -1.043   3.014  24.521  0.00  0.00    +0.113 C 
ATOM      8  C   UNL     1      -0.412   1.794  25.168  0.00  0.00    +0.164 C 
ATOM      9  C   UNL     1      -0.187   0.903  23.953  0.00  0.00    +0.165 C 
ATOM     12  C   UNL     1      -1.940   2.370  23.476  0.00  0.00    +0.181 C 
ENDROOT
BRANCH   7   4
ATOM      4  N   UNL     1      -1.777   3.854  25.454  0.00  0.00    -0.301 NA
ATOM     15  C   UNL     1      -3.214   3.571  25.391  0.00  0.00    +0.105 C 
ATOM     16  C   UNL     1      -1.532   5.273  25.182  0.00  0.00    +0.105 C 
ENDBRANCH   7   4
BRANCH   8   2
ATOM      2  O   UNL     1       0.799   2.095  25.832  0.00  0.00    -0.388 OA
ATOM     18  H   UNL     1       0.807   1.625  26.683  0.00  0.00    +0.210 HD
ENDBRANCH   8   2
BRANCH   9  13
ATOM     13  C   UNL     1      -0.127  -0.574  24.298  0.00  0.00    +0.138 C 
BRANCH  13   5
ATOM      3  O   UNL     1      -1.928  -0.841  26.565  0.00  0.00    -0.276 OA
ATOM      5  N   UNL     1      -1.435  -1.161  24.311  0.00  0.00    -0.313 N 
ATOM     14  C   UNL     1      -2.227  -1.245  25.449  0.00  0.00    +0.216 C 
ATOM     17  H   UNL     1      -1.801  -1.520  23.434  0.00  0.00    +0.149 HD
BRANCH  14   6
ATOM      6  C   UNL     1      -3.553  -1.894  25.230  0.00  0.00    +0.075 C 
ATOM     10  C   UNL     1      -3.667  -2.941  24.172  0.00  0.00    +0.013 C 
ATOM     11  C   UNL     1      -4.294  -1.594  23.969  0.00  0.00    +0.013 C 
ENDBRANCH  14   6
ENDBRANCH  13   5
ENDBRANCH   9  13
TORSDOF 5
ENDMDL
MODEL 2
REMARK VINA RESULT:      -6.3      2.171      3.254
REMARK  Name = 75536532
REMARK  7 active torsions:
REMARK  status: ('A' for Active; 'I' for Inactive)
REMARK    1  A    between atoms: O_2  and  C_8
REMARK    2  A    between atoms: N_4  and  C_7
REMARK    3  A    between atoms: N_4  and  C_15
REMARK    4  A    between atoms: N_4  and  C_16
REMARK    5  A    between atoms: N_5  and  C_13
REMARK    6  A    between atoms: C_6  and  C_14
REMARK    7  A    between atoms: C_9  and  C_13
REMARK                            x       y       z     vdW  Elec       q    Type
REMARK                         _______ _______ _______ _____ _____    ______ ____
ROOT
ATOM      1  O   UNL     1      -4.744   3.127  25.735  0.00  0.00    -0.371 OA
ATOM      7  C   UNL     1      -2.729   3.582  24.562  0.00  0.00    +0.113 C 
ATOM      8  C   UNL     1      -3.136   2.141  24.307  0.00  0.00    +0.164 C 
ATOM      9  C   UNL     1      -4.619   2.191  24.651  0.00  0.00    +0.165 C 
ATOM     12  C   UNL     1      -3.537   3.906  25.808  0.00  0.00    +0.181 C 
ENDROOT
BRANCH   7   4
ATOM      4  N   UNL     1      -1.299   3.758  24.754  0.00  0.00    -0.301 NA
ATOM     15  C   UNL     1      -0.819   2.938  25.870  0.00  0.00    +0.105 C 
ATOM     16  C   UNL     1      -0.975   5.167  24.989  0.00  0.00    +0.105 C 
ENDBRANCH   7   4
BRANCH   8   2
ATOM      2  O   UNL     1      -2.918   1.742  22.969  0.00  0.00    -0.388 OA
ATOM     18  H   UNL     1      -3.781   1.668  22.527  0.00  0.00    +0.210 HD
ENDBRANCH   8   2
BRANCH   9  13
ATOM     13  C   UNL     1      -5.182   0.844  25.067  0.00  0.00    +0.138 C 
BRANCH  13   5
ATOM      3  O   UNL     1      -4.442  -1.613  23.699  0.00  0.00    -0.276 OA
ATOM      5  N   UNL     1      -4.138  -0.073  25.420  0.00  0.00    -0.313 N 
ATOM     14  C   UNL     1      -3.856  -1.228  24.703  0.00  0.00    +0.216 C 
ATOM     17  H   UNL     1      -3.569   0.150  26.232  0.00  0.00    +0.149 HD
BRANCH  14   6
ATOM      6  C   UNL     1      -2.725  -2.032  25.250  0.00  0.00    +0.075 C 
ATOM     10  C   UNL     1      -1.349  -1.455  25.196  0.00  0.00    +0.013 C 
ATOM     11  C   UNL     1      -1.723  -2.595  24.297  0.00  0.00    +0.013 C 
ENDBRANCH  14   6
ENDBRANCH  13   5
ENDBRANCH   9  13
TORSDOF 5
ENDMDL
MODEL 3
REMARK VINA RESULT:      -6.0      2.064      2.772
REMARK  Name = 75536532
REMARK  7 active torsions:
REMARK  status: ('A' for Active; 'I' for Inactive)
REMARK    1  A    between atoms: O_2  and  C_8
REMARK    2  A    between atoms: N_4  and  C_7
REMARK    3  A    between atoms: N_4  and  C_15
REMARK    4  A    between atoms: N_4  and  C_16
REMARK    5  A    between atoms: N_5  and  C_13
REMARK    6  A    between atoms: C_6  and  C_14
REMARK    7  A    between atoms: C_9  and  C_13
REMARK                            x       y       z     vdW  Elec       q    Type
REMARK                         _______ _______ _______ _____ _____    ______ ____
ROOT
ATOM      1  O   UNL     1      -1.549   2.257  23.106  0.00  0.00    -0.371 OA
ATOM      7  C   UNL     1      -3.507   3.104  24.151  0.00  0.00    +0.113 C 
ATOM      8  C   UNL     1      -2.466   2.809  25.215  0.00  0.00    +0.164 C 
ATOM      9  C   UNL     1      -1.190   2.807  24.384  0.00  0.00    +0.165 C 
ATOM     12  C   UNL     1      -2.982   2.285  22.982  0.00  0.00    +0.181 C 
ENDROOT
BRANCH   7   4
ATOM      4  N   UNL     1      -4.858   2.733  24.539  0.00  0.00    -0.301 NA
ATOM     15  C   UNL     1      -5.392   3.674  25.528  0.00  0.00    +0.105 C 
ATOM     16  C   UNL     1      -4.891   1.370  25.074  0.00  0.00    +0.105 C 
ENDBRANCH   7   4
BRANCH   8   2
ATOM      2  O   UNL     1      -2.432   3.792  26.231  0.00  0.00    -0.388 OA
ATOM     18  H   UNL     1      -1.703   4.406  26.039  0.00  0.00    +0.210 HD
ENDBRANCH   8   2
BRANCH   9  13
ATOM     13  C   UNL     1      -0.073   1.985  25.002  0.00  0.00    +0.138 C 
BRANCH  13   5
ATOM      3  O   UNL     1       0.182  -0.505  23.521  0.00  0.00    -0.276 OA
ATOM      5  N   UNL     1      -0.536   0.685  25.391  0.00  0.00    -0.313 N 
ATOM     14  C   UNL     1      -0.368  -0.454  24.614  0.00  0.00    +0.216 C 
ATOM     17  H   UNL     1      -0.998   0.598  26.291  0.00  0.00    +0.149 HD
BRANCH  14   6
ATOM      6  C   UNL     1      -0.927  -1.699  25.216  0.00  0.00    +0.075 C 
ATOM     10  C   UNL     1      -1.869  -2.523  24.401  0.00  0.00    +0.013 C 
ATOM     11  C   UNL     1      -2.377  -1.732  25.569  0.00  0.00    +0.013 C 
ENDBRANCH  14   6
ENDBRANCH  13   5
ENDBRANCH   9  13
TORSDOF 5
ENDMDL
MODEL 4
REMARK VINA RESULT:      -5.4      1.973      4.517
REMARK  Name = 75536532
REMARK  7 active torsions:
REMARK  status: ('A' for Active; 'I' for Inactive)
REMARK    1  A    between atoms: O_2  and  C_8
REMARK    2  A    between atoms: N_4  and  C_7
REMARK    3  A    between atoms: N_4  and  C_15
REMARK    4  A    between atoms: N_4  and  C_16
REMARK    5  A    between atoms: N_5  and  C_13
REMARK    6  A    between atoms: C_6  and  C_14
REMARK    7  A    between atoms: C_9  and  C_13
REMARK                            x       y       z     vdW  Elec       q    Type
REMARK                         _______ _______ _______ _____ _____    ______ ____
ROOT
ATOM      1  O   UNL     1      -0.319   2.750  25.528  0.00  0.00    -0.371 OA
ATOM      7  C   UNL     1      -0.789   0.767  24.309  0.00  0.00    +0.113 C 
ATOM      8  C   UNL     1      -1.760   1.853  23.880  0.00  0.00    +0.164 C 
ATOM      9  C   UNL     1      -1.010   3.104  24.318  0.00  0.00    +0.165 C 
ATOM     12  C   UNL     1      -0.290   1.317  25.635  0.00  0.00    +0.181 C 
ENDROOT
BRANCH   7   4
ATOM      4  N   UNL     1      -1.402  -0.546  24.435  0.00  0.00    -0.301 NA
ATOM     15  C   UNL     1      -2.756  -0.437  24.986  0.00  0.00    +0.105 C 
ATOM     16  C   UNL     1      -0.585  -1.423  25.278  0.00  0.00    +0.105 C 
ENDBRANCH   7   4
BRANCH   8   2
ATOM      2  O   UNL     1      -2.006   1.845  22.488  0.00  0.00    -0.388 OA
ATOM     18  H   UNL     1      -1.995   0.923  22.180  0.00  0.00    +0.210 HD
ENDBRANCH   8   2
BRANCH   9  13
ATOM     13  C   UNL     1      -1.923   4.290  24.575  0.00  0.00    +0.138 C 
BRANCH  13   5
ATOM      3  O   UNL     1      -3.653   3.901  26.880  0.00  0.00    -0.276 OA
ATOM      5  N   UNL     1      -3.302   3.897  24.577  0.00  0.00    -0.313 N 
ATOM     14  C   UNL     1      -4.052   3.735  25.734  0.00  0.00    +0.216 C 
ATOM     17  H   UNL     1      -3.750   3.744  23.678  0.00  0.00    +0.149 HD
BRANCH  14   6
ATOM      6  C   UNL     1      -5.467   3.323  25.499  0.00  0.00    +0.075 C 
ATOM     10  C   UNL     1      -5.994   2.136  26.235  0.00  0.00    +0.013 C 
ATOM     11  C   UNL     1      -5.726   2.050  24.763  0.00  0.00    +0.013 C 
ENDBRANCH  14   6
ENDBRANCH  13   5
ENDBRANCH   9  13
TORSDOF 5
ENDMDL
MODEL 5
REMARK VINA RESULT:      -5.4      1.596      5.060
REMARK  Name = 75536532
REMARK  7 active torsions:
REMARK  status: ('A' for Active; 'I' for Inactive)
REMARK    1  A    between atoms: O_2  and  C_8
REMARK    2  A    between atoms: N_4  and  C_7
REMARK    3  A    between atoms: N_4  and  C_15
REMARK    4  A    between atoms: N_4  and  C_16
REMARK    5  A    between atoms: N_5  and  C_13
REMARK    6  A    between atoms: C_6  and  C_14
REMARK    7  A    between atoms: C_9  and  C_13
REMARK                            x       y       z     vdW  Elec       q    Type
REMARK                         _______ _______ _______ _____ _____    ______ ____
ROOT
ATOM      1  O   UNL     1       0.194  -0.631  24.626  0.00  0.00    -0.371 OA
ATOM      7  C   UNL     1      -2.040  -1.320  24.204  0.00  0.00    +0.113 C 
ATOM      8  C   UNL     1      -2.011   0.188  24.378  0.00  0.00    +0.164 C 
ATOM      9  C   UNL     1      -0.543   0.486  24.103  0.00  0.00    +0.165 C 
ATOM     12  C   UNL     1      -0.720  -1.721  24.843  0.00  0.00    +0.181 C 
ENDROOT
BRANCH   7   4
ATOM      4  N   UNL     1      -3.187  -1.957  24.830  0.00  0.00    -0.301 NA
ATOM     15  C   UNL     1      -4.290  -2.096  23.875  0.00  0.00    +0.105 C 
ATOM     16  C   UNL     1      -3.630  -1.196  26.002  0.00  0.00    +0.105 C 
ENDBRANCH   7   4
BRANCH   8   2
ATOM      2  O   UNL     1      -2.864   0.858  23.471  0.00  0.00    -0.388 OA
ATOM     18  H   UNL     1      -3.107   1.717  23.856  0.00  0.00    +0.210 HD
ENDBRANCH   8   2
BRANCH   9  13
ATOM     13  C   UNL     1      -0.060   1.770  24.754  0.00  0.00    +0.138 C 
BRANCH  13   5
ATOM      3  O   UNL     1      -0.313   4.652  24.461  0.00  0.00    -0.276 OA
ATOM      5  N   UNL     1      -1.160   2.597  25.157  0.00  0.00    -0.313 N 
ATOM     14  C   UNL     1      -1.193   3.973  24.976  0.00  0.00    +0.216 C 
ATOM     17  H   UNL     1      -1.961   2.141  25.585  0.00  0.00    +0.149 HD
BRANCH  14   6
ATOM      6  C   UNL     1      -2.438   4.630  25.470  0.00  0.00    +0.075 C 
ATOM     10  C   UNL     1      -3.215   3.958  26.553  0.00  0.00    +0.013 C 
ATOM     11  C   UNL     1      -3.752   3.998  25.154  0.00  0.00    +0.013 C 
ENDBRANCH  14   6
ENDBRANCH  13   5
ENDBRANCH   9  13
TORSDOF 5
ENDMDL
MODEL 6
REMARK VINA RESULT:      -4.9      2.763      4.327
REMARK  Name = 75536532
REMARK  7 active torsions:
REMARK  status: ('A' for Active; 'I' for Inactive)
REMARK    1  A    between atoms: O_2  and  C_8
REMARK    2  A    between atoms: N_4  and  C_7
REMARK    3  A    between atoms: N_4  and  C_15
REMARK    4  A    between atoms: N_4  and  C_16
REMARK    5  A    between atoms: N_5  and  C_13
REMARK    6  A    between atoms: C_6  and  C_14
REMARK    7  A    between atoms: C_9  and  C_13
REMARK                            x       y       z     vdW  Elec       q    Type
REMARK                         _______ _______ _______ _____ _____    ______ ____
ROOT
ATOM      1  O   UNL     1      -1.516   1.842  23.105  0.00  0.00    -0.371 OA
ATOM      7  C   UNL     1      -3.434   2.867  24.061  0.00  0.00    +0.113 C 
ATOM      8  C   UNL     1      -2.362   2.729  25.128  0.00  0.00    +0.164 C 
ATOM      9  C   UNL     1      -1.112   2.581  24.270  0.00  0.00    +0.165 C 
ATOM     12  C   UNL     1      -2.951   1.869  23.021  0.00  0.00    +0.181 C 
ENDROOT
BRANCH   7   4
ATOM      4  N   UNL     1      -4.775   2.579  24.542  0.00  0.00    -0.301 NA
ATOM     15  C   UNL     1      -5.212   3.595  25.504  0.00  0.00    +0.105 C 
ATOM     16  C   UNL     1      -4.834   1.249  25.154  0.00  0.00    +0.105 C 
ENDBRANCH   7   4
BRANCH   8   2
ATOM      2  O   UNL     1      -2.289   3.858  25.976  0.00  0.00    -0.388 OA
ATOM     18  H   UNL     1      -1.837   3.597  26.796  0.00  0.00    +0.210 HD
ENDBRANCH   8   2
BRANCH   9  13
ATOM     13  C   UNL     1       0.016   1.851  24.976  0.00  0.00    +0.138 C 
BRANCH  13   5
ATOM      3  O   UNL     1       0.402  -0.681  23.600  0.00  0.00    -0.276 OA
ATOM      5  N   UNL     1       1.065   1.503  24.063  0.00  0.00    -0.313 N 
ATOM     14  C   UNL     1       1.169   0.262  23.450  0.00  0.00    +0.216 C 
ATOM     17  H   UNL     1       1.758   2.215  23.846  0.00  0.00    +0.149 HD
BRANCH  14   6
ATOM      6  C   UNL     1       2.340   0.121  22.536  0.00  0.00    +0.075 C 
ATOM     10  C   UNL     1       3.623  -0.395  23.097  0.00  0.00    +0.013 C 
ATOM     11  C   UNL     1       3.497   1.048  22.712  0.00  0.00    +0.013 C 
ENDBRANCH  14   6
ENDBRANCH  13   5
ENDBRANCH   9  13
TORSDOF 5
ENDMDL
MODEL 7
REMARK VINA RESULT:      -4.9      1.241      1.981
REMARK  Name = 75536532
REMARK  7 active torsions:
REMARK  status: ('A' for Active; 'I' for Inactive)
REMARK    1  A    between atoms: O_2  and  C_8
REMARK    2  A    between atoms: N_4  and  C_7
REMARK    3  A    between atoms: N_4  and  C_15
REMARK    4  A    between atoms: N_4  and  C_16
REMARK    5  A    between atoms: N_5  and  C_13
REMARK    6  A    between atoms: C_6  and  C_14
REMARK    7  A    between atoms: C_9  and  C_13
REMARK                            x       y       z     vdW  Elec       q    Type
REMARK                         _______ _______ _______ _____ _____    ______ ____
ROOT
ATOM      1  O   UNL     1       0.628   2.246  25.055  0.00  0.00    -0.371 OA
ATOM      7  C   UNL     1      -1.475   3.188  25.632  0.00  0.00    +0.113 C 
ATOM      8  C   UNL     1      -1.704   1.906  24.851  0.00  0.00    +0.164 C 
ATOM      9  C   UNL     1      -0.364   1.206  25.039  0.00  0.00    +0.165 C 
ATOM     12  C   UNL     1      -0.033   3.505  25.271  0.00  0.00    +0.181 C 
ENDROOT
BRANCH   7   4
ATOM      4  N   UNL     1      -2.395   4.257  25.279  0.00  0.00    -0.301 NA
ATOM     15  C   UNL     1      -1.683   5.530  25.138  0.00  0.00    +0.105 C 
ATOM     16  C   UNL     1      -3.457   4.383  26.280  0.00  0.00    +0.105 C 
ENDBRANCH   7   4
BRANCH   8   2
ATOM      2  O   UNL     1      -2.775   1.139  25.364  0.00  0.00    -0.388 OA
ATOM     18  H   UNL     1      -3.535   1.236  24.766  0.00  0.00    +0.210 HD
ENDBRANCH   8   2
BRANCH   9  13
ATOM     13  C   UNL     1      -0.048   0.212  23.935  0.00  0.00    +0.138 C 
BRANCH  13   5
ATOM      3  O   UNL     1      -0.566  -2.109  25.609  0.00  0.00    -0.276 OA
ATOM      5  N   UNL     1      -1.096  -0.756  23.788  0.00  0.00    -0.313 N 
ATOM     14  C   UNL     1      -1.266  -1.838  24.641  0.00  0.00    +0.216 C 
ATOM     17  H   UNL     1      -1.753  -0.627  23.025  0.00  0.00    +0.149 HD
BRANCH  14   6
ATOM      6  C   UNL     1      -2.424  -2.715  24.300  0.00  0.00    +0.075 C 
ATOM     10  C   UNL     1      -3.725  -2.072  23.949  0.00  0.00    +0.013 C 
ATOM     11  C   UNL     1      -3.568  -2.791  25.256  0.00  0.00    +0.013 C 
ENDBRANCH  14   6
ENDBRANCH  13   5
ENDBRANCH   9  13
TORSDOF 5
ENDMDL
MODEL 8
REMARK VINA RESULT:      -4.7      3.209      5.502
REMARK  Name = 75536532
REMARK  7 active torsions:
REMARK  status: ('A' for Active; 'I' for Inactive)
REMARK    1  A    between atoms: O_2  and  C_8
REMARK    2  A    between atoms: N_4  and  C_7
REMARK    3  A    between atoms: N_4  and  C_15
REMARK    4  A    between atoms: N_4  and  C_16
REMARK    5  A    between atoms: N_5  and  C_13
REMARK    6  A    between atoms: C_6  and  C_14
REMARK    7  A    between atoms: C_9  and  C_13
REMARK                            x       y       z     vdW  Elec       q    Type
REMARK                         _______ _______ _______ _____ _____    ______ ____
ROOT
ATOM      1  O   UNL     1       0.205   1.554  24.400  0.00  0.00    -0.371 OA
ATOM      7  C   UNL     1      -1.617   0.292  25.253  0.00  0.00    +0.113 C 
ATOM      8  C   UNL     1      -0.977  -0.473  24.109  0.00  0.00    +0.164 C 
ATOM      9  C   UNL     1       0.402   0.171  24.061  0.00  0.00    +0.165 C 
ATOM     12  C   UNL     1      -1.092   1.697  25.005  0.00  0.00    +0.181 C 
ENDROOT
BRANCH   7   4
ATOM      4  N   UNL     1      -3.069   0.225  25.259  0.00  0.00    -0.301 NA
ATOM     15  C   UNL     1      -3.528  -1.061  25.793  0.00  0.00    +0.105 C 
ATOM     16  C   UNL     1      -3.606   0.430  23.911  0.00  0.00    +0.105 C 
ENDBRANCH   7   4
BRANCH   8   2
ATOM      2  O   UNL     1      -0.901  -1.863  24.360  0.00  0.00    -0.388 OA
ATOM     18  H   UNL     1      -0.571  -2.301  23.557  0.00  0.00    +0.210 HD
ENDBRANCH   8   2
BRANCH   9  13
ATOM     13  C   UNL     1       1.065   0.065  22.699  0.00  0.00    +0.138 C 
BRANCH  13   5
ATOM      3  O   UNL     1       3.326   1.887  22.859  0.00  0.00    -0.276 OA
ATOM      5  N   UNL     1       2.453  -0.273  22.819  0.00  0.00    -0.313 N 
ATOM     14  C   UNL     1       3.469   0.671  22.889  0.00  0.00    +0.216 C 
ATOM     17  H   UNL     1       2.696  -1.258  22.869  0.00  0.00    +0.149 HD
BRANCH  14   6
ATOM      6  C   UNL     1       4.839   0.093  23.012  0.00  0.00    +0.075 C 
ATOM     10  C   UNL     1       5.046  -1.053  23.947  0.00  0.00    +0.013 C 
ATOM     11  C   UNL     1       5.590   0.303  24.286  0.00  0.00    +0.013 C 
ENDBRANCH  14   6
ENDBRANCH  13   5
ENDBRANCH   9  13
TORSDOF 5
ENDMDL
MODEL 9
REMARK VINA RESULT:      -4.6      1.488      4.720
REMARK  Name = 75536532
REMARK  7 active torsions:
REMARK  status: ('A' for Active; 'I' for Inactive)
REMARK    1  A    between atoms: O_2  and  C_8
REMARK    2  A    between atoms: N_4  and  C_7
REMARK    3  A    between atoms: N_4  and  C_15
REMARK    4  A    between atoms: N_4  and  C_16
REMARK    5  A    between atoms: N_5  and  C_13
REMARK    6  A    between atoms: C_6  and  C_14
REMARK    7  A    between atoms: C_9  and  C_13
REMARK                            x       y       z     vdW  Elec       q    Type
REMARK                         _______ _______ _______ _____ _____    ______ ____
ROOT
ATOM      1  O   UNL     1      -0.898   1.391  25.956  0.00  0.00    -0.371 OA
ATOM      7  C   UNL     1      -0.641  -0.682  24.825  0.00  0.00    +0.113 C 
ATOM      8  C   UNL     1      -0.460   0.451  23.831  0.00  0.00    +0.164 C 
ATOM      9  C   UNL     1      -0.127   1.609  24.762  0.00  0.00    +0.165 C 
ATOM     12  C   UNL     1      -1.360   0.030  25.961  0.00  0.00    +0.181 C 
ENDROOT
BRANCH   7   4
ATOM      4  N   UNL     1      -1.395  -1.807  24.296  0.00  0.00    -0.301 NA
ATOM     15  C   UNL     1      -2.835  -1.537  24.344  0.00  0.00    +0.105 C 
ATOM     16  C   UNL     1      -1.089  -3.033  25.037  0.00  0.00    +0.105 C 
ENDBRANCH   7   4
BRANCH   8   2
ATOM      2  O   UNL     1       0.581   0.202  22.906  0.00  0.00    -0.388 OA
ATOM     18  H   UNL     1       0.208  -0.276  22.146  0.00  0.00    +0.210 HD
ENDBRANCH   8   2
BRANCH   9  13
ATOM     13  C   UNL     1      -0.462   2.967  24.174  0.00  0.00    +0.138 C 
BRANCH  13   5
ATOM      3  O   UNL     1      -2.924   2.261  22.796  0.00  0.00    -0.276 OA
ATOM      5  N   UNL     1      -1.797   3.367  24.510  0.00  0.00    -0.313 N 
ATOM     14  C   UNL     1      -2.919   2.978  23.789  0.00  0.00    +0.216 C 
ATOM     17  H   UNL     1      -1.922   3.954  25.329  0.00  0.00    +0.149 HD
BRANCH  14   6
ATOM      6  C   UNL     1      -4.208   3.511  24.320  0.00  0.00    +0.075 C 
ATOM     10  C   UNL     1      -4.379   3.613  25.800  0.00  0.00    +0.013 C 
ATOM     11  C   UNL     1      -5.131   2.573  25.024  0.00  0.00    +0.013 C 
ENDBRANCH  14   6
ENDBRANCH  13   5
ENDBRANCH   9  13
TORSDOF 5
ENDMDL
MODEL 10
REMARK VINA RESULT:      -4.5      2.042      5.572
REMARK  Name = 75536532
REMARK  7 active torsions:
REMARK  status: ('A' for Active; 'I' for Inactive)
REMARK    1  A    between atoms: O_2  and  C_8
REMARK    2  A    between atoms: N_4  and  C_7
REMARK    3  A    between atoms: N_4  and  C_15
REMARK    4  A    between atoms: N_4  and  C_16
REMARK    5  A    between atoms: N_5  and  C_13
REMARK    6  A    between atoms: C_6  and  C_14
REMARK    7  A    between atoms: C_9  and  C_13
REMARK                            x       y       z     vdW  Elec       q    Type
REMARK                         _______ _______ _______ _____ _____    ______ ____
ROOT
ATOM      1  O   UNL     1      -4.660  -0.146  24.246  0.00  0.00    -0.371 OA
ATOM      7  C   UNL     1      -2.741  -1.167  25.203  0.00  0.00    +0.113 C 
ATOM      8  C   UNL     1      -2.423   0.283  24.883  0.00  0.00    +0.164 C 
ATOM      9  C   UNL     1      -3.822   0.879  24.807  0.00  0.00    +0.165 C 
ATOM     12  C   UNL     1      -3.968  -1.403  24.336  0.00  0.00    +0.181 C 
ENDROOT
BRANCH   7   4
ATOM      4  N   UNL     1      -1.651  -2.082  24.902  0.00  0.00    -0.301 NA
ATOM     15  C   UNL     1      -0.494  -1.356  24.372  0.00  0.00    +0.105 C 
ATOM     16  C   UNL     1      -2.081  -3.108  23.948  0.00  0.00    +0.105 C 
ENDBRANCH   7   4
BRANCH   8   2
ATOM      2  O   UNL     1      -1.640   0.902  25.884  0.00  0.00    -0.388 OA
ATOM     18  H   UNL     1      -2.238   1.341  26.513  0.00  0.00    +0.210 HD
ENDBRANCH   8   2
BRANCH   9  13
ATOM     13  C   UNL     1      -3.895   2.129  23.947  0.00  0.00    +0.138 C 
BRANCH  13   5
ATOM      3  O   UNL     1      -3.890   3.956  26.209  0.00  0.00    -0.276 OA
ATOM      5  N   UNL     1      -2.876   3.071  24.308  0.00  0.00    -0.313 N 
ATOM     14  C   UNL     1      -2.961   3.907  25.413  0.00  0.00    +0.216 C 
ATOM     17  H   UNL     1      -2.043   3.111  23.727  0.00  0.00    +0.149 HD
BRANCH  14   6
ATOM      6  C   UNL     1      -1.784   4.805  25.598  0.00  0.00    +0.075 C 
ATOM     10  C   UNL     1      -1.316   5.614  24.433  0.00  0.00    +0.013 C 
ATOM     11  C   UNL     1      -0.503   4.452  24.917  0.00  0.00    +0.013 C 
ENDBRANCH  14   6
ENDBRANCH  13   5
ENDBRANCH   9  13
TORSDOF 5
ENDMDL
