MODEL 1
REMARK VINA RESULT:      -3.0      0.000      0.000
REMARK  Name = 38029729
REMARK  15 active torsions:
REMARK  status: ('A' for Active; 'I' for Inactive)
REMARK    1  A    between atoms: S_1  and  N_7
REMARK    2  A    between atoms: S_1  and  C_22
REMARK    3  A    between atoms: O_2  and  C_21
REMARK    4  A    between atoms: O_2  and  C_23
REMARK    5  A    between atoms: N_7  and  C_16
REMARK    6  A    between atoms: N_8  and  C_29
REMARK    7  A    between atoms: C_9  and  C_13
REMARK    8  A    between atoms: C_10  and  C_16
REMARK    9  A    between atoms: C_12  and  C_17
REMARK   10  A    between atoms: C_13  and  C_18
REMARK   11  A    between atoms: C_13  and  C_19
REMARK   12  A    between atoms: C_14  and  C_20
REMARK   13  A    between atoms: C_17  and  C_21
REMARK   14  A    between atoms: C_23  and  C_28
REMARK   15  A    between atoms: C_30  and  C_31
REMARK                            x       y       z     vdW  Elec       q    Type
REMARK                         _______ _______ _______ _____ _____    ______ ____
ROOT
ATOM     16  C   UNL     1      -4.801   0.226  25.307  0.00  0.00    +0.113 C 
ENDROOT
BRANCH  16  10
ATOM      9  C   UNL     1      -4.211   2.698  25.229  0.00  0.00    +0.000 C 
ATOM     10  C   UNL     1      -4.715   1.476  24.422  0.00  0.00    +0.030 C 
ATOM     11  C   UNL     1      -3.729   3.805  24.279  0.00  0.00    +0.012 C 
ATOM     12  C   UNL     1      -2.593   3.327  23.355  0.00  0.00    +0.025 C 
ATOM     14  C   UNL     1      -2.907   1.984  22.726  0.00  0.00    -0.073 C 
ATOM     15  C   UNL     1      -3.867   1.176  23.208  0.00  0.00    -0.023 C 
ATOM     20  C   UNL     1      -2.121   1.610  21.500  0.00  0.00    +0.039 C 
BRANCH   9  13
ATOM     13  C   UNL     1      -5.292   3.250  26.162  0.00  0.00    -0.013 C 
ATOM     18  C   UNL     1      -6.417   2.235  26.334  0.00  0.00    +0.007 C 
ATOM     19  C   UNL     1      -5.834   4.572  25.627  0.00  0.00    +0.007 C 
ENDBRANCH   9  13
BRANCH  12  17
ATOM     17  C   UNL     1      -1.255   3.283  24.102  0.00  0.00    +0.128 C 
BRANCH  17  21
ATOM      3  O   UNL     1      -1.437   5.424  25.240  0.00  0.00    -0.251 OA
ATOM     21  C   UNL     1      -1.250   4.217  25.283  0.00  0.00    +0.308 C 
BRANCH  21   2
ATOM      2  O   UNL     1      -1.000   3.484  26.409  0.00  0.00    -0.465 OA
BRANCH   2  23
ATOM     23  C   UNL     1       0.263   2.810  26.437  0.00  0.00    +0.229 C 
ATOM     28  C   UNL     1       0.627   2.505  27.875  0.00  0.00    +0.048 C 
ENDBRANCH   2  23
ENDBRANCH  21   2
ENDBRANCH  17  21
ENDBRANCH  12  17
ENDBRANCH  16  10
BRANCH  16   7
ATOM      7  N   UNL     1      -4.351  -0.942  24.532  0.00  0.00    -0.189 NA
ATOM     32  H   UNL     1      -5.021  -1.340  23.863  0.00  0.00    +0.148 HD
BRANCH   7   1
ATOM      1  S   UNL     1      -3.148  -1.973  25.158  0.00  0.00    +0.058 S 
ATOM      4  O   UNL     1      -3.262  -3.276  24.531  0.00  0.00    -0.153 OA
ATOM      5  O   UNL     1      -3.128  -1.857  26.603  0.00  0.00    -0.153 OA
BRANCH   1  22
ATOM     22  C   UNL     1      -1.672  -1.208  24.558  0.00  0.00    +0.105 A 
ATOM     24  C   UNL     1      -1.064  -1.682  23.395  0.00  0.00    +0.030 A 
ATOM     25  C   UNL     1      -1.114  -0.132  25.248  0.00  0.00    +0.030 A 
ATOM     26  C   UNL     1       0.102  -1.078  22.922  0.00  0.00    +0.025 A 
ATOM     27  C   UNL     1       0.051   0.472  24.775  0.00  0.00    +0.025 A 
ATOM     29  C   UNL     1       0.660  -0.002  23.612  0.00  0.00    +0.033 A 
BRANCH  29   8
ATOM      6  O   UNL     1       3.463  -1.075  23.378  0.00  0.00    -0.276 OA
ATOM      8  N   UNL     1       1.824   0.603  23.138  0.00  0.00    -0.286 N 
ATOM     30  C   UNL     1       3.110   0.054  23.053  0.00  0.00    +0.214 C 
ATOM     31  C   UNL     1       4.102   1.037  22.482  0.00  0.00    +0.109 C 
ATOM     33  H   UNL     1       1.715   1.563  22.817  0.00  0.00    +0.155 HD
ENDBRANCH  29   8
ENDBRANCH   1  22
ENDBRANCH   7   1
ENDBRANCH  16   7
TORSDOF 10
ENDMDL
MODEL 2
REMARK VINA RESULT:      -1.6      1.425      2.036
REMARK  Name = 38029729
REMARK  15 active torsions:
REMARK  status: ('A' for Active; 'I' for Inactive)
REMARK    1  A    between atoms: S_1  and  N_7
REMARK    2  A    between atoms: S_1  and  C_22
REMARK    3  A    between atoms: O_2  and  C_21
REMARK    4  A    between atoms: O_2  and  C_23
REMARK    5  A    between atoms: N_7  and  C_16
REMARK    6  A    between atoms: N_8  and  C_29
REMARK    7  A    between atoms: C_9  and  C_13
REMARK    8  A    between atoms: C_10  and  C_16
REMARK    9  A    between atoms: C_12  and  C_17
REMARK   10  A    between atoms: C_13  and  C_18
REMARK   11  A    between atoms: C_13  and  C_19
REMARK   12  A    between atoms: C_14  and  C_20
REMARK   13  A    between atoms: C_17  and  C_21
REMARK   14  A    between atoms: C_23  and  C_28
REMARK   15  A    between atoms: C_30  and  C_31
REMARK                            x       y       z     vdW  Elec       q    Type
REMARK                         _______ _______ _______ _____ _____    ______ ____
ROOT
ATOM     16  C   UNL     1      -3.986   0.998  23.615  0.00  0.00    +0.113 C 
ENDROOT
BRANCH  16  10
ATOM      9  C   UNL     1      -4.094   2.965  25.223  0.00  0.00    +0.000 C 
ATOM     10  C   UNL     1      -3.654   2.481  23.818  0.00  0.00    +0.030 C 
ATOM     11  C   UNL     1      -3.396   4.287  25.576  0.00  0.00    +0.012 C 
ATOM     12  C   UNL     1      -1.861   4.160  25.561  0.00  0.00    +0.025 C 
ATOM     14  C   UNL     1      -1.368   3.445  24.319  0.00  0.00    -0.073 C 
ATOM     15  C   UNL     1      -2.187   2.711  23.545  0.00  0.00    -0.023 C 
ATOM     20  C   UNL     1       0.080   3.632  23.961  0.00  0.00    +0.039 C 
BRANCH   9  13
ATOM     13  C   UNL     1      -5.612   3.139  25.316  0.00  0.00    -0.013 C 
ATOM     18  C   UNL     1      -5.963   4.586  25.645  0.00  0.00    +0.007 C 
ATOM     19  C   UNL     1      -6.194   2.190  26.360  0.00  0.00    +0.007 C 
ENDBRANCH   9  13
BRANCH  12  17
ATOM     17  C   UNL     1      -1.352   3.468  26.831  0.00  0.00    +0.128 C 
BRANCH  17  21
ATOM      3  O   UNL     1      -0.735   1.288  25.946  0.00  0.00    -0.251 OA
ATOM     21  C   UNL     1      -0.421   2.329  26.505  0.00  0.00    +0.308 C 
BRANCH  21   2
ATOM      2  O   UNL     1       0.831   2.659  26.941  0.00  0.00    -0.465 OA
BRANCH   2  23
ATOM     23  C   UNL     1       1.083   2.416  28.329  0.00  0.00    +0.229 C 
ATOM     28  C   UNL     1       2.434   2.993  28.693  0.00  0.00    +0.048 C 
ENDBRANCH   2  23
ENDBRANCH  21   2
ENDBRANCH  17  21
ENDBRANCH  12  17
ENDBRANCH  16  10
BRANCH  16   7
ATOM      7  N   UNL     1      -3.733   0.274  24.872  0.00  0.00    -0.189 NA
ATOM     32  H   UNL     1      -3.486   0.840  25.691  0.00  0.00    +0.148 HD
BRANCH   7   1
ATOM      1  S   UNL     1      -3.195  -1.342  24.834  0.00  0.00    +0.058 S 
ATOM      4  O   UNL     1      -3.864  -2.044  23.754  0.00  0.00    -0.153 OA
ATOM      5  O   UNL     1      -3.218  -1.883  26.179  0.00  0.00    -0.153 OA
BRANCH   1  22
ATOM     22  C   UNL     1      -1.497  -1.147  24.385  0.00  0.00    +0.105 A 
ATOM     24  C   UNL     1      -1.148  -0.316  23.321  0.00  0.00    +0.030 A 
ATOM     25  C   UNL     1      -0.505  -1.823  25.096  0.00  0.00    +0.030 A 
ATOM     26  C   UNL     1       0.193  -0.161  22.967  0.00  0.00    +0.025 A 
ATOM     27  C   UNL     1       0.835  -1.670  24.742  0.00  0.00    +0.025 A 
ATOM     29  C   UNL     1       1.184  -0.839  23.678  0.00  0.00    +0.033 A 
BRANCH  29   8
ATOM      6  O   UNL     1       2.790   1.652  23.145  0.00  0.00    -0.276 OA
ATOM      8  N   UNL     1       2.525  -0.683  23.324  0.00  0.00    -0.286 N 
ATOM     30  C   UNL     1       3.224   0.507  23.085  0.00  0.00    +0.214 C 
ATOM     31  C   UNL     1       4.666   0.247  22.725  0.00  0.00    +0.109 C 
ATOM     33  H   UNL     1       3.052  -1.549  23.230  0.00  0.00    +0.155 HD
ENDBRANCH  29   8
ENDBRANCH   1  22
ENDBRANCH   7   1
ENDBRANCH  16   7
TORSDOF 10
ENDMDL
MODEL 3
REMARK VINA RESULT:      -1.2      2.568      5.509
REMARK  Name = 38029729
REMARK  15 active torsions:
REMARK  status: ('A' for Active; 'I' for Inactive)
REMARK    1  A    between atoms: S_1  and  N_7
REMARK    2  A    between atoms: S_1  and  C_22
REMARK    3  A    between atoms: O_2  and  C_21
REMARK    4  A    between atoms: O_2  and  C_23
REMARK    5  A    between atoms: N_7  and  C_16
REMARK    6  A    between atoms: N_8  and  C_29
REMARK    7  A    between atoms: C_9  and  C_13
REMARK    8  A    between atoms: C_10  and  C_16
REMARK    9  A    between atoms: C_12  and  C_17
REMARK   10  A    between atoms: C_13  and  C_18
REMARK   11  A    between atoms: C_13  and  C_19
REMARK   12  A    between atoms: C_14  and  C_20
REMARK   13  A    between atoms: C_17  and  C_21
REMARK   14  A    between atoms: C_23  and  C_28
REMARK   15  A    between atoms: C_30  and  C_31
REMARK                            x       y       z     vdW  Elec       q    Type
REMARK                         _______ _______ _______ _____ _____    ______ ____
ROOT
ATOM     16  C   UNL     1      -4.373   0.019  24.428  0.00  0.00    +0.113 C 
ENDROOT
BRANCH  16  10
ATOM      9  C   UNL     1      -2.353  -1.513  24.239  0.00  0.00    +0.000 C 
ATOM     10  C   UNL     1      -3.103  -0.487  25.123  0.00  0.00    +0.030 C 
ATOM     11  C   UNL     1      -0.908  -1.688  24.729  0.00  0.00    +0.012 C 
ATOM     12  C   UNL     1      -0.122  -0.363  24.713  0.00  0.00    +0.025 C 
ATOM     14  C   UNL     1      -0.916   0.769  25.334  0.00  0.00    -0.073 C 
ATOM     15  C   UNL     1      -2.245   0.691  25.522  0.00  0.00    -0.023 C 
ATOM     20  C   UNL     1      -0.138   1.977  25.777  0.00  0.00    +0.039 C 
BRANCH   9  13
ATOM     13  C   UNL     1      -3.061  -2.871  24.217  0.00  0.00    -0.013 C 
ATOM     18  C   UNL     1      -4.361  -2.781  23.426  0.00  0.00    +0.007 C 
ATOM     19  C   UNL     1      -3.325  -3.358  25.638  0.00  0.00    +0.007 C 
ENDBRANCH   9  13
BRANCH  12  17
ATOM     17  C   UNL     1       0.326  -0.004  23.292  0.00  0.00    +0.128 C 
BRANCH  17  21
ATOM      3  O   UNL     1       1.894   1.810  23.699  0.00  0.00    -0.251 OA
ATOM     21  C   UNL     1       1.668   0.680  23.291  0.00  0.00    +0.308 C 
BRANCH  21   2
ATOM      2  O   UNL     1       2.587  -0.178  22.756  0.00  0.00    -0.465 OA
BRANCH   2  23
ATOM     23  C   UNL     1       3.824   0.418  22.351  0.00  0.00    +0.229 C 
ATOM     28  C   UNL     1       4.887   0.093  23.378  0.00  0.00    +0.048 C 
ENDBRANCH   2  23
ENDBRANCH  21   2
ENDBRANCH  17  21
ENDBRANCH  12  17
ENDBRANCH  16  10
BRANCH  16   7
ATOM      7  N   UNL     1      -5.430   0.203  25.436  0.00  0.00    -0.189 NA
ATOM     32  H   UNL     1      -5.974  -0.628  25.695  0.00  0.00    +0.148 HD
BRANCH   7   1
ATOM      1  S   UNL     1      -6.169   1.726  25.632  0.00  0.00    +0.058 S 
ATOM      4  O   UNL     1      -6.664   1.846  26.990  0.00  0.00    -0.153 OA
ATOM      5  O   UNL     1      -7.053   1.974  24.509  0.00  0.00    -0.153 OA
BRANCH   1  22
ATOM     22  C   UNL     1      -4.792   2.819  25.456  0.00  0.00    +0.105 A 
ATOM     24  C   UNL     1      -4.168   3.344  26.588  0.00  0.00    +0.030 A 
ATOM     25  C   UNL     1      -4.328   3.158  24.185  0.00  0.00    +0.030 A 
ATOM     26  C   UNL     1      -3.081   4.208  26.449  0.00  0.00    +0.025 A 
ATOM     27  C   UNL     1      -3.242   4.022  24.045  0.00  0.00    +0.025 A 
ATOM     29  C   UNL     1      -2.618   4.547  25.177  0.00  0.00    +0.033 A 
BRANCH  29   8
ATOM      6  O   UNL     1      -0.048   4.221  23.643  0.00  0.00    -0.276 OA
ATOM      8  N   UNL     1      -1.530   5.409  25.038  0.00  0.00    -0.286 N 
ATOM     30  C   UNL     1      -0.352   5.205  24.309  0.00  0.00    +0.214 C 
ATOM     31  C   UNL     1       0.583   6.384  24.414  0.00  0.00    +0.109 C 
ATOM     33  H   UNL     1      -1.613   6.295  25.533  0.00  0.00    +0.155 HD
ENDBRANCH  29   8
ENDBRANCH   1  22
ENDBRANCH   7   1
ENDBRANCH  16   7
TORSDOF 10
ENDMDL
MODEL 4
REMARK VINA RESULT:      -1.0      1.844      5.824
REMARK  Name = 38029729
REMARK  15 active torsions:
REMARK  status: ('A' for Active; 'I' for Inactive)
REMARK    1  A    between atoms: S_1  and  N_7
REMARK    2  A    between atoms: S_1  and  C_22
REMARK    3  A    between atoms: O_2  and  C_21
REMARK    4  A    between atoms: O_2  and  C_23
REMARK    5  A    between atoms: N_7  and  C_16
REMARK    6  A    between atoms: N_8  and  C_29
REMARK    7  A    between atoms: C_9  and  C_13
REMARK    8  A    between atoms: C_10  and  C_16
REMARK    9  A    between atoms: C_12  and  C_17
REMARK   10  A    between atoms: C_13  and  C_18
REMARK   11  A    between atoms: C_13  and  C_19
REMARK   12  A    between atoms: C_14  and  C_20
REMARK   13  A    between atoms: C_17  and  C_21
REMARK   14  A    between atoms: C_23  and  C_28
REMARK   15  A    between atoms: C_30  and  C_31
REMARK                            x       y       z     vdW  Elec       q    Type
REMARK                         _______ _______ _______ _____ _____    ______ ____
ROOT
ATOM     16  C   UNL     1      -0.941  -0.880  25.641  0.00  0.00    +0.113 C 
ENDROOT
BRANCH  16  10
ATOM      9  C   UNL     1       0.250   1.303  25.115  0.00  0.00    +0.000 C 
ATOM     10  C   UNL     1      -0.659   0.176  24.566  0.00  0.00    +0.030 C 
ATOM     11  C   UNL     1       0.865   2.106  23.959  0.00  0.00    +0.012 C 
ATOM     12  C   UNL     1       1.700   1.222  23.013  0.00  0.00    +0.025 C 
ATOM     14  C   UNL     1       0.966  -0.050  22.640  0.00  0.00    -0.073 C 
ATOM     15  C   UNL     1      -0.094  -0.495  23.337  0.00  0.00    -0.023 C 
ATOM     20  C   UNL     1       1.452  -0.776  21.416  0.00  0.00    +0.039 C 
BRANCH   9  13
ATOM     13  C   UNL     1      -0.512   2.244  26.052  0.00  0.00    -0.013 C 
ATOM     18  C   UNL     1      -0.909   3.520  25.318  0.00  0.00    +0.007 C 
ATOM     19  C   UNL     1       0.330   2.569  27.283  0.00  0.00    +0.007 C 
ENDBRANCH   9  13
BRANCH  12  17
ATOM     17  C   UNL     1       3.071   0.906  23.620  0.00  0.00    +0.128 C 
BRANCH  17  21
ATOM      3  O   UNL     1       3.956   0.909  21.355  0.00  0.00    -0.251 OA
ATOM     21  C   UNL     1       4.136   0.803  22.560  0.00  0.00    +0.308 C 
BRANCH  21   2
ATOM      2  O   UNL     1       5.334   0.572  23.174  0.00  0.00    -0.465 OA
BRANCH   2  23
ATOM     23  C   UNL     1       5.279  -0.261  24.337  0.00  0.00    +0.229 C 
ATOM     28  C   UNL     1       4.938  -1.674  23.916  0.00  0.00    +0.048 C 
ENDBRANCH   2  23
ENDBRANCH  21   2
ENDBRANCH  17  21
ENDBRANCH  12  17
ENDBRANCH  16  10
BRANCH  16   7
ATOM      7  N   UNL     1      -1.305  -2.147  24.985  0.00  0.00    -0.189 NA
ATOM     32  H   UNL     1      -0.607  -2.561  24.357  0.00  0.00    +0.148 HD
BRANCH   7   1
ATOM      1  S   UNL     1      -2.943  -2.529  24.711  0.00  0.00    +0.058 S 
ATOM      4  O   UNL     1      -3.446  -3.306  25.828  0.00  0.00    -0.153 OA
ATOM      5  O   UNL     1      -3.097  -3.017  23.354  0.00  0.00    -0.153 OA
BRANCH   1  22
ATOM     22  C   UNL     1      -3.699  -0.933  24.774  0.00  0.00    +0.105 A 
ATOM     24  C   UNL     1      -3.601  -0.070  23.682  0.00  0.00    +0.030 A 
ATOM     25  C   UNL     1      -4.396  -0.536  25.916  0.00  0.00    +0.030 A 
ATOM     26  C   UNL     1      -4.199   1.190  23.733  0.00  0.00    +0.025 A 
ATOM     27  C   UNL     1      -4.993   0.724  25.967  0.00  0.00    +0.025 A 
ATOM     29  C   UNL     1      -4.894   1.587  24.875  0.00  0.00    +0.033 A 
BRANCH  29   8
ATOM      6  O   UNL     1      -4.029   4.110  26.272  0.00  0.00    -0.276 OA
ATOM      8  N   UNL     1      -5.493   2.846  24.925  0.00  0.00    -0.286 N 
ATOM     30  C   UNL     1      -5.045   3.991  25.595  0.00  0.00    +0.214 C 
ATOM     31  C   UNL     1      -5.982   5.157  25.401  0.00  0.00    +0.109 C 
ATOM     33  H   UNL     1      -6.364   2.933  24.405  0.00  0.00    +0.155 HD
ENDBRANCH  29   8
ENDBRANCH   1  22
ENDBRANCH   7   1
ENDBRANCH  16   7
TORSDOF 10
ENDMDL
MODEL 5
REMARK VINA RESULT:      -0.1      2.183      5.087
REMARK  Name = 38029729
REMARK  15 active torsions:
REMARK  status: ('A' for Active; 'I' for Inactive)
REMARK    1  A    between atoms: S_1  and  N_7
REMARK    2  A    between atoms: S_1  and  C_22
REMARK    3  A    between atoms: O_2  and  C_21
REMARK    4  A    between atoms: O_2  and  C_23
REMARK    5  A    between atoms: N_7  and  C_16
REMARK    6  A    between atoms: N_8  and  C_29
REMARK    7  A    between atoms: C_9  and  C_13
REMARK    8  A    between atoms: C_10  and  C_16
REMARK    9  A    between atoms: C_12  and  C_17
REMARK   10  A    between atoms: C_13  and  C_18
REMARK   11  A    between atoms: C_13  and  C_19
REMARK   12  A    between atoms: C_14  and  C_20
REMARK   13  A    between atoms: C_17  and  C_21
REMARK   14  A    between atoms: C_23  and  C_28
REMARK   15  A    between atoms: C_30  and  C_31
REMARK                            x       y       z     vdW  Elec       q    Type
REMARK                         _______ _______ _______ _____ _____    ______ ____
ROOT
ATOM     16  C   UNL     1      -3.676   3.877  23.573  0.00  0.00    +0.113 C 
ENDROOT
BRANCH  16  10
ATOM      9  C   UNL     1      -3.400   1.356  23.393  0.00  0.00    +0.000 C 
ATOM     10  C   UNL     1      -4.405   2.530  23.501  0.00  0.00    +0.030 C 
ATOM     11  C   UNL     1      -4.088   0.028  23.746  0.00  0.00    +0.012 C 
ATOM     12  C   UNL     1      -4.679   0.036  25.168  0.00  0.00    +0.025 C 
ATOM     14  C   UNL     1      -5.467   1.301  25.442  0.00  0.00    -0.073 C 
ATOM     15  C   UNL     1      -5.342   2.401  24.679  0.00  0.00    -0.023 C 
ATOM     20  C   UNL     1      -6.439   1.257  26.589  0.00  0.00    +0.039 C 
BRANCH   9  13
ATOM     13  C   UNL     1      -2.780   1.263  21.996  0.00  0.00    -0.013 C 
ATOM     18  C   UNL     1      -1.388   0.646  22.072  0.00  0.00    +0.007 C 
ATOM     19  C   UNL     1      -2.726   2.642  21.344  0.00  0.00    +0.007 C 
ENDBRANCH   9  13
BRANCH  12  17
ATOM     17  C   UNL     1      -3.584  -0.167  26.222  0.00  0.00    +0.128 C 
BRANCH  17  21
ATOM      3  O   UNL     1      -1.456  -1.210  25.675  0.00  0.00    -0.251 OA
ATOM     21  C   UNL     1      -2.663  -1.300  25.851  0.00  0.00    +0.308 C 
BRANCH  21   2
ATOM      2  O   UNL     1      -3.406  -2.441  25.746  0.00  0.00    -0.465 OA
BRANCH   2  23
ATOM     23  C   UNL     1      -3.116  -3.263  24.611  0.00  0.00    +0.229 C 
ATOM     28  C   UNL     1      -4.248  -3.144  23.614  0.00  0.00    +0.048 C 
ENDBRANCH   2  23
ENDBRANCH  21   2
ENDBRANCH  17  21
ENDBRANCH  12  17
ENDBRANCH  16  10
BRANCH  16   7
ATOM      7  N   UNL     1      -4.002   4.531  24.851  0.00  0.00    -0.189 NA
ATOM     32  H   UNL     1      -4.736   5.248  24.830  0.00  0.00    +0.148 HD
BRANCH   7   1
ATOM      1  S   UNL     1      -2.831   4.631  26.084  0.00  0.00    +0.058 S 
ATOM      4  O   UNL     1      -3.300   3.906  27.250  0.00  0.00    -0.153 OA
ATOM      5  O   UNL     1      -2.389   6.007  26.210  0.00  0.00    -0.153 OA
BRANCH   1  22
ATOM     22  C   UNL     1      -1.489   3.721  25.381  0.00  0.00    +0.105 A 
ATOM     24  C   UNL     1      -0.778   4.247  24.302  0.00  0.00    +0.030 A 
ATOM     25  C   UNL     1      -1.140   2.476  25.906  0.00  0.00    +0.030 A 
ATOM     26  C   UNL     1       0.281   3.527  23.747  0.00  0.00    +0.025 A 
ATOM     27  C   UNL     1      -0.082   1.756  25.351  0.00  0.00    +0.025 A 
ATOM     29  C   UNL     1       0.629   2.282  24.272  0.00  0.00    +0.033 A 
BRANCH  29   8
ATOM      6  O   UNL     1       0.767  -0.565  23.302  0.00  0.00    -0.276 OA
ATOM      8  N   UNL     1       1.689   1.564  23.718  0.00  0.00    -0.286 N 
ATOM     30  C   UNL     1       1.699   0.233  23.283  0.00  0.00    +0.214 C 
ATOM     31  C   UNL     1       3.048  -0.171  22.744  0.00  0.00    +0.109 C 
ATOM     33  H   UNL     1       2.561   2.082  23.622  0.00  0.00    +0.155 HD
ENDBRANCH  29   8
ENDBRANCH   1  22
ENDBRANCH   7   1
ENDBRANCH  16   7
TORSDOF 10
ENDMDL
MODEL 6
REMARK VINA RESULT:       0.0      2.562      4.452
REMARK  Name = 38029729
REMARK  15 active torsions:
REMARK  status: ('A' for Active; 'I' for Inactive)
REMARK    1  A    between atoms: S_1  and  N_7
REMARK    2  A    between atoms: S_1  and  C_22
REMARK    3  A    between atoms: O_2  and  C_21
REMARK    4  A    between atoms: O_2  and  C_23
REMARK    5  A    between atoms: N_7  and  C_16
REMARK    6  A    between atoms: N_8  and  C_29
REMARK    7  A    between atoms: C_9  and  C_13
REMARK    8  A    between atoms: C_10  and  C_16
REMARK    9  A    between atoms: C_12  and  C_17
REMARK   10  A    between atoms: C_13  and  C_18
REMARK   11  A    between atoms: C_13  and  C_19
REMARK   12  A    between atoms: C_14  and  C_20
REMARK   13  A    between atoms: C_17  and  C_21
REMARK   14  A    between atoms: C_23  and  C_28
REMARK   15  A    between atoms: C_30  and  C_31
REMARK                            x       y       z     vdW  Elec       q    Type
REMARK                         _______ _______ _______ _____ _____    ______ ____
ROOT
ATOM     16  C   UNL     1      -0.733   1.014  24.865  0.00  0.00    +0.113 C 
ENDROOT
BRANCH  16  10
ATOM      9  C   UNL     1      -3.074   0.030  24.978  0.00  0.00    +0.000 C 
ATOM     10  C   UNL     1      -2.022   0.732  24.084  0.00  0.00    +0.030 C 
ATOM     11  C   UNL     1      -4.470   0.135  24.345  0.00  0.00    +0.012 C 
ATOM     12  C   UNL     1      -4.907   1.597  24.133  0.00  0.00    +0.025 C 
ATOM     14  C   UNL     1      -3.810   2.424  23.494  0.00  0.00    -0.073 C 
ATOM     15  C   UNL     1      -2.529   2.016  23.470  0.00  0.00    -0.023 C 
ATOM     20  C   UNL     1      -4.227   3.713  22.841  0.00  0.00    +0.039 C 
BRANCH   9  13
ATOM     13  C   UNL     1      -2.725  -1.440  25.221  0.00  0.00    -0.013 C 
ATOM     18  C   UNL     1      -3.564  -2.343  24.324  0.00  0.00    +0.007 C 
ATOM     19  C   UNL     1      -2.926  -1.800  26.690  0.00  0.00    +0.007 C 
ENDBRANCH   9  13
BRANCH  12  17
ATOM     17  C   UNL     1      -5.375   2.229  25.448  0.00  0.00    +0.128 C 
BRANCH  17  21
ATOM      3  O   UNL     1      -5.374   4.661  25.439  0.00  0.00    -0.251 OA
ATOM     21  C   UNL     1      -4.792   3.605  25.639  0.00  0.00    +0.308 C 
BRANCH  21   2
ATOM      2  O   UNL     1      -3.504   3.469  26.073  0.00  0.00    -0.465 OA
BRANCH   2  23
ATOM     23  C   UNL     1      -2.775   4.690  26.233  0.00  0.00    +0.229 C 
ATOM     28  C   UNL     1      -1.563   4.664  25.327  0.00  0.00    +0.048 C 
ENDBRANCH   2  23
ENDBRANCH  21   2
ENDBRANCH  17  21
ENDBRANCH  12  17
ENDBRANCH  16  10
BRANCH  16   7
ATOM      7  N   UNL     1       0.397   1.068  23.922  0.00  0.00    -0.189 NA
ATOM     32  H   UNL     1       0.564   1.964  23.450  0.00  0.00    +0.148 HD
BRANCH   7   1
ATOM      1  S   UNL     1       0.929  -0.349  23.141  0.00  0.00    +0.058 S 
ATOM      4  O   UNL     1       0.574  -0.284  21.736  0.00  0.00    -0.153 OA
ATOM      5  O   UNL     1       0.549  -1.501  23.936  0.00  0.00    -0.153 OA
BRANCH   1  22
ATOM     22  C   UNL     1       2.685  -0.192  23.267  0.00  0.00    +0.105 A 
ATOM     24  C   UNL     1       3.312   0.980  22.844  0.00  0.00    +0.030 A 
ATOM     25  C   UNL     1       3.443  -1.239  23.790  0.00  0.00    +0.030 A 
ATOM     26  C   UNL     1       4.699   1.104  22.943  0.00  0.00    +0.025 A 
ATOM     27  C   UNL     1       4.829  -1.116  23.889  0.00  0.00    +0.025 A 
ATOM     29  C   UNL     1       5.457   0.056  23.465  0.00  0.00    +0.033 A 
BRANCH  29   8
ATOM      6  O   UNL     1       7.661  -1.382  22.002  0.00  0.00    -0.276 OA
ATOM      8  N   UNL     1       6.843   0.181  23.566  0.00  0.00    -0.286 N 
ATOM     30  C   UNL     1       7.828  -0.519  22.858  0.00  0.00    +0.214 C 
ATOM     31  C   UNL     1       9.218  -0.090  23.260  0.00  0.00    +0.109 C 
ATOM     33  H   UNL     1       7.168   0.870  24.242  0.00  0.00    +0.155 HD
ENDBRANCH  29   8
ENDBRANCH   1  22
ENDBRANCH   7   1
ENDBRANCH  16   7
TORSDOF 10
ENDMDL
