MODEL 1
REMARK VINA RESULT:      -1.1      0.000      0.000
REMARK  Name = 25390362
REMARK  7 active torsions:
REMARK  status: ('A' for Active; 'I' for Inactive)
REMARK    1  A    between atoms: O_2  and  C_12
REMARK    2  A    between atoms: O_3  and  C_13
REMARK    3  A    between atoms: N_9  and  C_16
REMARK    4  A    between atoms: C_11  and  C_15
REMARK    5  A    between atoms: C_14  and  C_16
REMARK    6  A    between atoms: C_15  and  C_17
REMARK    7  A    between atoms: C_23  and  C_25
REMARK                            x       y       z     vdW  Elec       q    Type
REMARK                         _______ _______ _______ _____ _____    ______ ____
ROOT
ATOM      1  O   UNL     1      16.186  -5.478  26.156  0.00  0.00    -0.366 OA
ATOM     11  C   UNL     1      16.320  -4.092  26.544  0.00  0.00    +0.159 C 
ATOM     12  C   UNL     1      16.669  -3.323  25.273  0.00  0.00    +0.175 C 
ATOM     13  C   UNL     1      17.392  -4.374  24.457  0.00  0.00    +0.176 C 
ATOM     14  C   UNL     1      16.585  -5.620  24.781  0.00  0.00    +0.167 C 
ENDROOT
BRANCH  12   2
ATOM      2  O   UNL     1      15.450  -2.950  24.633  0.00  0.00    -0.387 OA
ATOM     32  H   UNL     1      14.844  -2.631  25.323  0.00  0.00    +0.210 HD
ENDBRANCH  12   2
BRANCH  13   3
ATOM      3  O   UNL     1      17.405  -4.096  23.073  0.00  0.00    -0.387 OA
ATOM     33  H   UNL     1      18.230  -3.618  22.880  0.00  0.00    +0.210 HD
ENDBRANCH  13   3
BRANCH  11  15
ATOM     15  C   UNL     1      17.405  -4.008  27.608  0.00  0.00    +0.130 C 
BRANCH  15  17
ATOM      4  O   UNL     1      16.924  -2.495  29.374  0.00  0.00    -0.276 OA
ATOM      7  N   UNL     1      16.106  -4.658  29.601  0.00  0.00    -0.298 N 
ATOM      8  N   UNL     1      14.477  -6.627  30.962  0.00  0.00    -0.312 N 
ATOM     10  N   UNL     1      14.210  -8.744  31.972  0.00  0.00    -0.240 NA
ATOM     17  C   UNL     1      16.794  -3.641  28.937  0.00  0.00    +0.218 C 
ATOM     18  C   UNL     1      15.491  -4.384  30.898  0.00  0.00    +0.126 C 
ATOM     19  C   UNL     1      15.944  -6.016  29.077  0.00  0.00    +0.126 C 
ATOM     20  C   UNL     1      14.212  -5.193  31.105  0.00  0.00    +0.125 C 
ATOM     21  C   UNL     1      15.640  -7.040  30.171  0.00  0.00    +0.125 C 
ATOM     22  C   UNL     1      13.666  -7.567  31.593  0.00  0.00    +0.121 A 
ATOM     24  C   UNL     1      12.338  -7.226  31.792  0.00  0.00    +0.043 A 
ATOM     26  C   UNL     1      11.515  -8.154  32.421  0.00  0.00    +0.005 A 
ATOM     27  C   UNL     1      13.379  -9.622  32.579  0.00  0.00    +0.113 A 
ATOM     28  C   UNL     1      12.038  -9.377  32.824  0.00  0.00    +0.020 A 
ENDBRANCH  15  17
ENDBRANCH  11  15
BRANCH  14  16
ATOM     16  C   UNL     1      17.368  -6.907  24.606  0.00  0.00    +0.138 C 
BRANCH  16   9
ATOM      5  O   UNL     1      15.314  -8.868  25.028  0.00  0.00    -0.267 OA
ATOM      9  N   UNL     1      17.221  -7.762  25.747  0.00  0.00    -0.306 N 
ATOM     23  C   UNL     1      16.190  -8.689  25.869  0.00  0.00    +0.279 C 
ATOM     34  H   UNL     1      17.903  -7.684  26.497  0.00  0.00    +0.149 HD
BRANCH  23  25
ATOM      6  O   UNL     1      17.307  -9.557  27.853  0.00  0.00    -0.458 OA
ATOM     25  C   UNL     1      16.162  -9.481  27.126  0.00  0.00    +0.189 A 
ATOM     29  C   UNL     1      15.154 -10.191  27.734  0.00  0.00    +0.054 A 
ATOM     30  C   UNL     1      15.715 -10.738  28.913  0.00  0.00    +0.042 A 
ATOM     31  C   UNL     1      17.026 -10.324  28.939  0.00  0.00    +0.196 A 
ENDBRANCH  23  25
ENDBRANCH  16   9
ENDBRANCH  14  16
TORSDOF 7
ENDMDL
MODEL 2
REMARK VINA RESULT:       2.5     17.916     19.841
REMARK  Name = 25390362
REMARK  7 active torsions:
REMARK  status: ('A' for Active; 'I' for Inactive)
REMARK    1  A    between atoms: O_2  and  C_12
REMARK    2  A    between atoms: O_3  and  C_13
REMARK    3  A    between atoms: N_9  and  C_16
REMARK    4  A    between atoms: C_11  and  C_15
REMARK    5  A    between atoms: C_14  and  C_16
REMARK    6  A    between atoms: C_15  and  C_17
REMARK    7  A    between atoms: C_23  and  C_25
REMARK                            x       y       z     vdW  Elec       q    Type
REMARK                         _______ _______ _______ _____ _____    ______ ____
ROOT
ATOM      1  O   UNL     1      -3.348   1.994  25.402  0.00  0.00    -0.366 OA
ATOM     11  C   UNL     1      -2.822   3.258  24.938  0.00  0.00    +0.159 C 
ATOM     12  C   UNL     1      -3.885   4.305  25.252  0.00  0.00    +0.175 C 
ATOM     13  C   UNL     1      -5.159   3.488  25.195  0.00  0.00    +0.176 C 
ATOM     14  C   UNL     1      -4.710   2.179  25.823  0.00  0.00    +0.167 C 
ENDROOT
BRANCH  12   2
ATOM      2  O   UNL     1      -3.660   4.781  26.579  0.00  0.00    -0.387 OA
ATOM     32  H   UNL     1      -3.544   5.744  26.527  0.00  0.00    +0.210 HD
ENDBRANCH  12   2
BRANCH  13   3
ATOM      3  O   UNL     1      -6.232   4.074  25.900  0.00  0.00    -0.387 OA
ATOM     33  H   UNL     1      -6.077   5.034  25.922  0.00  0.00    +0.210 HD
ENDBRANCH  13   3
BRANCH  11  15
ATOM     15  C   UNL     1      -2.535   3.127  23.449  0.00  0.00    +0.130 C 
BRANCH  15  17
ATOM      4  O   UNL     1      -2.966   0.892  22.775  0.00  0.00    -0.276 OA
ATOM      7  N   UNL     1      -0.759   1.426  23.264  0.00  0.00    -0.298 N 
ATOM      8  N   UNL     1       2.062   0.776  23.304  0.00  0.00    -0.312 N 
ATOM     10  N   UNL     1       4.129   0.614  24.435  0.00  0.00    -0.240 NA
ATOM     17  C   UNL     1      -2.117   1.713  23.129  0.00  0.00    +0.218 C 
ATOM     18  C   UNL     1      -0.276   0.076  22.979  0.00  0.00    +0.126 C 
ATOM     19  C   UNL     1       0.250   2.405  23.675  0.00  0.00    +0.126 C 
ATOM     20  C   UNL     1       1.137   0.087  22.400  0.00  0.00    +0.125 C 
ATOM     21  C   UNL     1       1.510   1.754  24.245  0.00  0.00    +0.125 C 
ATOM     22  C   UNL     1       3.423   0.481  23.290  0.00  0.00    +0.121 A 
ATOM     24  C   UNL     1       3.969   0.065  22.087  0.00  0.00    +0.043 A 
ATOM     26  C   UNL     1       5.327  -0.234  22.057  0.00  0.00    +0.005 A 
ATOM     27  C   UNL     1       5.446   0.315  24.367  0.00  0.00    +0.113 A 
ATOM     28  C   UNL     1       6.086  -0.109  23.214  0.00  0.00    +0.020 A 
ENDBRANCH  15  17
ENDBRANCH  11  15
BRANCH  14  16
ATOM     16  C   UNL     1      -5.546   0.987  25.394  0.00  0.00    +0.138 C 
BRANCH  16   9
ATOM      5  O   UNL     1      -3.889  -0.867  26.829  0.00  0.00    -0.267 OA
ATOM      9  N   UNL     1      -4.725  -0.043  24.829  0.00  0.00    -0.306 N 
ATOM     23  C   UNL     1      -3.951  -0.902  25.603  0.00  0.00    +0.279 C 
ATOM     34  H   UNL     1      -4.713  -0.147  23.818  0.00  0.00    +0.149 HD
BRANCH  23  25
ATOM      6  O   UNL     1      -1.785  -1.856  25.019  0.00  0.00    -0.458 OA
ATOM     25  C   UNL     1      -3.135  -1.899  24.863  0.00  0.00    +0.189 A 
ATOM     29  C   UNL     1      -3.491  -2.914  24.006  0.00  0.00    +0.054 A 
ATOM     30  C   UNL     1      -2.282  -3.536  23.611  0.00  0.00    +0.042 A 
ATOM     31  C   UNL     1      -1.275  -2.855  24.253  0.00  0.00    +0.196 A 
ENDBRANCH  23  25
ENDBRANCH  16   9
ENDBRANCH  14  16
TORSDOF 7
ENDMDL
MODEL 3
REMARK VINA RESULT:       2.6     18.091     20.324
REMARK  Name = 25390362
REMARK  7 active torsions:
REMARK  status: ('A' for Active; 'I' for Inactive)
REMARK    1  A    between atoms: O_2  and  C_12
REMARK    2  A    between atoms: O_3  and  C_13
REMARK    3  A    between atoms: N_9  and  C_16
REMARK    4  A    between atoms: C_11  and  C_15
REMARK    5  A    between atoms: C_14  and  C_16
REMARK    6  A    between atoms: C_15  and  C_17
REMARK    7  A    between atoms: C_23  and  C_25
REMARK                            x       y       z     vdW  Elec       q    Type
REMARK                         _______ _______ _______ _____ _____    ______ ____
ROOT
ATOM      1  O   UNL     1      -4.260   1.587  24.060  0.00  0.00    -0.366 OA
ATOM     11  C   UNL     1      -5.092   0.717  24.861  0.00  0.00    +0.159 C 
ATOM     12  C   UNL     1      -6.138   1.611  25.519  0.00  0.00    +0.175 C 
ATOM     13  C   UNL     1      -5.404   2.932  25.622  0.00  0.00    +0.176 C 
ATOM     14  C   UNL     1      -4.630   2.953  24.314  0.00  0.00    +0.167 C 
ENDROOT
BRANCH  12   2
ATOM      2  O   UNL     1      -7.245   1.727  24.627  0.00  0.00    -0.387 OA
ATOM     32  H   UNL     1      -7.633   0.841  24.527  0.00  0.00    +0.210 HD
ENDBRANCH  12   2
BRANCH  13   3
ATOM      3  O   UNL     1      -6.267   4.043  25.745  0.00  0.00    -0.387 OA
ATOM     33  H   UNL     1      -6.201   4.556  24.922  0.00  0.00    +0.210 HD
ENDBRANCH  13   3
BRANCH  11  15
ATOM     15  C   UNL     1      -4.194   0.010  25.867  0.00  0.00    +0.130 C 
BRANCH  15  17
ATOM      4  O   UNL     1      -4.012  -2.215  25.061  0.00  0.00    -0.276 OA
ATOM      7  N   UNL     1      -2.163  -0.843  24.758  0.00  0.00    -0.298 N 
ATOM      8  N   UNL     1       0.449  -0.313  23.626  0.00  0.00    -0.312 N 
ATOM     10  N   UNL     1       2.698   0.369  23.852  0.00  0.00    -0.240 NA
ATOM     17  C   UNL     1      -3.459  -1.122  25.193  0.00  0.00    +0.218 C 
ATOM     18  C   UNL     1      -1.382  -1.889  24.101  0.00  0.00    +0.126 C 
ATOM     19  C   UNL     1      -1.510   0.460  24.907  0.00  0.00    +0.126 C 
ATOM     20  C   UNL     1      -0.442  -1.319  23.041  0.00  0.00    +0.125 C 
ATOM     21  C   UNL     1       0.015   0.369  24.849  0.00  0.00    +0.125 C 
ATOM     22  C   UNL     1       1.689  -0.041  23.053  0.00  0.00    +0.121 A 
ATOM     24  C   UNL     1       1.804  -0.212  21.683  0.00  0.00    +0.043 A 
ATOM     26  C   UNL     1       3.036   0.056  21.096  0.00  0.00    +0.005 A 
ATOM     27  C   UNL     1       3.881   0.620  23.246  0.00  0.00    +0.113 A 
ATOM     28  C   UNL     1       4.099   0.480  21.885  0.00  0.00    +0.020 A 
ENDBRANCH  15  17
ENDBRANCH  11  15
BRANCH  14  16
ATOM     16  C   UNL     1      -3.386   3.819  24.365  0.00  0.00    +0.138 C 
BRANCH  16   9
ATOM      5  O   UNL     1      -0.567   4.336  24.536  0.00  0.00    -0.267 OA
ATOM      9  N   UNL     1      -2.497   3.389  25.405  0.00  0.00    -0.306 N 
ATOM     23  C   UNL     1      -1.138   3.687  25.407  0.00  0.00    +0.279 C 
ATOM     34  H   UNL     1      -2.883   2.844  26.171  0.00  0.00    +0.149 HD
BRANCH  23  25
ATOM      6  O   UNL     1       1.007   3.158  26.437  0.00  0.00    -0.458 OA
ATOM     25  C   UNL     1      -0.348   3.145  26.543  0.00  0.00    +0.189 A 
ATOM     29  C   UNL     1      -0.734   2.602  27.747  0.00  0.00    +0.054 A 
ATOM     30  C   UNL     1       0.461   2.262  28.425  0.00  0.00    +0.042 A 
ATOM     31  C   UNL     1       1.491   2.619  27.586  0.00  0.00    +0.196 A 
ENDBRANCH  23  25
ENDBRANCH  16   9
ENDBRANCH  14  16
TORSDOF 7
ENDMDL
MODEL 4
REMARK VINA RESULT:       2.7     18.396     20.129
REMARK  Name = 25390362
REMARK  7 active torsions:
REMARK  status: ('A' for Active; 'I' for Inactive)
REMARK    1  A    between atoms: O_2  and  C_12
REMARK    2  A    between atoms: O_3  and  C_13
REMARK    3  A    between atoms: N_9  and  C_16
REMARK    4  A    between atoms: C_11  and  C_15
REMARK    5  A    between atoms: C_14  and  C_16
REMARK    6  A    between atoms: C_15  and  C_17
REMARK    7  A    between atoms: C_23  and  C_25
REMARK                            x       y       z     vdW  Elec       q    Type
REMARK                         _______ _______ _______ _____ _____    ______ ____
ROOT
ATOM      1  O   UNL     1      -5.137   3.652  24.996  0.00  0.00    -0.366 OA
ATOM     11  C   UNL     1      -4.246   4.580  24.338  0.00  0.00    +0.159 C 
ATOM     12  C   UNL     1      -3.583   3.806  23.202  0.00  0.00    +0.175 C 
ATOM     13  C   UNL     1      -3.593   2.390  23.738  0.00  0.00    +0.176 C 
ATOM     14  C   UNL     1      -4.939   2.339  24.441  0.00  0.00    +0.167 C 
ENDROOT
BRANCH  12   2
ATOM      2  O   UNL     1      -4.420   3.907  22.051  0.00  0.00    -0.387 OA
ATOM     32  H   UNL     1      -4.330   4.810  21.703  0.00  0.00    +0.210 HD
ENDBRANCH  12   2
BRANCH  13   3
ATOM      3  O   UNL     1      -3.485   1.409  22.729  0.00  0.00    -0.387 OA
ATOM     33  H   UNL     1      -2.539   1.281  22.547  0.00  0.00    +0.210 HD
ENDBRANCH  13   3
BRANCH  11  15
ATOM     15  C   UNL     1      -3.252   5.087  25.374  0.00  0.00    +0.130 C 
BRANCH  15  17
ATOM      4  O   UNL     1      -3.101   3.543  27.170  0.00  0.00    -0.276 OA
ATOM      7  N   UNL     1      -1.515   3.339  25.485  0.00  0.00    -0.298 N 
ATOM      8  N   UNL     1       0.657   1.921  24.200  0.00  0.00    -0.312 N 
ATOM     10  N   UNL     1       2.823   1.875  23.260  0.00  0.00    -0.240 NA
ATOM     17  C   UNL     1      -2.626   3.921  26.098  0.00  0.00    +0.218 C 
ATOM     18  C   UNL     1      -0.848   2.209  26.127  0.00  0.00    +0.126 C 
ATOM     19  C   UNL     1      -0.958   3.783  24.205  0.00  0.00    +0.126 C 
ATOM     20  C   UNL     1      -0.268   1.233  25.105  0.00  0.00    +0.125 C 
ATOM     21  C   UNL     1       0.501   3.367  24.019  0.00  0.00    +0.125 C 
ATOM     22  C   UNL     1       1.678   1.222  23.560  0.00  0.00    +0.121 A 
ATOM     24  C   UNL     1       1.447  -0.112  23.270  0.00  0.00    +0.043 A 
ATOM     26  C   UNL     1       2.457  -0.824  22.631  0.00  0.00    +0.005 A 
ATOM     27  C   UNL     1       3.782   1.151  22.638  0.00  0.00    +0.113 A 
ATOM     28  C   UNL     1       3.649  -0.187  22.306  0.00  0.00    +0.020 A 
ENDBRANCH  15  17
ENDBRANCH  11  15
BRANCH  14  16
ATOM     16  C   UNL     1      -5.003   1.302  25.547  0.00  0.00    +0.138 C 
BRANCH  16   9
ATOM      5  O   UNL     1      -4.756  -1.167  24.103  0.00  0.00    -0.267 OA
ATOM      9  N   UNL     1      -3.858   0.439  25.514  0.00  0.00    -0.306 N 
ATOM     23  C   UNL     1      -3.825  -0.744  24.783  0.00  0.00    +0.279 C 
ATOM     34  H   UNL     1      -3.038   0.710  26.049  0.00  0.00    +0.149 HD
BRANCH  23  25
ATOM      6  O   UNL     1      -1.639  -1.150  25.781  0.00  0.00    -0.458 OA
ATOM     25  C   UNL     1      -2.574  -1.540  24.875  0.00  0.00    +0.189 A 
ATOM     29  C   UNL     1      -2.148  -2.652  24.188  0.00  0.00    +0.054 A 
ATOM     30  C   UNL     1      -0.869  -2.968  24.708  0.00  0.00    +0.042 A 
ATOM     31  C   UNL     1      -0.605  -2.025  25.673  0.00  0.00    +0.196 A 
ENDBRANCH  23  25
ENDBRANCH  16   9
ENDBRANCH  14  16
TORSDOF 7
ENDMDL
