MODEL 1
REMARK VINA RESULT:      -0.1      0.000      0.000
REMARK  Name = 75537062
REMARK  4 active torsions:
REMARK  status: ('A' for Active; 'I' for Inactive)
REMARK    1  A    between atoms: N_3  and  C_13
REMARK    2  A    between atoms: N_4  and  C_14
REMARK    3  A    between atoms: N_5  and  C_23
REMARK    4  A    between atoms: C_13  and  C_15
REMARK                            x       y       z     vdW  Elec       q    Type
REMARK                         _______ _______ _______ _____ _____    ______ ____
ROOT
ATOM      1  O   UNL     1      -1.908   4.082  24.993  0.00  0.00    -0.252 OA
ATOM      2  N   UNL     1      -0.612   2.174  24.658  0.00  0.00    -0.278 N 
ATOM      3  N   UNL     1       1.424   0.530  23.624  0.00  0.00    -0.295 NA
ATOM      4  N   UNL     1      -2.846   1.882  24.886  0.00  0.00    -0.254 N 
ATOM      7  C   UNL     1      -0.784   0.743  24.687  0.00  0.00    +0.109 C 
ATOM      8  C   UNL     1       0.017   0.081  23.568  0.00  0.00    +0.109 C 
ATOM      9  C   UNL     1      -2.295   0.565  24.587  0.00  0.00    +0.139 C 
ATOM     10  C   UNL     1       0.726   2.722  24.560  0.00  0.00    +0.125 C 
ATOM     11  C   UNL     1       1.514   1.995  23.469  0.00  0.00    +0.104 C 
ATOM     12  C   UNL     1      -1.814   2.868  24.871  0.00  0.00    +0.309 C 
ENDROOT
BRANCH   4  14
ATOM     14  C   UNL     1      -4.241   2.103  25.075  0.00  0.00    +0.038 A 
ATOM     16  C   UNL     1      -5.153   1.087  24.789  0.00  0.00    +0.023 A 
ATOM     17  C   UNL     1      -4.694   3.335  25.546  0.00  0.00    +0.023 A 
ATOM     20  C   UNL     1      -6.518   1.304  24.974  0.00  0.00    +0.002 A 
ATOM     21  C   UNL     1      -6.060   3.551  25.731  0.00  0.00    +0.002 A 
ATOM     22  C   UNL     1      -6.972   2.536  25.444  0.00  0.00    +0.000 A 
ENDBRANCH   4  14
BRANCH   3  13
ATOM     13  C   UNL     1       2.214  -0.142  22.593  0.00  0.00    +0.122 C 
BRANCH  13  15
ATOM      5  N   UNL     1       5.770  -0.299  23.437  0.00  0.00    -0.274 N 
ATOM      6  N   UNL     1       5.405  -1.442  24.043  0.00  0.00    -0.180 NA
ATOM     15  C   UNL     1       3.623  -0.411  23.052  0.00  0.00    +0.004 A 
ATOM     18  C   UNL     1       4.739   0.356  22.829  0.00  0.00    +0.112 A 
ATOM     19  C   UNL     1       4.092  -1.505  23.803  0.00  0.00    +0.139 A 
ATOM     23  C   UNL     1       7.149   0.124  23.476  0.00  0.00    +0.172 C 
ENDBRANCH  13  15
ENDBRANCH   3  13
TORSDOF 3
ENDMDL
MODEL 2
REMARK VINA RESULT:       0.9      1.692      2.026
REMARK  Name = 75537062
REMARK  4 active torsions:
REMARK  status: ('A' for Active; 'I' for Inactive)
REMARK    1  A    between atoms: N_3  and  C_13
REMARK    2  A    between atoms: N_4  and  C_14
REMARK    3  A    between atoms: N_5  and  C_23
REMARK    4  A    between atoms: C_13  and  C_15
REMARK                            x       y       z     vdW  Elec       q    Type
REMARK                         _______ _______ _______ _____ _____    ______ ____
ROOT
ATOM      1  O   UNL     1      -2.057   0.200  26.406  0.00  0.00    -0.252 OA
ATOM      2  N   UNL     1      -1.114  -0.120  24.300  0.00  0.00    -0.278 N 
ATOM      3  N   UNL     1       0.869  -0.497  22.340  0.00  0.00    -0.295 NA
ATOM      4  N   UNL     1      -2.873   1.298  24.442  0.00  0.00    -0.254 N 
ATOM      7  C   UNL     1      -1.407   0.225  22.931  0.00  0.00    +0.109 C 
ATOM      8  C   UNL     1      -0.126   0.583  22.179  0.00  0.00    +0.109 C 
ATOM      9  C   UNL     1      -2.415   1.361  23.058  0.00  0.00    +0.139 C 
ATOM     10  C   UNL     1      -0.048  -1.061  24.578  0.00  0.00    +0.125 C 
ATOM     11  C   UNL     1       1.197  -0.703  23.764  0.00  0.00    +0.104 C 
ATOM     12  C   UNL     1      -2.034   0.432  25.205  0.00  0.00    +0.309 C 
ENDROOT
BRANCH   4  14
ATOM     14  C   UNL     1      -3.962   2.082  24.923  0.00  0.00    +0.038 A 
ATOM     16  C   UNL     1      -5.173   1.470  25.246  0.00  0.00    +0.023 A 
ATOM     17  C   UNL     1      -3.816   3.461  25.072  0.00  0.00    +0.023 A 
ATOM     20  C   UNL     1      -6.238   2.237  25.717  0.00  0.00    +0.002 A 
ATOM     21  C   UNL     1      -4.882   4.228  25.543  0.00  0.00    +0.002 A 
ATOM     22  C   UNL     1      -6.093   3.617  25.865  0.00  0.00    +0.000 A 
ENDBRANCH   4  14
BRANCH   3  13
ATOM     13  C   UNL     1       2.079  -0.192  21.576  0.00  0.00    +0.122 C 
BRANCH  13  15
ATOM      5  N   UNL     1       4.954  -0.328  23.833  0.00  0.00    -0.274 N 
ATOM      6  N   UNL     1       4.985   0.996  23.604  0.00  0.00    -0.180 NA
ATOM     15  C   UNL     1       3.277  -0.012  22.470  0.00  0.00    +0.004 A 
ATOM     18  C   UNL     1       3.951  -0.978  23.176  0.00  0.00    +0.112 A 
ATOM     19  C   UNL     1       3.957   1.183  22.772  0.00  0.00    +0.139 A 
ATOM     23  C   UNL     1       5.934  -0.928  24.706  0.00  0.00    +0.172 C 
ENDBRANCH  13  15
ENDBRANCH   3  13
TORSDOF 3
ENDMDL
MODEL 3
REMARK VINA RESULT:       1.3      1.859      8.499
REMARK  Name = 75537062
REMARK  4 active torsions:
REMARK  status: ('A' for Active; 'I' for Inactive)
REMARK    1  A    between atoms: N_3  and  C_13
REMARK    2  A    between atoms: N_4  and  C_14
REMARK    3  A    between atoms: N_5  and  C_23
REMARK    4  A    between atoms: C_13  and  C_15
REMARK                            x       y       z     vdW  Elec       q    Type
REMARK                         _______ _______ _______ _____ _____    ______ ____
ROOT
ATOM      1  O   UNL     1       1.588   2.661  23.830  0.00  0.00    -0.252 OA
ATOM      2  N   UNL     1      -0.380   1.441  23.563  0.00  0.00    -0.278 N 
ATOM      3  N   UNL     1      -3.042   0.627  23.975  0.00  0.00    -0.295 NA
ATOM      4  N   UNL     1       1.570   0.296  23.458  0.00  0.00    -0.254 N 
ATOM      7  C   UNL     1      -0.771   0.105  23.190  0.00  0.00    +0.109 C 
ATOM      8  C   UNL     1      -1.952  -0.368  24.035  0.00  0.00    +0.109 C 
ATOM      9  C   UNL     1       0.510  -0.702  23.369  0.00  0.00    +0.139 C 
ATOM     10  C   UNL     1      -1.397   2.466  23.683  0.00  0.00    +0.125 C 
ATOM     11  C   UNL     1      -2.588   1.935  24.486  0.00  0.00    +0.104 C 
ATOM     12  C   UNL     1       1.013   1.598  23.634  0.00  0.00    +0.309 C 
ENDROOT
BRANCH   4  14
ATOM     14  C   UNL     1       2.952  -0.052  23.449  0.00  0.00    +0.038 A 
ATOM     16  C   UNL     1       3.352  -1.330  23.838  0.00  0.00    +0.023 A 
ATOM     17  C   UNL     1       3.905   0.886  23.051  0.00  0.00    +0.023 A 
ATOM     20  C   UNL     1       4.704  -1.671  23.829  0.00  0.00    +0.002 A 
ATOM     21  C   UNL     1       5.257   0.545  23.042  0.00  0.00    +0.002 A 
ATOM     22  C   UNL     1       5.658  -0.733  23.431  0.00  0.00    +0.000 A 
ENDBRANCH   4  14
BRANCH   3  13
ATOM     13  C   UNL     1      -4.202   0.158  24.733  0.00  0.00    +0.122 C 
BRANCH  13  15
ATOM      5  N   UNL     1      -5.887   3.263  25.681  0.00  0.00    -0.274 N 
ATOM      6  N   UNL     1      -6.520   2.458  26.552  0.00  0.00    -0.180 NA
ATOM     15  C   UNL     1      -5.014   1.301  25.282  0.00  0.00    +0.004 A 
ATOM     18  C   UNL     1      -4.976   2.619  24.897  0.00  0.00    +0.112 A 
ATOM     19  C   UNL     1      -5.982   1.261  26.303  0.00  0.00    +0.139 A 
ATOM     23  C   UNL     1      -6.205   4.670  25.645  0.00  0.00    +0.172 C 
ENDBRANCH  13  15
ENDBRANCH   3  13
TORSDOF 3
ENDMDL
MODEL 4
REMARK VINA RESULT:       1.5      2.185      8.729
REMARK  Name = 75537062
REMARK  4 active torsions:
REMARK  status: ('A' for Active; 'I' for Inactive)
REMARK    1  A    between atoms: N_3  and  C_13
REMARK    2  A    between atoms: N_4  and  C_14
REMARK    3  A    between atoms: N_5  and  C_23
REMARK    4  A    between atoms: C_13  and  C_15
REMARK                            x       y       z     vdW  Elec       q    Type
REMARK                         _______ _______ _______ _____ _____    ______ ____
ROOT
ATOM      1  O   UNL     1       1.045  -0.577  21.371  0.00  0.00    -0.252 OA
ATOM      2  N   UNL     1      -0.350   0.555  22.855  0.00  0.00    -0.278 N 
ATOM      3  N   UNL     1      -2.416   2.242  23.751  0.00  0.00    -0.295 NA
ATOM      4  N   UNL     1       1.838   0.389  23.413  0.00  0.00    -0.254 N 
ATOM      7  C   UNL     1      -0.277   1.109  24.185  0.00  0.00    +0.109 C 
ATOM      8  C   UNL     1      -1.043   2.428  24.262  0.00  0.00    +0.109 C 
ATOM      9  C   UNL     1       1.222   1.220  24.441  0.00  0.00    +0.139 C 
ATOM     10  C   UNL     1      -1.638   0.466  22.198  0.00  0.00    +0.125 C 
ATOM     11  C   UNL     1      -2.398   1.787  22.348  0.00  0.00    +0.104 C 
ATOM     12  C   UNL     1       0.878   0.035  22.417  0.00  0.00    +0.309 C 
ENDROOT
BRANCH   4  14
ATOM     14  C   UNL     1       3.229   0.078  23.412  0.00  0.00    +0.038 A 
ATOM     16  C   UNL     1       3.659  -1.197  23.779  0.00  0.00    +0.023 A 
ATOM     17  C   UNL     1       4.160   1.049  23.044  0.00  0.00    +0.023 A 
ATOM     20  C   UNL     1       5.020  -1.501  23.779  0.00  0.00    +0.002 A 
ATOM     21  C   UNL     1       5.522   0.745  23.045  0.00  0.00    +0.002 A 
ATOM     22  C   UNL     1       5.952  -0.529  23.412  0.00  0.00    +0.000 A 
ENDBRANCH   4  14
BRANCH   3  13
ATOM     13  C   UNL     1      -3.178   3.485  23.875  0.00  0.00    +0.122 C 
BRANCH  13  15
ATOM      5  N   UNL     1      -5.935   2.535  26.083  0.00  0.00    -0.274 N 
ATOM      6  N   UNL     1      -6.192   3.854  26.054  0.00  0.00    -0.180 NA
ATOM     15  C   UNL     1      -4.366   3.327  24.786  0.00  0.00    +0.004 A 
ATOM     18  C   UNL     1      -4.851   2.168  25.340  0.00  0.00    +0.112 A 
ATOM     19  C   UNL     1      -5.231   4.332  25.259  0.00  0.00    +0.139 A 
ATOM     23  C   UNL     1      -6.778   1.656  26.858  0.00  0.00    +0.172 C 
ENDBRANCH  13  15
ENDBRANCH   3  13
TORSDOF 3
ENDMDL
MODEL 5
REMARK VINA RESULT:       1.8      2.619      8.134
REMARK  Name = 75537062
REMARK  4 active torsions:
REMARK  status: ('A' for Active; 'I' for Inactive)
REMARK    1  A    between atoms: N_3  and  C_13
REMARK    2  A    between atoms: N_4  and  C_14
REMARK    3  A    between atoms: N_5  and  C_23
REMARK    4  A    between atoms: C_13  and  C_15
REMARK                            x       y       z     vdW  Elec       q    Type
REMARK                         _______ _______ _______ _____ _____    ______ ____
ROOT
ATOM      1  O   UNL     1      -0.283  -2.387  22.927  0.00  0.00    -0.252 OA
ATOM      2  N   UNL     1      -1.739  -1.273  24.366  0.00  0.00    -0.278 N 
ATOM      3  N   UNL     1      -4.150  -0.223  25.367  0.00  0.00    -0.295 NA
ATOM      4  N   UNL     1       0.316  -0.370  24.070  0.00  0.00    -0.254 N 
ATOM      7  C   UNL     1      -1.691  -0.179  25.303  0.00  0.00    +0.109 C 
ATOM      8  C   UNL     1      -2.970   0.654  25.225  0.00  0.00    +0.109 C 
ATOM      9  C   UNL     1      -0.417   0.564  24.917  0.00  0.00    +0.139 C 
ATOM     10  C   UNL     1      -2.921  -2.109  24.317  0.00  0.00    +0.125 C 
ATOM     11  C   UNL     1      -4.181  -1.240  24.299  0.00  0.00    +0.104 C 
ATOM     12  C   UNL     1      -0.522  -1.462  23.692  0.00  0.00    +0.309 C 
ENDROOT
BRANCH   4  14
ATOM     14  C   UNL     1       1.654  -0.128  23.644  0.00  0.00    +0.038 A 
ATOM     16  C   UNL     1       2.601  -1.150  23.701  0.00  0.00    +0.023 A 
ATOM     17  C   UNL     1       2.017   1.133  23.168  0.00  0.00    +0.023 A 
ATOM     20  C   UNL     1       3.910  -0.913  23.284  0.00  0.00    +0.002 A 
ATOM     21  C   UNL     1       3.327   1.370  22.752  0.00  0.00    +0.002 A 
ATOM     22  C   UNL     1       4.274   0.348  22.810  0.00  0.00    +0.000 A 
ENDBRANCH   4  14
BRANCH   3  13
ATOM     13  C   UNL     1      -5.379   0.570  25.353  0.00  0.00    +0.122 C 
BRANCH  13  15
ATOM      5  N   UNL     1      -4.369   3.953  24.397  0.00  0.00    -0.274 N 
ATOM      6  N   UNL     1      -5.143   4.300  25.439  0.00  0.00    -0.180 NA
ATOM     15  C   UNL     1      -5.099   2.035  25.142  0.00  0.00    +0.004 A 
ATOM     18  C   UNL     1      -4.309   2.608  24.177  0.00  0.00    +0.112 A 
ATOM     19  C   UNL     1      -5.586   3.123  25.891  0.00  0.00    +0.139 A 
ATOM     23  C   UNL     1      -3.697   4.976  23.632  0.00  0.00    +0.172 C 
ENDBRANCH  13  15
ENDBRANCH   3  13
TORSDOF 3
ENDMDL
MODEL 6
REMARK VINA RESULT:       3.5      2.347      7.730
REMARK  Name = 75537062
REMARK  4 active torsions:
REMARK  status: ('A' for Active; 'I' for Inactive)
REMARK    1  A    between atoms: N_3  and  C_13
REMARK    2  A    between atoms: N_4  and  C_14
REMARK    3  A    between atoms: N_5  and  C_23
REMARK    4  A    between atoms: C_13  and  C_15
REMARK                            x       y       z     vdW  Elec       q    Type
REMARK                         _______ _______ _______ _____ _____    ______ ____
ROOT
ATOM      1  O   UNL     1       1.484   2.797  25.049  0.00  0.00    -0.252 OA
ATOM      2  N   UNL     1      -0.516   2.051  24.115  0.00  0.00    -0.278 N 
ATOM      3  N   UNL     1      -3.239   1.362  23.944  0.00  0.00    -0.295 NA
ATOM      4  N   UNL     1       1.377   0.966  23.510  0.00  0.00    -0.254 N 
ATOM      7  C   UNL     1      -0.943   1.132  23.090  0.00  0.00    +0.109 C 
ATOM      8  C   UNL     1      -2.207   0.391  23.523  0.00  0.00    +0.109 C 
ATOM      9  C   UNL     1       0.279   0.245  22.877  0.00  0.00    +0.139 C 
ATOM     10  C   UNL     1      -1.487   2.949  24.706  0.00  0.00    +0.125 C 
ATOM     11  C   UNL     1      -2.759   2.182  25.073  0.00  0.00    +0.104 C 
ATOM     12  C   UNL     1       0.874   2.035  24.311  0.00  0.00    +0.309 C 
ENDROOT
BRANCH   4  14
ATOM     14  C   UNL     1       2.736   0.560  23.377  0.00  0.00    +0.038 A 
ATOM     16  C   UNL     1       3.697   1.470  22.936  0.00  0.00    +0.023 A 
ATOM     17  C   UNL     1       3.107  -0.748  23.688  0.00  0.00    +0.023 A 
ATOM     20  C   UNL     1       5.027   1.072  22.805  0.00  0.00    +0.002 A 
ATOM     21  C   UNL     1       4.438  -1.146  23.558  0.00  0.00    +0.002 A 
ATOM     22  C   UNL     1       5.398  -0.236  23.116  0.00  0.00    +0.000 A 
ENDBRANCH   4  14
BRANCH   3  13
ATOM     13  C   UNL     1      -4.474   0.667  24.305  0.00  0.00    +0.122 C 
BRANCH  13  15
ATOM      5  N   UNL     1      -4.118  -2.973  24.299  0.00  0.00    -0.274 N 
ATOM      6  N   UNL     1      -3.678  -2.765  25.552  0.00  0.00    -0.180 NA
ATOM     15  C   UNL     1      -4.247  -0.805  24.526  0.00  0.00    +0.004 A 
ATOM     18  C   UNL     1      -4.471  -1.831  23.642  0.00  0.00    +0.112 A 
ATOM     19  C   UNL     1      -3.760  -1.438  25.685  0.00  0.00    +0.139 A 
ATOM     23  C   UNL     1      -4.179  -4.316  23.775  0.00  0.00    +0.172 C 
ENDBRANCH  13  15
ENDBRANCH   3  13
TORSDOF 3
ENDMDL
