MODEL 1
REMARK VINA RESULT:      -4.8      0.000      0.000
REMARK  Name = 45784173
REMARK  6 active torsions:
REMARK  status: ('A' for Active; 'I' for Inactive)
REMARK    1  A    between atoms: N_3  and  C_10
REMARK    2  A    between atoms: N_5  and  C_19
REMARK    3  A    between atoms: N_5  and  C_24
REMARK    4  A    between atoms: N_5  and  C_25
REMARK    5  A    between atoms: C_6  and  C_11
REMARK    6  A    between atoms: C_10  and  C_12
REMARK                            x       y       z     vdW  Elec       q    Type
REMARK                         _______ _______ _______ _____ _____    ______ ____
ROOT
ATOM      3  N   UNL     1      17.405  -7.616  26.304  0.00  0.00    -0.297 NA
ATOM      6  C   UNL     1      16.578  -7.677  28.498  0.00  0.00    +0.090 C 
ATOM      7  C   UNL     1      17.172  -9.049  28.132  0.00  0.00    +0.029 C 
ATOM      8  C   UNL     1      16.411  -6.956  27.153  0.00  0.00    +0.097 C 
ATOM      9  C   UNL     1      17.280  -9.040  26.613  0.00  0.00    +0.085 C 
ENDROOT
BRANCH   6  11
ATOM      1 CL   UNL     1      10.211  -8.728  32.498  0.00  0.00    -0.083 Cl
ATOM      2  O   UNL     1      14.745  -6.528  29.620  0.00  0.00    -0.439 OA
ATOM      4  N   UNL     1      14.647  -8.790  29.730  0.00  0.00    -0.213 NA
ATOM     11  C   UNL     1      15.299  -7.732  29.300  0.00  0.00    +0.201 A 
ATOM     13  C   UNL     1      13.570  -8.251  30.391  0.00  0.00    +0.111 A 
ATOM     14  C   UNL     1      13.626  -6.867  30.326  0.00  0.00    +0.155 A 
ATOM     20  C   UNL     1      12.502  -8.855  31.070  0.00  0.00    +0.051 A 
ATOM     21  C   UNL     1      12.692  -6.009  30.891  0.00  0.00    +0.050 A 
ATOM     22  C   UNL     1      11.538  -8.021  31.655  0.00  0.00    +0.043 A 
ATOM     23  C   UNL     1      11.633  -6.626  31.565  0.00  0.00    +0.024 A 
ENDBRANCH   6  11
BRANCH   3  10
ATOM     10  C   UNL     1      17.202  -7.336  24.891  0.00  0.00    +0.119 C 
BRANCH  10  12
ATOM     12  C   UNL     1      17.228  -5.858  24.602  0.00  0.00    -0.033 A 
ATOM     15  C   UNL     1      17.162  -5.403  23.285  0.00  0.00    +0.007 A 
ATOM     16  C   UNL     1      17.316  -4.944  25.652  0.00  0.00    +0.007 A 
ATOM     17  C   UNL     1      17.186  -4.034  23.018  0.00  0.00    +0.023 A 
ATOM     18  C   UNL     1      17.339  -3.575  25.385  0.00  0.00    +0.023 A 
ATOM     19  C   UNL     1      17.275  -3.121  24.068  0.00  0.00    +0.029 A 
BRANCH  19   5
ATOM      5  N   UNL     1      17.298  -1.736  23.799  0.00  0.00    -0.336 N 
ATOM     24  C   UNL     1      17.405  -0.780  24.884  0.00  0.00    +0.129 C 
ATOM     25  C   UNL     1      17.222  -1.251  22.435  0.00  0.00    +0.129 C 
ENDBRANCH  19   5
ENDBRANCH  10  12
ENDBRANCH   3  10
TORSDOF 4
ENDMDL
MODEL 2
REMARK VINA RESULT:      -3.3      1.670      2.307
REMARK  Name = 45784173
REMARK  6 active torsions:
REMARK  status: ('A' for Active; 'I' for Inactive)
REMARK    1  A    between atoms: N_3  and  C_10
REMARK    2  A    between atoms: N_5  and  C_19
REMARK    3  A    between atoms: N_5  and  C_24
REMARK    4  A    between atoms: N_5  and  C_25
REMARK    5  A    between atoms: C_6  and  C_11
REMARK    6  A    between atoms: C_10  and  C_12
REMARK                            x       y       z     vdW  Elec       q    Type
REMARK                         _______ _______ _______ _____ _____    ______ ____
ROOT
ATOM      3  N   UNL     1      17.379  -8.344  25.456  0.00  0.00    -0.297 NA
ATOM      6  C   UNL     1      16.895  -8.187  27.746  0.00  0.00    +0.090 C 
ATOM      7  C   UNL     1      16.206  -9.430  27.158  0.00  0.00    +0.029 C 
ATOM      8  C   UNL     1      17.286  -7.345  26.523  0.00  0.00    +0.097 C 
ATOM      9  C   UNL     1      16.218  -9.213  25.650  0.00  0.00    +0.085 C 
ENDROOT
BRANCH   6  11
ATOM      1 CL   UNL     1      12.118  -4.531  32.378  0.00  0.00    -0.083 Cl
ATOM      2  O   UNL     1      16.765  -6.810  29.752  0.00  0.00    -0.439 OA
ATOM      4  N   UNL     1      14.764  -7.257  28.785  0.00  0.00    -0.213 NA
ATOM     11  C   UNL     1      16.069  -7.418  28.750  0.00  0.00    +0.201 A 
ATOM     13  C   UNL     1      14.571  -6.478  29.900  0.00  0.00    +0.111 A 
ATOM     14  C   UNL     1      15.793  -6.202  30.494  0.00  0.00    +0.155 A 
ATOM     20  C   UNL     1      13.404  -5.961  30.478  0.00  0.00    +0.051 A 
ATOM     21  C   UNL     1      15.960  -5.438  31.643  0.00  0.00    +0.050 A 
ATOM     22  C   UNL     1      13.532  -5.184  31.639  0.00  0.00    +0.043 A 
ATOM     23  C   UNL     1      14.787  -4.929  32.207  0.00  0.00    +0.024 A 
ENDBRANCH   6  11
BRANCH   3  10
ATOM     10  C   UNL     1      17.405  -7.742  24.132  0.00  0.00    +0.119 C 
BRANCH  10  12
ATOM     12  C   UNL     1      17.260  -6.244  24.194  0.00  0.00    -0.033 A 
ATOM     15  C   UNL     1      17.160  -5.603  25.428  0.00  0.00    +0.007 A 
ATOM     16  C   UNL     1      17.227  -5.499  23.015  0.00  0.00    +0.007 A 
ATOM     17  C   UNL     1      17.026  -4.216  25.484  0.00  0.00    +0.023 A 
ATOM     18  C   UNL     1      17.093  -4.112  23.071  0.00  0.00    +0.023 A 
ATOM     19  C   UNL     1      16.992  -3.471  24.306  0.00  0.00    +0.029 A 
BRANCH  19   5
ATOM      5  N   UNL     1      16.858  -2.067  24.362  0.00  0.00    -0.336 N 
ATOM     24  C   UNL     1      16.796  -1.287  23.141  0.00  0.00    +0.129 C 
ATOM     25  C   UNL     1      16.771  -1.388  25.639  0.00  0.00    +0.129 C 
ENDBRANCH  19   5
ENDBRANCH  10  12
ENDBRANCH   3  10
TORSDOF 4
ENDMDL
MODEL 3
REMARK VINA RESULT:      -2.4      1.776      2.249
REMARK  Name = 45784173
REMARK  6 active torsions:
REMARK  status: ('A' for Active; 'I' for Inactive)
REMARK    1  A    between atoms: N_3  and  C_10
REMARK    2  A    between atoms: N_5  and  C_19
REMARK    3  A    between atoms: N_5  and  C_24
REMARK    4  A    between atoms: N_5  and  C_25
REMARK    5  A    between atoms: C_6  and  C_11
REMARK    6  A    between atoms: C_10  and  C_12
REMARK                            x       y       z     vdW  Elec       q    Type
REMARK                         _______ _______ _______ _____ _____    ______ ____
ROOT
ATOM      3  N   UNL     1      16.749  -9.023  25.133  0.00  0.00    -0.297 NA
ATOM      6  C   UNL     1      15.766  -9.338  27.239  0.00  0.00    +0.090 C 
ATOM      7  C   UNL     1      14.798  -9.813  26.142  0.00  0.00    +0.029 C 
ATOM      8  C   UNL     1      16.809  -8.491  26.496  0.00  0.00    +0.097 C 
ATOM      9  C   UNL     1      15.323  -9.190  24.854  0.00  0.00    +0.085 C 
ENDROOT
BRANCH   6  11
ATOM      1 CL   UNL     1      12.639  -4.971  32.604  0.00  0.00    -0.083 Cl
ATOM      2  O   UNL     1      14.669  -9.374  29.414  0.00  0.00    -0.439 OA
ATOM      4  N   UNL     1      14.923  -7.306  28.521  0.00  0.00    -0.213 NA
ATOM     11  C   UNL     1      15.115  -8.599  28.385  0.00  0.00    +0.201 A 
ATOM     13  C   UNL     1      14.297  -7.205  29.740  0.00  0.00    +0.111 A 
ATOM     14  C   UNL     1      14.141  -8.468  30.290  0.00  0.00    +0.155 A 
ATOM     20  C   UNL     1      13.831  -6.092  30.454  0.00  0.00    +0.051 A 
ATOM     21  C   UNL     1      13.545  -8.729  31.518  0.00  0.00    +0.050 A 
ATOM     22  C   UNL     1      13.224  -6.315  31.698  0.00  0.00    +0.043 A 
ATOM     23  C   UNL     1      13.086  -7.609  32.218  0.00  0.00    +0.024 A 
ENDBRANCH   6  11
BRANCH   3  10
ATOM     10  C   UNL     1      17.404  -8.152  24.168  0.00  0.00    +0.119 C 
BRANCH  10  12
ATOM     12  C   UNL     1      17.400  -6.714  24.616  0.00  0.00    -0.033 A 
ATOM     15  C   UNL     1      17.395  -5.688  23.671  0.00  0.00    +0.007 A 
ATOM     16  C   UNL     1      17.399  -6.409  25.978  0.00  0.00    +0.007 A 
ATOM     17  C   UNL     1      17.391  -4.357  24.088  0.00  0.00    +0.023 A 
ATOM     18  C   UNL     1      17.394  -5.078  26.394  0.00  0.00    +0.023 A 
ATOM     19  C   UNL     1      17.391  -4.052  25.448  0.00  0.00    +0.029 A 
BRANCH  19   5
ATOM      5  N   UNL     1      17.385  -2.706  25.870  0.00  0.00    -0.336 N 
ATOM     24  C   UNL     1      17.405  -2.379  27.282  0.00  0.00    +0.129 C 
ATOM     25  C   UNL     1      17.368  -1.631  24.897  0.00  0.00    +0.129 C 
ENDBRANCH  19   5
ENDBRANCH  10  12
ENDBRANCH   3  10
TORSDOF 4
ENDMDL
