MODEL 1
REMARK VINA RESULT:      -6.0      0.000      0.000
REMARK  Name = 75536806
REMARK  7 active torsions:
REMARK  status: ('A' for Active; 'I' for Inactive)
REMARK    1  A    between atoms: O_2  and  C_9
REMARK    2  A    between atoms: N_4  and  C_7
REMARK    3  A    between atoms: N_4  and  C_8
REMARK    4  A    between atoms: N_5  and  C_17
REMARK    5  A    between atoms: N_6  and  C_16
REMARK    6  A    between atoms: C_10  and  C_16
REMARK    7  A    between atoms: C_18  and  C_19
REMARK                            x       y       z     vdW  Elec       q    Type
REMARK                         _______ _______ _______ _____ _____    ______ ____
ROOT
ATOM      1  O   UNL     1       0.383  -0.881  23.455  0.00  0.00    -0.371 OA
ATOM      7  C   UNL     1       0.045   1.343  24.219  0.00  0.00    +0.111 C 
ATOM      9  C   UNL     1      -0.730   0.391  25.110  0.00  0.00    +0.164 C 
ATOM     10  C   UNL     1      -0.005  -0.920  24.839  0.00  0.00    +0.165 C 
ATOM     13  C   UNL     1       0.287   0.478  22.993  0.00  0.00    +0.181 C 
ENDROOT
BRANCH   9   2
ATOM      2  O   UNL     1      -0.671   0.753  26.477  0.00  0.00    -0.388 OA
ATOM     21  H   UNL     1      -0.440  -0.038  26.992  0.00  0.00    +0.210 HD
ENDBRANCH   9   2
BRANCH   7   4
ATOM      4  N   UNL     1      -0.673   2.570  23.913  0.00  0.00    -0.306 NA
ATOM     20  H   UNL     1      -0.811   2.656  22.907  0.00  0.00    +0.123 HD
BRANCH   4   8
ATOM      5  N   UNL     1      -4.562   3.878  25.023  0.00  0.00    -0.305 NA
ATOM      8  C   UNL     1      -1.965   2.599  24.596  0.00  0.00    +0.056 C 
ATOM     11  C   UNL     1      -2.119   3.881  25.422  0.00  0.00    +0.034 C 
ATOM     12  C   UNL     1      -3.105   2.493  23.579  0.00  0.00    +0.034 C 
ATOM     14  C   UNL     1      -3.513   3.964  26.049  0.00  0.00    +0.085 C 
ATOM     15  C   UNL     1      -4.466   2.622  24.267  0.00  0.00    +0.085 C 
ATOM     17  C   UNL     1      -5.885   4.010  25.632  0.00  0.00    +0.104 C 
ENDBRANCH   4   8
ENDBRANCH   7   4
BRANCH  10  16
ATOM     16  C   UNL     1      -0.865  -2.146  25.096  0.00  0.00    +0.138 C 
BRANCH  16   6
ATOM      3  O   UNL     1      -3.526  -1.438  26.014  0.00  0.00    -0.276 OA
ATOM      6  N   UNL     1      -2.071  -2.108  24.322  0.00  0.00    -0.313 N 
ATOM     18  C   UNL     1      -3.310  -1.754  24.847  0.00  0.00    +0.210 C 
ATOM     19  C   UNL     1      -4.403  -1.772  23.814  0.00  0.00    +0.109 C 
ATOM     22  H   UNL     1      -2.009  -2.355  23.339  0.00  0.00    +0.149 HD
ENDBRANCH  16   6
ENDBRANCH  10  16
TORSDOF 5
ENDMDL
MODEL 2
REMARK VINA RESULT:      -5.4      2.146      5.001
REMARK  Name = 75536806
REMARK  7 active torsions:
REMARK  status: ('A' for Active; 'I' for Inactive)
REMARK    1  A    between atoms: O_2  and  C_9
REMARK    2  A    between atoms: N_4  and  C_7
REMARK    3  A    between atoms: N_4  and  C_8
REMARK    4  A    between atoms: N_5  and  C_17
REMARK    5  A    between atoms: N_6  and  C_16
REMARK    6  A    between atoms: C_10  and  C_16
REMARK    7  A    between atoms: C_18  and  C_19
REMARK                            x       y       z     vdW  Elec       q    Type
REMARK                         _______ _______ _______ _____ _____    ______ ____
ROOT
ATOM      1  O   UNL     1      -1.646   4.137  25.803  0.00  0.00    -0.371 OA
ATOM      7  C   UNL     1      -0.530   2.178  25.054  0.00  0.00    +0.111 C 
ATOM      9  C   UNL     1      -1.811   2.352  24.260  0.00  0.00    +0.164 C 
ATOM     10  C   UNL     1      -2.086   3.835  24.468  0.00  0.00    +0.165 C 
ATOM     13  C   UNL     1      -0.800   3.066  26.257  0.00  0.00    +0.181 C 
ENDROOT
BRANCH   9   2
ATOM      2  O   UNL     1      -1.651   2.033  22.890  0.00  0.00    -0.388 OA
ATOM     21  H   UNL     1      -0.703   2.061  22.678  0.00  0.00    +0.210 HD
ENDBRANCH   9   2
BRANCH   7   4
ATOM      4  N   UNL     1      -0.253   0.798  25.420  0.00  0.00    -0.306 NA
ATOM     20  H   UNL     1      -0.282   0.690  26.433  0.00  0.00    +0.123 HD
BRANCH   4   8
ATOM      5  N   UNL     1      -2.919  -2.481  24.964  0.00  0.00    -0.305 NA
ATOM      8  C   UNL     1      -1.217  -0.107  24.796  0.00  0.00    +0.056 C 
ATOM     11  C   UNL     1      -0.651  -1.527  24.699  0.00  0.00    +0.034 C 
ATOM     12  C   UNL     1      -2.525  -0.119  25.592  0.00  0.00    +0.034 C 
ATOM     14  C   UNL     1      -1.698  -2.498  24.147  0.00  0.00    +0.085 C 
ATOM     15  C   UNL     1      -3.510  -1.136  25.011  0.00  0.00    +0.085 C 
ATOM     17  C   UNL     1      -3.889  -3.450  24.453  0.00  0.00    +0.104 C 
ENDBRANCH   4   8
ENDBRANCH   7   4
BRANCH  10  16
ATOM     16  C   UNL     1      -3.553   4.200  24.316  0.00  0.00    +0.138 C 
BRANCH  16   6
ATOM      3  O   UNL     1      -5.576   3.425  26.248  0.00  0.00    -0.276 OA
ATOM      6  N   UNL     1      -4.381   3.030  24.288  0.00  0.00    -0.313 N 
ATOM     18  C   UNL     1      -5.331   2.738  25.261  0.00  0.00    +0.210 C 
ATOM     19  C   UNL     1      -6.078   1.463  24.976  0.00  0.00    +0.109 C 
ATOM     22  H   UNL     1      -4.260   2.385  23.512  0.00  0.00    +0.149 HD
ENDBRANCH  16   6
ENDBRANCH  10  16
TORSDOF 5
ENDMDL
MODEL 3
REMARK VINA RESULT:      -4.7      2.447      5.741
REMARK  Name = 75536806
REMARK  7 active torsions:
REMARK  status: ('A' for Active; 'I' for Inactive)
REMARK    1  A    between atoms: O_2  and  C_9
REMARK    2  A    between atoms: N_4  and  C_7
REMARK    3  A    between atoms: N_4  and  C_8
REMARK    4  A    between atoms: N_5  and  C_17
REMARK    5  A    between atoms: N_6  and  C_16
REMARK    6  A    between atoms: C_10  and  C_16
REMARK    7  A    between atoms: C_18  and  C_19
REMARK                            x       y       z     vdW  Elec       q    Type
REMARK                         _______ _______ _______ _____ _____    ______ ____
ROOT
ATOM      1  O   UNL     1      -3.579   3.587  23.720  0.00  0.00    -0.371 OA
ATOM      7  C   UNL     1      -5.082   1.869  24.377  0.00  0.00    +0.111 C 
ATOM      9  C   UNL     1      -4.625   2.625  25.611  0.00  0.00    +0.164 C 
ATOM     10  C   UNL     1      -4.148   3.933  24.994  0.00  0.00    +0.165 C 
ATOM     13  C   UNL     1      -4.012   2.261  23.371  0.00  0.00    +0.181 C 
ENDROOT
BRANCH   9   2
ATOM      2  O   UNL     1      -5.669   2.831  26.543  0.00  0.00    -0.388 OA
ATOM     21  H   UNL     1      -6.367   3.351  26.110  0.00  0.00    +0.210 HD
ENDBRANCH   9   2
BRANCH   7   4
ATOM      4  N   UNL     1      -5.174   0.431  24.575  0.00  0.00    -0.306 NA
ATOM     20  H   UNL     1      -5.890   0.037  23.966  0.00  0.00    +0.123 HD
BRANCH   4   8
ATOM      5  N   UNL     1      -1.703  -1.941  25.204  0.00  0.00    -0.305 NA
ATOM      8  C   UNL     1      -3.888  -0.212  24.310  0.00  0.00    +0.056 C 
ATOM     11  C   UNL     1      -2.823   0.264  25.304  0.00  0.00    +0.034 C 
ATOM     12  C   UNL     1      -4.031  -1.734  24.387  0.00  0.00    +0.034 C 
ATOM     14  C   UNL     1      -1.506  -0.489  25.098  0.00  0.00    +0.085 C 
ATOM     15  C   UNL     1      -2.674  -2.421  24.211  0.00  0.00    +0.085 C 
ATOM     17  C   UNL     1      -0.428  -2.643  25.055  0.00  0.00    +0.104 C 
ENDBRANCH   4   8
ENDBRANCH   7   4
BRANCH  10  16
ATOM     16  C   UNL     1      -3.115   4.655  25.840  0.00  0.00    +0.138 C 
BRANCH  16   6
ATOM      3  O   UNL     1      -0.584   4.143  24.513  0.00  0.00    -0.276 OA
ATOM      6  N   UNL     1      -2.074   3.763  26.264  0.00  0.00    -0.313 N 
ATOM     18  C   UNL     1      -0.887   3.581  25.562  0.00  0.00    +0.210 C 
ATOM     19  C   UNL     1       0.042   2.610  26.240  0.00  0.00    +0.109 C 
ATOM     22  H   UNL     1      -2.221   3.241  27.122  0.00  0.00    +0.149 HD
ENDBRANCH  16   6
ENDBRANCH  10  16
TORSDOF 5
ENDMDL
MODEL 4
REMARK VINA RESULT:      -4.5      1.207      1.684
REMARK  Name = 75536806
REMARK  7 active torsions:
REMARK  status: ('A' for Active; 'I' for Inactive)
REMARK    1  A    between atoms: O_2  and  C_9
REMARK    2  A    between atoms: N_4  and  C_7
REMARK    3  A    between atoms: N_4  and  C_8
REMARK    4  A    between atoms: N_5  and  C_17
REMARK    5  A    between atoms: N_6  and  C_16
REMARK    6  A    between atoms: C_10  and  C_16
REMARK    7  A    between atoms: C_18  and  C_19
REMARK                            x       y       z     vdW  Elec       q    Type
REMARK                         _______ _______ _______ _____ _____    ______ ____
ROOT
ATOM      1  O   UNL     1      -0.804   0.497  23.625  0.00  0.00    -0.371 OA
ATOM      7  C   UNL     1      -0.343   2.678  24.445  0.00  0.00    +0.111 C 
ATOM      9  C   UNL     1      -0.634   1.760  25.618  0.00  0.00    +0.164 C 
ATOM     10  C   UNL     1      -0.374   0.396  24.993  0.00  0.00    +0.165 C 
ATOM     13  C   UNL     1      -0.939   1.889  23.291  0.00  0.00    +0.181 C 
ENDROOT
BRANCH   9   2
ATOM      2  O   UNL     1       0.214   2.003  26.724  0.00  0.00    -0.388 OA
ATOM     21  H   UNL     1       0.248   1.197  27.266  0.00  0.00    +0.210 HD
ENDBRANCH   9   2
BRANCH   7   4
ATOM      4  N   UNL     1      -0.925   4.004  24.584  0.00  0.00    -0.306 NA
ATOM     20  H   UNL     1      -0.640   4.597  23.806  0.00  0.00    +0.123 HD
BRANCH   4   8
ATOM      5  N   UNL     1      -4.800   2.491  25.457  0.00  0.00    -0.305 NA
ATOM      8  C   UNL     1      -2.384   3.926  24.643  0.00  0.00    +0.056 C 
ATOM     11  C   UNL     1      -2.897   2.695  23.888  0.00  0.00    +0.034 C 
ATOM     12  C   UNL     1      -2.854   3.879  26.099  0.00  0.00    +0.034 C 
ATOM     14  C   UNL     1      -4.414   2.552  24.040  0.00  0.00    +0.085 C 
ATOM     15  C   UNL     1      -4.372   3.697  26.179  0.00  0.00    +0.085 C 
ATOM     17  C   UNL     1      -6.245   2.303  25.584  0.00  0.00    +0.104 C 
ENDBRANCH   4   8
ENDBRANCH   7   4
BRANCH  10  16
ATOM     16  C   UNL     1      -1.120  -0.732  25.684  0.00  0.00    +0.138 C 
BRANCH  16   6
ATOM      3  O   UNL     1      -4.018  -0.629  25.818  0.00  0.00    -0.276 OA
ATOM      6  N   UNL     1      -2.055  -1.359  24.796  0.00  0.00    -0.313 N 
ATOM     18  C   UNL     1      -3.435  -1.255  24.936  0.00  0.00    +0.210 C 
ATOM     19  C   UNL     1      -4.183  -1.987  23.855  0.00  0.00    +0.109 C 
ATOM     22  H   UNL     1      -1.681  -1.908  24.028  0.00  0.00    +0.149 HD
ENDBRANCH  16   6
ENDBRANCH  10  16
TORSDOF 5
ENDMDL
MODEL 5
REMARK VINA RESULT:      -4.2      1.579      3.712
REMARK  Name = 75536806
REMARK  7 active torsions:
REMARK  status: ('A' for Active; 'I' for Inactive)
REMARK    1  A    between atoms: O_2  and  C_9
REMARK    2  A    between atoms: N_4  and  C_7
REMARK    3  A    between atoms: N_4  and  C_8
REMARK    4  A    between atoms: N_5  and  C_17
REMARK    5  A    between atoms: N_6  and  C_16
REMARK    6  A    between atoms: C_10  and  C_16
REMARK    7  A    between atoms: C_18  and  C_19
REMARK                            x       y       z     vdW  Elec       q    Type
REMARK                         _______ _______ _______ _____ _____    ______ ____
ROOT
ATOM      1  O   UNL     1      -3.299  -1.662  26.317  0.00  0.00    -0.371 OA
ATOM      7  C   UNL     1      -4.613  -0.256  24.926  0.00  0.00    +0.111 C 
ATOM      9  C   UNL     1      -3.633  -1.028  24.063  0.00  0.00    +0.164 C 
ATOM     10  C   UNL     1      -3.289  -2.193  24.982  0.00  0.00    +0.165 C 
ATOM     13  C   UNL     1      -3.979  -0.395  26.300  0.00  0.00    +0.181 C 
ENDROOT
BRANCH   9   2
ATOM      2  O   UNL     1      -4.206  -1.468  22.846  0.00  0.00    -0.388 OA
ATOM     21  H   UNL     1      -3.627  -1.188  22.117  0.00  0.00    +0.210 HD
ENDBRANCH   9   2
BRANCH   7   4
ATOM      4  N   UNL     1      -4.782   1.130  24.518  0.00  0.00    -0.306 NA
ATOM     20  H   UNL     1      -5.638   1.513  24.917  0.00  0.00    +0.123 HD
BRANCH   4   8
ATOM      5  N   UNL     1      -2.054   4.386  24.688  0.00  0.00    -0.305 NA
ATOM      8  C   UNL     1      -3.636   1.936  24.935  0.00  0.00    +0.056 C 
ATOM     11  C   UNL     1      -2.680   2.178  23.762  0.00  0.00    +0.034 C 
ATOM     12  C   UNL     1      -4.110   3.276  25.506  0.00  0.00    +0.034 C 
ATOM     14  C   UNL     1      -1.538   3.112  24.169  0.00  0.00    +0.085 C 
ATOM     15  C   UNL     1      -2.921   4.174  25.856  0.00  0.00    +0.085 C 
ATOM     17  C   UNL     1      -0.952   5.286  25.024  0.00  0.00    +0.104 C 
ENDBRANCH   4   8
ENDBRANCH   7   4
BRANCH  10  16
ATOM     16  C   UNL     1      -1.934  -2.812  24.685  0.00  0.00    +0.138 C 
BRANCH  16   6
ATOM      3  O   UNL     1      -0.501  -0.449  25.573  0.00  0.00    -0.276 OA
ATOM      6  N   UNL     1      -1.124  -1.935  23.891  0.00  0.00    -0.313 N 
ATOM     18  C   UNL     1      -0.469  -0.820  24.403  0.00  0.00    +0.210 C 
ATOM     19  C   UNL     1       0.333  -0.090  23.360  0.00  0.00    +0.109 C 
ATOM     22  H   UNL     1      -1.029  -2.147  22.902  0.00  0.00    +0.149 HD
ENDBRANCH  16   6
ENDBRANCH  10  16
TORSDOF 5
ENDMDL
MODEL 6
REMARK VINA RESULT:      -4.0      1.730      3.725
REMARK  Name = 75536806
REMARK  7 active torsions:
REMARK  status: ('A' for Active; 'I' for Inactive)
REMARK    1  A    between atoms: O_2  and  C_9
REMARK    2  A    between atoms: N_4  and  C_7
REMARK    3  A    between atoms: N_4  and  C_8
REMARK    4  A    between atoms: N_5  and  C_17
REMARK    5  A    between atoms: N_6  and  C_16
REMARK    6  A    between atoms: C_10  and  C_16
REMARK    7  A    between atoms: C_18  and  C_19
REMARK                            x       y       z     vdW  Elec       q    Type
REMARK                         _______ _______ _______ _____ _____    ______ ____
ROOT
ATOM      1  O   UNL     1      -0.484  -0.352  25.182  0.00  0.00    -0.371 OA
ATOM      7  C   UNL     1      -2.484  -0.264  23.903  0.00  0.00    +0.111 C 
ATOM      9  C   UNL     1      -1.620   0.933  23.553  0.00  0.00    +0.164 C 
ATOM     10  C   UNL     1      -0.251   0.450  24.013  0.00  0.00    +0.165 C 
ATOM     13  C   UNL     1      -1.881  -0.692  25.231  0.00  0.00    +0.181 C 
ENDROOT
BRANCH   9   2
ATOM      2  O   UNL     1      -1.636   1.232  22.170  0.00  0.00    -0.388 OA
ATOM     21  H   UNL     1      -1.786   2.186  22.065  0.00  0.00    +0.210 HD
ENDBRANCH   9   2
BRANCH   7   4
ATOM      4  N   UNL     1      -3.901   0.049  24.000  0.00  0.00    -0.306 NA
ATOM     20  H   UNL     1      -4.398  -0.707  24.469  0.00  0.00    +0.123 HD
BRANCH   4   8
ATOM      5  N   UNL     1      -5.682   3.730  25.159  0.00  0.00    -0.305 NA
ATOM      8  C   UNL     1      -4.107   1.303  24.722  0.00  0.00    +0.056 C 
ATOM     11  C   UNL     1      -4.045   2.501  23.769  0.00  0.00    +0.034 C 
ATOM     12  C   UNL     1      -5.456   1.282  25.446  0.00  0.00    +0.034 C 
ATOM     14  C   UNL     1      -4.369   3.804  24.504  0.00  0.00    +0.085 C 
ATOM     15  C   UNL     1      -5.734   2.625  26.126  0.00  0.00    +0.085 C 
ATOM     17  C   UNL     1      -5.999   4.999  25.814  0.00  0.00    +0.104 C 
ENDBRANCH   4   8
ENDBRANCH   7   4
BRANCH  10  16
ATOM     16  C   UNL     1       0.704   1.582  24.349  0.00  0.00    +0.138 C 
BRANCH  16   6
ATOM      3  O   UNL     1      -0.735   2.885  26.507  0.00  0.00    -0.276 OA
ATOM      6  N   UNL     1       0.039   2.853  24.310  0.00  0.00    -0.313 N 
ATOM     18  C   UNL     1      -0.629   3.403  25.399  0.00  0.00    +0.210 C 
ATOM     19  C   UNL     1      -1.215   4.756  25.095  0.00  0.00    +0.109 C 
ATOM     22  H   UNL     1       0.061   3.370  23.437  0.00  0.00    +0.149 HD
ENDBRANCH  16   6
ENDBRANCH  10  16
TORSDOF 5
ENDMDL
MODEL 7
REMARK VINA RESULT:      -3.9     14.840     17.353
REMARK  Name = 75536806
REMARK  7 active torsions:
REMARK  status: ('A' for Active; 'I' for Inactive)
REMARK    1  A    between atoms: O_2  and  C_9
REMARK    2  A    between atoms: N_4  and  C_7
REMARK    3  A    between atoms: N_4  and  C_8
REMARK    4  A    between atoms: N_5  and  C_17
REMARK    5  A    between atoms: N_6  and  C_16
REMARK    6  A    between atoms: C_10  and  C_16
REMARK    7  A    between atoms: C_18  and  C_19
REMARK                            x       y       z     vdW  Elec       q    Type
REMARK                         _______ _______ _______ _____ _____    ______ ____
ROOT
ATOM      1  O   UNL     1      -5.758  -9.992  10.658  0.00  0.00    -0.371 OA
ATOM      7  C   UNL     1      -6.964 -10.053  12.703  0.00  0.00    +0.111 C 
ATOM      9  C   UNL     1      -7.943  -9.884  11.557  0.00  0.00    +0.164 C 
ATOM     10  C   UNL     1      -7.112 -10.390  10.385  0.00  0.00    +0.165 C 
ATOM     13  C   UNL     1      -5.658  -9.635  12.048  0.00  0.00    +0.181 C 
ENDROOT
BRANCH   9   2
ATOM      2  O   UNL     1      -9.124 -10.644  11.731  0.00  0.00    -0.388 OA
ATOM     21  H   UNL     1      -9.093 -11.061  12.608  0.00  0.00    +0.210 HD
ENDBRANCH   9   2
BRANCH   7   4
ATOM      4  N   UNL     1      -7.292  -9.252  13.872  0.00  0.00    -0.306 NA
ATOM     20  H   UNL     1      -8.250  -8.911  13.808  0.00  0.00    +0.123 HD
BRANCH   4   8
ATOM      5  N   UNL     1      -6.755 -10.113  18.000  0.00  0.00    -0.305 NA
ATOM      8  C   UNL     1      -7.122 -10.030  15.098  0.00  0.00    +0.056 C 
ATOM     11  C   UNL     1      -5.776  -9.722  15.761  0.00  0.00    +0.034 C 
ATOM     12  C   UNL     1      -8.264  -9.736  16.075  0.00  0.00    +0.034 C 
ATOM     14  C   UNL     1      -5.644 -10.452  17.100  0.00  0.00    +0.085 C 
ATOM     15  C   UNL     1      -8.051 -10.465  17.404  0.00  0.00    +0.085 C 
ATOM     17  C   UNL     1      -6.587 -10.778  19.292  0.00  0.00    +0.104 C 
ENDBRANCH   4   8
ENDBRANCH   7   4
BRANCH  10  16
ATOM     16  C   UNL     1      -7.554  -9.823   9.047  0.00  0.00    +0.138 C 
BRANCH  16   6
ATOM      3  O   UNL     1      -7.676  -7.046   8.212  0.00  0.00    -0.276 OA
ATOM      6  N   UNL     1      -8.652  -8.914   9.203  0.00  0.00    -0.313 N 
ATOM     18  C   UNL     1      -8.623  -7.593   8.770  0.00  0.00    +0.210 C 
ATOM     19  C   UNL     1      -9.915  -6.869   9.034  0.00  0.00    +0.109 C 
ATOM     22  H   UNL     1      -9.491  -9.262   9.657  0.00  0.00    +0.149 HD
ENDBRANCH  16   6
ENDBRANCH  10  16
TORSDOF 5
ENDMDL
MODEL 8
REMARK VINA RESULT:      -3.8      2.520      4.346
REMARK  Name = 75536806
REMARK  7 active torsions:
REMARK  status: ('A' for Active; 'I' for Inactive)
REMARK    1  A    between atoms: O_2  and  C_9
REMARK    2  A    between atoms: N_4  and  C_7
REMARK    3  A    between atoms: N_4  and  C_8
REMARK    4  A    between atoms: N_5  and  C_17
REMARK    5  A    between atoms: N_6  and  C_16
REMARK    6  A    between atoms: C_10  and  C_16
REMARK    7  A    between atoms: C_18  and  C_19
REMARK                            x       y       z     vdW  Elec       q    Type
REMARK                         _______ _______ _______ _____ _____    ______ ____
ROOT
ATOM      1  O   UNL     1       0.607  -1.288  23.881  0.00  0.00    -0.371 OA
ATOM      7  C   UNL     1      -1.436  -0.200  24.413  0.00  0.00    +0.111 C 
ATOM      9  C   UNL     1      -0.496   0.802  23.769  0.00  0.00    +0.164 C 
ATOM     10  C   UNL     1       0.470  -0.127  23.045  0.00  0.00    +0.165 C 
ATOM     13  C   UNL     1      -0.469  -1.292  24.836  0.00  0.00    +0.181 C 
ENDROOT
BRANCH   9   2
ATOM      2  O   UNL     1      -1.157   1.675  22.874  0.00  0.00    -0.388 OA
ATOM     21  H   UNL     1      -1.561   1.142  22.169  0.00  0.00    +0.210 HD
ENDBRANCH   9   2
BRANCH   7   4
ATOM      4  N   UNL     1      -2.195   0.346  25.527  0.00  0.00    -0.306 NA
ATOM     20  H   UNL     1      -1.564   0.704  26.242  0.00  0.00    +0.123 HD
BRANCH   4   8
ATOM      5  N   UNL     1      -5.128   3.419  25.681  0.00  0.00    -0.305 NA
ATOM      8  C   UNL     1      -3.088   1.411  25.073  0.00  0.00    +0.056 C 
ATOM     11  C   UNL     1      -4.554   1.039  25.320  0.00  0.00    +0.034 C 
ATOM     12  C   UNL     1      -2.755   2.723  25.789  0.00  0.00    +0.034 C 
ATOM     14  C   UNL     1      -5.484   2.197  24.947  0.00  0.00    +0.085 C 
ATOM     15  C   UNL     1      -3.743   3.825  25.401  0.00  0.00    +0.085 C 
ATOM     17  C   UNL     1      -6.056   4.501  25.352  0.00  0.00    +0.104 C 
ENDBRANCH   4   8
ENDBRANCH   7   4
BRANCH  10  16
ATOM     16  C   UNL     1       1.834   0.495  22.803  0.00  0.00    +0.138 C 
BRANCH  16   6
ATOM      3  O   UNL     1       4.628   1.164  23.219  0.00  0.00    -0.276 OA
ATOM      6  N   UNL     1       2.889  -0.386  23.211  0.00  0.00    -0.313 N 
ATOM     18  C   UNL     1       4.206   0.023  23.387  0.00  0.00    +0.210 C 
ATOM     19  C   UNL     1       5.104  -1.096  23.843  0.00  0.00    +0.109 C 
ATOM     22  H   UNL     1       2.652  -1.360  23.376  0.00  0.00    +0.149 HD
ENDBRANCH  16   6
ENDBRANCH  10  16
TORSDOF 5
ENDMDL
MODEL 9
REMARK VINA RESULT:      -3.8      2.617      4.339
REMARK  Name = 75536806
REMARK  7 active torsions:
REMARK  status: ('A' for Active; 'I' for Inactive)
REMARK    1  A    between atoms: O_2  and  C_9
REMARK    2  A    between atoms: N_4  and  C_7
REMARK    3  A    between atoms: N_4  and  C_8
REMARK    4  A    between atoms: N_5  and  C_17
REMARK    5  A    between atoms: N_6  and  C_16
REMARK    6  A    between atoms: C_10  and  C_16
REMARK    7  A    between atoms: C_18  and  C_19
REMARK                            x       y       z     vdW  Elec       q    Type
REMARK                         _______ _______ _______ _____ _____    ______ ____
ROOT
ATOM      1  O   UNL     1       0.398  -0.948  22.882  0.00  0.00    -0.371 OA
ATOM      7  C   UNL     1      -0.151   0.853  24.329  0.00  0.00    +0.111 C 
ATOM      9  C   UNL     1       1.252   1.062  23.791  0.00  0.00    +0.164 C 
ATOM     10  C   UNL     1       1.223   0.180  22.549  0.00  0.00    +0.165 C 
ATOM     13  C   UNL     1      -0.359  -0.628  24.063  0.00  0.00    +0.181 C 
ENDROOT
BRANCH   9   2
ATOM      2  O   UNL     1       1.519   2.414  23.471  0.00  0.00    -0.388 OA
ATOM     21  H   UNL     1       2.017   2.438  22.637  0.00  0.00    +0.210 HD
ENDBRANCH   9   2
BRANCH   7   4
ATOM      4  N   UNL     1      -0.293   1.201  25.734  0.00  0.00    -0.306 NA
ATOM     20  H   UNL     1       0.456   1.830  26.019  0.00  0.00    +0.123 HD
BRANCH   4   8
ATOM      5  N   UNL     1      -3.830   3.451  25.031  0.00  0.00    -0.305 NA
ATOM      8  C   UNL     1      -1.590   1.827  25.984  0.00  0.00    +0.056 C 
ATOM     11  C   UNL     1      -1.497   3.351  25.851  0.00  0.00    +0.034 C 
ATOM     12  C   UNL     1      -2.639   1.282  25.011  0.00  0.00    +0.034 C 
ATOM     14  C   UNL     1      -2.875   4.000  26.004  0.00  0.00    +0.085 C 
ATOM     15  C   UNL     1      -3.979   1.998  25.191  0.00  0.00    +0.085 C 
ATOM     17  C   UNL     1      -5.127   4.117  25.156  0.00  0.00    +0.104 C 
ENDBRANCH   4   8
ENDBRANCH   7   4
BRANCH  10  16
ATOM     16  C   UNL     1       2.599  -0.298  22.120  0.00  0.00    +0.138 C 
BRANCH  16   6
ATOM      3  O   UNL     1       4.643  -1.566  23.744  0.00  0.00    -0.276 OA
ATOM      6  N   UNL     1       3.634   0.346  22.876  0.00  0.00    -0.313 N 
ATOM     18  C   UNL     1       4.577  -0.345  23.629  0.00  0.00    +0.210 C 
ATOM     19  C   UNL     1       5.563   0.571  24.303  0.00  0.00    +0.109 C 
ATOM     22  H   UNL     1       3.671   1.360  22.855  0.00  0.00    +0.149 HD
ENDBRANCH  16   6
ENDBRANCH  10  16
TORSDOF 5
ENDMDL
MODEL 10
REMARK VINA RESULT:      -3.7      2.184      5.376
REMARK  Name = 75536806
REMARK  7 active torsions:
REMARK  status: ('A' for Active; 'I' for Inactive)
REMARK    1  A    between atoms: O_2  and  C_9
REMARK    2  A    between atoms: N_4  and  C_7
REMARK    3  A    between atoms: N_4  and  C_8
REMARK    4  A    between atoms: N_5  and  C_17
REMARK    5  A    between atoms: N_6  and  C_16
REMARK    6  A    between atoms: C_10  and  C_16
REMARK    7  A    between atoms: C_18  and  C_19
REMARK                            x       y       z     vdW  Elec       q    Type
REMARK                         _______ _______ _______ _____ _____    ______ ____
ROOT
ATOM      1  O   UNL     1      -3.073   4.623  23.623  0.00  0.00    -0.371 OA
ATOM      7  C   UNL     1      -4.553   3.261  24.886  0.00  0.00    +0.111 C 
ATOM      9  C   UNL     1      -3.281   3.479  25.683  0.00  0.00    +0.164 C 
ATOM     10  C   UNL     1      -2.727   4.730  25.014  0.00  0.00    +0.165 C 
ATOM     13  C   UNL     1      -4.095   3.621  23.482  0.00  0.00    +0.181 C 
ENDROOT
BRANCH   9   2
ATOM      2  O   UNL     1      -3.528   3.684  27.061  0.00  0.00    -0.388 OA
ATOM     21  H   UNL     1      -4.026   4.512  27.162  0.00  0.00    +0.210 HD
ENDBRANCH   9   2
BRANCH   7   4
ATOM      4  N   UNL     1      -5.076   1.907  24.981  0.00  0.00    -0.306 NA
ATOM     20  H   UNL     1      -5.635   1.687  24.157  0.00  0.00    +0.123 HD
BRANCH   4   8
ATOM      5  N   UNL     1      -2.791  -1.626  24.381  0.00  0.00    -0.305 NA
ATOM      8  C   UNL     1      -3.988   0.940  25.117  0.00  0.00    +0.056 C 
ATOM     11  C   UNL     1      -4.506  -0.392  25.669  0.00  0.00    +0.034 C 
ATOM     12  C   UNL     1      -3.307   0.715  23.764  0.00  0.00    +0.034 C 
ATOM     14  C   UNL     1      -3.390  -1.439  25.709  0.00  0.00    +0.085 C 
ATOM     15  C   UNL     1      -2.230  -0.369  23.866  0.00  0.00    +0.085 C 
ATOM     17  C   UNL     1      -1.762  -2.665  24.425  0.00  0.00    +0.104 C 
ENDBRANCH   4   8
ENDBRANCH   7   4
BRANCH  10  16
ATOM     16  C   UNL     1      -1.222   4.873  25.159  0.00  0.00    +0.138 C 
BRANCH  16   6
ATOM      3  O   UNL     1      -0.034   2.519  26.374  0.00  0.00    -0.276 OA
ATOM      6  N   UNL     1      -0.531   3.806  24.496  0.00  0.00    -0.313 N 
ATOM     18  C   UNL     1       0.009   2.710  25.161  0.00  0.00    +0.210 C 
ATOM     19  C   UNL     1       0.657   1.726  24.225  0.00  0.00    +0.109 C 
ATOM     22  H   UNL     1      -0.434   3.862  23.487  0.00  0.00    +0.149 HD
ENDBRANCH  16   6
ENDBRANCH  10  16
TORSDOF 5
ENDMDL
