MODEL 1
REMARK VINA RESULT:      -4.3      0.000      0.000
REMARK  Name = 26743976
REMARK  7 active torsions:
REMARK  status: ('A' for Active; 'I' for Inactive)
REMARK    1  A    between atoms: O_1  and  C_10
REMARK    2  A    between atoms: O_3  and  C_15
REMARK    3  A    between atoms: O_3  and  C_24
REMARK    4  A    between atoms: N_4  and  C_12
REMARK    5  A    between atoms: C_8  and  C_13
REMARK    6  A    between atoms: C_12  and  C_14
REMARK    7  A    between atoms: C_17  and  C_20
REMARK                            x       y       z     vdW  Elec       q    Type
REMARK                         _______ _______ _______ _____ _____    ______ ____
ROOT
ATOM      4  N   UNL     1      -3.767   1.788  24.685  0.00  0.00    -0.284 NA
ATOM      8  C   UNL     1      -3.030   3.067  24.686  0.00  0.00    +0.149 C 
ATOM      9  C   UNL     1      -3.941   4.047  25.449  0.00  0.00    +0.061 C 
ATOM     10  C   UNL     1      -5.186   3.239  25.795  0.00  0.00    +0.130 C 
ATOM     11  C   UNL     1      -5.187   2.128  24.761  0.00  0.00    +0.116 C 
ENDROOT
BRANCH   8  13
ATOM      2  O   UNL     1      -0.605   2.877  24.444  0.00  0.00    -0.336 OA
ATOM      5  N   UNL     1      -1.313   2.895  26.569  0.00  0.00    -0.190 NA
ATOM      6  N   UNL     1       0.543   2.770  25.238  0.00  0.00    -0.056 NA
ATOM     13  C   UNL     1      -1.653   2.946  25.306  0.00  0.00    +0.245 A 
ATOM     17  C   UNL     1       0.044   2.787  26.477  0.00  0.00    +0.204 A 
BRANCH  17  20
ATOM      7  N   UNL     1       3.054   2.965  28.653  0.00  0.00    -0.263 NA
ATOM     20  C   UNL     1       0.873   2.699  27.645  0.00  0.00    +0.041 A 
ATOM     22  C   UNL     1       0.351   2.285  28.865  0.00  0.00    +0.014 A 
ATOM     23  C   UNL     1       2.219   3.025  27.592  0.00  0.00    +0.122 A 
ATOM     25  C   UNL     1       1.179   2.211  29.980  0.00  0.00    +0.020 A 
ATOM     26  C   UNL     1       2.511   2.559  29.822  0.00  0.00    +0.111 A 
ENDBRANCH  17  20
ENDBRANCH   8  13
BRANCH  10   1
ATOM      1  O   UNL     1      -6.347   4.041  25.704  0.00  0.00    -0.390 OA
ATOM     27  H   UNL     1      -6.095   4.947  25.954  0.00  0.00    +0.210 HD
ENDBRANCH  10   1
BRANCH   4  12
ATOM     12  C   UNL     1      -3.465   0.953  23.529  0.00  0.00    +0.124 C 
BRANCH  12  14
ATOM     14  C   UNL     1      -3.274  -0.489  23.914  0.00  0.00    +0.008 A 
ATOM     15  C   UNL     1      -2.032  -0.953  24.350  0.00  0.00    +0.124 A 
ATOM     16  C   UNL     1      -4.355  -1.366  23.831  0.00  0.00    +0.008 A 
ATOM     18  C   UNL     1      -1.872  -2.293  24.701  0.00  0.00    +0.046 A 
ATOM     19  C   UNL     1      -4.194  -2.707  24.182  0.00  0.00    +0.001 A 
ATOM     21  C   UNL     1      -2.953  -3.170  24.618  0.00  0.00    +0.004 A 
BRANCH  15   3
ATOM      3  O   UNL     1      -0.965  -0.110  24.437  0.00  0.00    -0.495 OA
ATOM     24  C   UNL     1       0.205  -0.468  23.703  0.00  0.00    +0.277 C 
ENDBRANCH  15   3
ENDBRANCH  12  14
ENDBRANCH   4  12
TORSDOF 6
ENDMDL
MODEL 2
REMARK VINA RESULT:      -3.9      2.742      3.712
REMARK  Name = 26743976
REMARK  7 active torsions:
REMARK  status: ('A' for Active; 'I' for Inactive)
REMARK    1  A    between atoms: O_1  and  C_10
REMARK    2  A    between atoms: O_3  and  C_15
REMARK    3  A    between atoms: O_3  and  C_24
REMARK    4  A    between atoms: N_4  and  C_12
REMARK    5  A    between atoms: C_8  and  C_13
REMARK    6  A    between atoms: C_12  and  C_14
REMARK    7  A    between atoms: C_17  and  C_20
REMARK                            x       y       z     vdW  Elec       q    Type
REMARK                         _______ _______ _______ _____ _____    ______ ____
ROOT
ATOM      4  N   UNL     1      -4.449   1.580  25.451  0.00  0.00    -0.284 NA
ATOM      8  C   UNL     1      -3.849   2.341  24.336  0.00  0.00    +0.149 C 
ATOM      9  C   UNL     1      -4.329   3.790  24.543  0.00  0.00    +0.061 C 
ATOM     10  C   UNL     1      -5.230   3.734  25.771  0.00  0.00    +0.130 C 
ATOM     11  C   UNL     1      -5.676   2.284  25.818  0.00  0.00    +0.116 C 
ENDROOT
BRANCH   8  13
ATOM      2  O   UNL     1      -1.648   3.031  25.145  0.00  0.00    -0.336 OA
ATOM      5  N   UNL     1      -1.585   1.455  23.555  0.00  0.00    -0.190 NA
ATOM      6  N   UNL     1      -0.293   2.750  24.929  0.00  0.00    -0.056 NA
ATOM     13  C   UNL     1      -2.339   2.225  24.297  0.00  0.00    +0.245 A 
ATOM     17  C   UNL     1      -0.337   1.813  23.978  0.00  0.00    +0.204 A 
BRANCH  17  20
ATOM      7  N   UNL     1       3.229   1.323  23.048  0.00  0.00    -0.263 NA
ATOM     20  C   UNL     1       0.845   1.212  23.430  0.00  0.00    +0.041 A 
ATOM     22  C   UNL     1       0.789  -0.012  22.774  0.00  0.00    +0.014 A 
ATOM     23  C   UNL     1       2.078   1.833  23.540  0.00  0.00    +0.122 A 
ATOM     25  C   UNL     1       1.952  -0.570  22.254  0.00  0.00    +0.020 A 
ATOM     26  C   UNL     1       3.135   0.132  22.417  0.00  0.00    +0.111 A 
ENDBRANCH  17  20
ENDBRANCH   8  13
BRANCH  10   1
ATOM      1  O   UNL     1      -6.326   4.616  25.629  0.00  0.00    -0.390 OA
ATOM     27  H   UNL     1      -6.099   5.441  26.092  0.00  0.00    +0.210 HD
ENDBRANCH  10   1
BRANCH   4  12
ATOM     12  C   UNL     1      -4.696   0.182  25.123  0.00  0.00    +0.124 C 
BRANCH  12  14
ATOM     14  C   UNL     1      -3.433  -0.635  25.166  0.00  0.00    +0.008 A 
ATOM     15  C   UNL     1      -3.250  -1.710  24.295  0.00  0.00    +0.124 A 
ATOM     16  C   UNL     1      -2.440  -0.309  26.089  0.00  0.00    +0.008 A 
ATOM     18  C   UNL     1      -2.074  -2.459  24.349  0.00  0.00    +0.046 A 
ATOM     19  C   UNL     1      -1.264  -1.057  26.142  0.00  0.00    +0.001 A 
ATOM     21  C   UNL     1      -1.081  -2.132  25.272  0.00  0.00    +0.004 A 
BRANCH  15   3
ATOM      3  O   UNL     1      -4.210  -2.044  23.387  0.00  0.00    -0.495 OA
ATOM     24  C   UNL     1      -4.632  -3.406  23.362  0.00  0.00    +0.277 C 
ENDBRANCH  15   3
ENDBRANCH  12  14
ENDBRANCH   4  12
TORSDOF 6
ENDMDL
MODEL 3
REMARK VINA RESULT:      -3.3      2.961      5.539
REMARK  Name = 26743976
REMARK  7 active torsions:
REMARK  status: ('A' for Active; 'I' for Inactive)
REMARK    1  A    between atoms: O_1  and  C_10
REMARK    2  A    between atoms: O_3  and  C_15
REMARK    3  A    between atoms: O_3  and  C_24
REMARK    4  A    between atoms: N_4  and  C_12
REMARK    5  A    between atoms: C_8  and  C_13
REMARK    6  A    between atoms: C_12  and  C_14
REMARK    7  A    between atoms: C_17  and  C_20
REMARK                            x       y       z     vdW  Elec       q    Type
REMARK                         _______ _______ _______ _____ _____    ______ ____
ROOT
ATOM      4  N   UNL     1      -2.627   0.185  23.342  0.00  0.00    -0.284 NA
ATOM      8  C   UNL     1      -1.536   0.101  24.333  0.00  0.00    +0.149 C 
ATOM      9  C   UNL     1      -1.879  -1.129  25.195  0.00  0.00    +0.061 C 
ATOM     10  C   UNL     1      -3.203  -1.641  24.642  0.00  0.00    +0.130 C 
ATOM     11  C   UNL     1      -3.802  -0.419  23.969  0.00  0.00    +0.116 C 
ENDROOT
BRANCH   8  13
ATOM      2  O   UNL     1      -0.144  -0.086  22.332  0.00  0.00    -0.336 OA
ATOM      5  N   UNL     1       1.014  -0.020  24.249  0.00  0.00    -0.190 NA
ATOM      6  N   UNL     1       1.207  -0.170  21.974  0.00  0.00    -0.056 NA
ATOM     13  C   UNL     1      -0.169  -0.000  23.688  0.00  0.00    +0.245 A 
ATOM     17  C   UNL     1       1.826  -0.125  23.157  0.00  0.00    +0.204 A 
BRANCH  17  20
ATOM      7  N   UNL     1       5.225  -1.454  23.871  0.00  0.00    -0.263 NA
ATOM     20  C   UNL     1       3.255  -0.182  23.284  0.00  0.00    +0.041 A 
ATOM     22  C   UNL     1       4.047   0.914  22.965  0.00  0.00    +0.014 A 
ATOM     23  C   UNL     1       3.886  -1.333  23.729  0.00  0.00    +0.122 A 
ATOM     25  C   UNL     1       5.429   0.828  23.098  0.00  0.00    +0.020 A 
ATOM     26  C   UNL     1       5.963  -0.367  23.550  0.00  0.00    +0.111 A 
ENDBRANCH  17  20
ENDBRANCH   8  13
BRANCH  10   1
ATOM      1  O   UNL     1      -4.029  -2.124  25.683  0.00  0.00    -0.390 OA
ATOM     27  H   UNL     1      -4.950  -1.929  25.439  0.00  0.00    +0.210 HD
ENDBRANCH  10   1
BRANCH   4  12
ATOM     12  C   UNL     1      -2.887   1.545  22.889  0.00  0.00    +0.124 C 
BRANCH  12  14
ATOM     14  C   UNL     1      -2.795   2.538  24.016  0.00  0.00    +0.008 A 
ATOM     15  C   UNL     1      -3.939   2.942  24.706  0.00  0.00    +0.124 A 
ATOM     16  C   UNL     1      -1.549   3.058  24.368  0.00  0.00    +0.008 A 
ATOM     18  C   UNL     1      -3.837   3.865  25.747  0.00  0.00    +0.046 A 
ATOM     19  C   UNL     1      -1.447   3.980  25.409  0.00  0.00    +0.001 A 
ATOM     21  C   UNL     1      -2.591   4.384  26.099  0.00  0.00    +0.004 A 
BRANCH  15   3
ATOM      3  O   UNL     1      -5.164   2.445  24.375  0.00  0.00    -0.495 OA
ATOM     24  C   UNL     1      -6.006   2.031  25.449  0.00  0.00    +0.277 C 
ENDBRANCH  15   3
ENDBRANCH  12  14
ENDBRANCH   4  12
TORSDOF 6
ENDMDL
MODEL 4
REMARK VINA RESULT:      -3.3      2.856      5.255
REMARK  Name = 26743976
REMARK  7 active torsions:
REMARK  status: ('A' for Active; 'I' for Inactive)
REMARK    1  A    between atoms: O_1  and  C_10
REMARK    2  A    between atoms: O_3  and  C_15
REMARK    3  A    between atoms: O_3  and  C_24
REMARK    4  A    between atoms: N_4  and  C_12
REMARK    5  A    between atoms: C_8  and  C_13
REMARK    6  A    between atoms: C_12  and  C_14
REMARK    7  A    between atoms: C_17  and  C_20
REMARK                            x       y       z     vdW  Elec       q    Type
REMARK                         _______ _______ _______ _____ _____    ______ ____
ROOT
ATOM      4  N   UNL     1      -2.644   0.289  23.292  0.00  0.00    -0.284 NA
ATOM      8  C   UNL     1      -1.573   0.094  24.290  0.00  0.00    +0.149 C 
ATOM      9  C   UNL     1      -1.971  -1.184  25.052  0.00  0.00    +0.061 C 
ATOM     10  C   UNL     1      -3.303  -1.607  24.442  0.00  0.00    +0.130 C 
ATOM     11  C   UNL     1      -3.849  -0.319  23.854  0.00  0.00    +0.116 C 
ENDROOT
BRANCH   8  13
ATOM      2  O   UNL     1      -0.161  -0.088  22.303  0.00  0.00    -0.336 OA
ATOM      5  N   UNL     1       0.977  -0.028  24.231  0.00  0.00    -0.190 NA
ATOM      6  N   UNL     1       1.194  -0.172  21.959  0.00  0.00    -0.056 NA
ATOM     13  C   UNL     1      -0.200  -0.006  23.659  0.00  0.00    +0.245 A 
ATOM     17  C   UNL     1       1.801  -0.131  23.148  0.00  0.00    +0.204 A 
BRANCH  17  20
ATOM      7  N   UNL     1       5.191  -1.460  23.899  0.00  0.00    -0.263 NA
ATOM     20  C   UNL     1       3.228  -0.189  23.290  0.00  0.00    +0.041 A 
ATOM     22  C   UNL     1       4.024   0.907  22.976  0.00  0.00    +0.014 A 
ATOM     23  C   UNL     1       3.854  -1.338  23.743  0.00  0.00    +0.122 A 
ATOM     25  C   UNL     1       5.405   0.820  23.123  0.00  0.00    +0.020 A 
ATOM     26  C   UNL     1       5.933  -0.375  23.584  0.00  0.00    +0.111 A 
ENDBRANCH  17  20
ENDBRANCH   8  13
BRANCH  10   1
ATOM      1  O   UNL     1      -4.162  -2.137  25.432  0.00  0.00    -0.390 OA
ATOM     27  H   UNL     1      -4.719  -2.810  25.005  0.00  0.00    +0.210 HD
ENDBRANCH  10   1
BRANCH   4  12
ATOM     12  C   UNL     1      -2.850   1.688  22.939  0.00  0.00    +0.124 C 
BRANCH  12  14
ATOM     14  C   UNL     1      -3.345   2.495  24.109  0.00  0.00    +0.008 A 
ATOM     15  C   UNL     1      -2.471   3.297  24.842  0.00  0.00    +0.124 A 
ATOM     16  C   UNL     1      -4.694   2.433  24.457  0.00  0.00    +0.008 A 
ATOM     18  C   UNL     1      -2.946   4.038  25.925  0.00  0.00    +0.046 A 
ATOM     19  C   UNL     1      -5.169   3.174  25.540  0.00  0.00    +0.001 A 
ATOM     21  C   UNL     1      -4.295   3.977  26.273  0.00  0.00    +0.004 A 
BRANCH  15   3
ATOM      3  O   UNL     1      -1.150   3.369  24.516  0.00  0.00    -0.495 OA
ATOM     24  C   UNL     1      -0.210   3.174  25.571  0.00  0.00    +0.277 C 
ENDBRANCH  15   3
ENDBRANCH  12  14
ENDBRANCH   4  12
TORSDOF 6
ENDMDL
MODEL 5
REMARK VINA RESULT:      -3.1      2.786      3.957
REMARK  Name = 26743976
REMARK  7 active torsions:
REMARK  status: ('A' for Active; 'I' for Inactive)
REMARK    1  A    between atoms: O_1  and  C_10
REMARK    2  A    between atoms: O_3  and  C_15
REMARK    3  A    between atoms: O_3  and  C_24
REMARK    4  A    between atoms: N_4  and  C_12
REMARK    5  A    between atoms: C_8  and  C_13
REMARK    6  A    between atoms: C_12  and  C_14
REMARK    7  A    between atoms: C_17  and  C_20
REMARK                            x       y       z     vdW  Elec       q    Type
REMARK                         _______ _______ _______ _____ _____    ______ ____
ROOT
ATOM      4  N   UNL     1      -2.563   1.765  24.561  0.00  0.00    -0.284 NA
ATOM      8  C   UNL     1      -1.519   2.385  23.721  0.00  0.00    +0.149 C 
ATOM      9  C   UNL     1      -1.082   3.642  24.497  0.00  0.00    +0.061 C 
ATOM     10  C   UNL     1      -1.970   3.667  25.736  0.00  0.00    +0.130 C 
ATOM     11  C   UNL     1      -3.179   2.849  25.323  0.00  0.00    +0.116 C 
ENDROOT
BRANCH   8  13
ATOM      2  O   UNL     1      -0.669   0.303  22.762  0.00  0.00    -0.336 OA
ATOM      5  N   UNL     1       0.900   1.566  23.743  0.00  0.00    -0.190 NA
ATOM      6  N   UNL     1       0.538  -0.393  22.619  0.00  0.00    -0.056 NA
ATOM     13  C   UNL     1      -0.366   1.445  23.434  0.00  0.00    +0.245 A 
ATOM     17  C   UNL     1       1.414   0.414  23.222  0.00  0.00    +0.204 A 
BRANCH  17  20
ATOM      7  N   UNL     1       4.532  -1.521  23.818  0.00  0.00    -0.263 NA
ATOM     20  C   UNL     1       2.811   0.102  23.321  0.00  0.00    +0.041 A 
ATOM     22  C   UNL     1       3.781   1.055  23.033  0.00  0.00    +0.014 A 
ATOM     23  C   UNL     1       3.235  -1.160  23.705  0.00  0.00    +0.122 A 
ATOM     25  C   UNL     1       5.128   0.722  23.137  0.00  0.00    +0.020 A 
ATOM     26  C   UNL     1       5.447  -0.568  23.530  0.00  0.00    +0.111 A 
ENDBRANCH  17  20
ENDBRANCH   8  13
BRANCH  10   1
ATOM      1  O   UNL     1      -2.323   4.994  26.073  0.00  0.00    -0.390 OA
ATOM     27  H   UNL     1      -1.725   5.284  26.783  0.00  0.00    +0.210 HD
ENDBRANCH  10   1
BRANCH   4  12
ATOM     12  C   UNL     1      -3.544   1.009  23.793  0.00  0.00    +0.124 C 
BRANCH  12  14
ATOM     14  C   UNL     1      -3.539  -0.451  24.159  0.00  0.00    +0.008 A 
ATOM     15  C   UNL     1      -2.745  -0.921  25.205  0.00  0.00    +0.124 A 
ATOM     16  C   UNL     1      -4.339  -1.337  23.438  0.00  0.00    +0.008 A 
ATOM     18  C   UNL     1      -2.751  -2.278  25.531  0.00  0.00    +0.046 A 
ATOM     19  C   UNL     1      -4.345  -2.693  23.764  0.00  0.00    +0.001 A 
ATOM     21  C   UNL     1      -3.551  -3.164  24.810  0.00  0.00    +0.004 A 
BRANCH  15   3
ATOM      3  O   UNL     1      -1.956  -0.070  25.919  0.00  0.00    -0.495 OA
ATOM     24  C   UNL     1      -0.724  -0.590  26.416  0.00  0.00    +0.277 C 
ENDBRANCH  15   3
ENDBRANCH  12  14
ENDBRANCH   4  12
TORSDOF 6
ENDMDL
MODEL 6
REMARK VINA RESULT:      -2.5      2.980      4.409
REMARK  Name = 26743976
REMARK  7 active torsions:
REMARK  status: ('A' for Active; 'I' for Inactive)
REMARK    1  A    between atoms: O_1  and  C_10
REMARK    2  A    between atoms: O_3  and  C_15
REMARK    3  A    between atoms: O_3  and  C_24
REMARK    4  A    between atoms: N_4  and  C_12
REMARK    5  A    between atoms: C_8  and  C_13
REMARK    6  A    between atoms: C_12  and  C_14
REMARK    7  A    between atoms: C_17  and  C_20
REMARK                            x       y       z     vdW  Elec       q    Type
REMARK                         _______ _______ _______ _____ _____    ______ ____
ROOT
ATOM      4  N   UNL     1      -1.642   2.187  25.275  0.00  0.00    -0.284 NA
ATOM      8  C   UNL     1      -1.125   2.446  23.916  0.00  0.00    +0.149 C 
ATOM      9  C   UNL     1      -0.701   3.927  23.931  0.00  0.00    +0.061 C 
ATOM     10  C   UNL     1      -1.062   4.426  25.325  0.00  0.00    +0.130 C 
ATOM     11  C   UNL     1      -2.146   3.464  25.776  0.00  0.00    +0.116 C 
ENDROOT
BRANCH   8  13
ATOM      2  O   UNL     1      -0.297   0.503  22.686  0.00  0.00    -0.336 OA
ATOM      5  N   UNL     1       1.263   1.541  23.912  0.00  0.00    -0.190 NA
ATOM      6  N   UNL     1       0.892  -0.210  22.488  0.00  0.00    -0.056 NA
ATOM     13  C   UNL     1       0.010   1.517  23.537  0.00  0.00    +0.245 A 
ATOM     17  C   UNL     1       1.765   0.463  23.243  0.00  0.00    +0.204 A 
BRANCH  17  20
ATOM      7  N   UNL     1       5.474   0.699  23.147  0.00  0.00    -0.263 NA
ATOM     20  C   UNL     1       3.145   0.085  23.351  0.00  0.00    +0.041 A 
ATOM     22  C   UNL     1       3.509  -1.197  23.745  0.00  0.00    +0.014 A 
ATOM     23  C   UNL     1       4.157   0.989  23.066  0.00  0.00    +0.122 A 
ATOM     25  C   UNL     1       4.855  -1.533  23.841  0.00  0.00    +0.020 A 
ATOM     26  C   UNL     1       5.790  -0.557  23.534  0.00  0.00    +0.111 A 
ENDBRANCH  17  20
ENDBRANCH   8  13
BRANCH  10   1
ATOM      1  O   UNL     1      -1.530   5.759  25.275  0.00  0.00    -0.390 OA
ATOM     27  H   UNL     1      -0.765   6.330  25.088  0.00  0.00    +0.210 HD
ENDBRANCH  10   1
BRANCH   4  12
ATOM     12  C   UNL     1      -2.659   1.145  25.312  0.00  0.00    +0.124 C 
BRANCH  12  14
ATOM     14  C   UNL     1      -2.058  -0.230  25.196  0.00  0.00    +0.008 A 
ATOM     15  C   UNL     1      -2.684  -1.221  24.439  0.00  0.00    +0.124 A 
ATOM     16  C   UNL     1      -0.861  -0.509  25.856  0.00  0.00    +0.008 A 
ATOM     18  C   UNL     1      -2.114  -2.491  24.343  0.00  0.00    +0.046 A 
ATOM     19  C   UNL     1      -0.291  -1.778  25.760  0.00  0.00    +0.001 A 
ATOM     21  C   UNL     1      -0.917  -2.769  25.003  0.00  0.00    +0.004 A 
BRANCH  15   3
ATOM      3  O   UNL     1      -3.854  -0.966  23.788  0.00  0.00    -0.495 OA
ATOM     24  C   UNL     1      -4.769  -2.052  23.653  0.00  0.00    +0.277 C 
ENDBRANCH  15   3
ENDBRANCH  12  14
ENDBRANCH   4  12
TORSDOF 6
ENDMDL
MODEL 7
REMARK VINA RESULT:      -2.2      2.456      3.398
REMARK  Name = 26743976
REMARK  7 active torsions:
REMARK  status: ('A' for Active; 'I' for Inactive)
REMARK    1  A    between atoms: O_1  and  C_10
REMARK    2  A    between atoms: O_3  and  C_15
REMARK    3  A    between atoms: O_3  and  C_24
REMARK    4  A    between atoms: N_4  and  C_12
REMARK    5  A    between atoms: C_8  and  C_13
REMARK    6  A    between atoms: C_12  and  C_14
REMARK    7  A    between atoms: C_17  and  C_20
REMARK                            x       y       z     vdW  Elec       q    Type
REMARK                         _______ _______ _______ _____ _____    ______ ____
ROOT
ATOM      4  N   UNL     1      -3.948   1.519  24.493  0.00  0.00    -0.284 NA
ATOM      8  C   UNL     1      -3.166   2.664  23.984  0.00  0.00    +0.149 C 
ATOM      9  C   UNL     1      -3.630   3.866  24.828  0.00  0.00    +0.061 C 
ATOM     10  C   UNL     1      -4.706   3.306  25.751  0.00  0.00    +0.130 C 
ATOM     11  C   UNL     1      -5.195   2.071  25.018  0.00  0.00    +0.116 C 
ENDROOT
BRANCH   8  13
ATOM      2  O   UNL     1      -0.999   3.152  25.004  0.00  0.00    -0.336 OA
ATOM      5  N   UNL     1      -0.914   1.632  23.361  0.00  0.00    -0.190 NA
ATOM      6  N   UNL     1       0.345   2.775  24.890  0.00  0.00    -0.056 NA
ATOM     13  C   UNL     1      -1.671   2.433  24.068  0.00  0.00    +0.245 A 
ATOM     17  C   UNL     1       0.314   1.877  23.902  0.00  0.00    +0.204 A 
BRANCH  17  20
ATOM      7  N   UNL     1       2.542  -0.843  22.693  0.00  0.00    -0.263 NA
ATOM     20  C   UNL     1       1.492   1.204  23.432  0.00  0.00    +0.041 A 
ATOM     22  C   UNL     1       2.687   1.891  23.254  0.00  0.00    +0.014 A 
ATOM     23  C   UNL     1       1.472  -0.150  23.140  0.00  0.00    +0.122 A 
ATOM     25  C   UNL     1       3.811   1.213  22.796  0.00  0.00    +0.020 A 
ATOM     26  C   UNL     1       3.687  -0.142  22.533  0.00  0.00    +0.111 A 
ENDBRANCH  17  20
ENDBRANCH   8  13
BRANCH  10   1
ATOM      1  O   UNL     1      -5.742   4.249  25.942  0.00  0.00    -0.390 OA
ATOM     27  H   UNL     1      -6.456   3.803  26.430  0.00  0.00    +0.210 HD
ENDBRANCH  10   1
BRANCH   4  12
ATOM     12  C   UNL     1      -4.183   0.493  23.486  0.00  0.00    +0.124 C 
BRANCH  12  14
ATOM     14  C   UNL     1      -3.884  -0.886  24.010  0.00  0.00    +0.008 A 
ATOM     15  C   UNL     1      -2.949  -1.075  25.027  0.00  0.00    +0.124 A 
ATOM     16  C   UNL     1      -4.554  -1.982  23.466  0.00  0.00    +0.008 A 
ATOM     18  C   UNL     1      -2.682  -2.360  25.500  0.00  0.00    +0.046 A 
ATOM     19  C   UNL     1      -4.287  -3.267  23.939  0.00  0.00    +0.001 A 
ATOM     21  C   UNL     1      -3.352  -3.456  24.957  0.00  0.00    +0.004 A 
BRANCH  15   3
ATOM      3  O   UNL     1      -2.285  -0.016  25.570  0.00  0.00    -0.495 OA
ATOM     24  C   UNL     1      -1.083  -0.300  26.283  0.00  0.00    +0.277 C 
ENDBRANCH  15   3
ENDBRANCH  12  14
ENDBRANCH   4  12
TORSDOF 6
ENDMDL
MODEL 8
REMARK VINA RESULT:      -1.9      3.013      4.952
REMARK  Name = 26743976
REMARK  7 active torsions:
REMARK  status: ('A' for Active; 'I' for Inactive)
REMARK    1  A    between atoms: O_1  and  C_10
REMARK    2  A    between atoms: O_3  and  C_15
REMARK    3  A    between atoms: O_3  and  C_24
REMARK    4  A    between atoms: N_4  and  C_12
REMARK    5  A    between atoms: C_8  and  C_13
REMARK    6  A    between atoms: C_12  and  C_14
REMARK    7  A    between atoms: C_17  and  C_20
REMARK                            x       y       z     vdW  Elec       q    Type
REMARK                         _______ _______ _______ _____ _____    ______ ____
ROOT
ATOM      4  N   UNL     1      -1.272   2.030  25.392  0.00  0.00    -0.284 NA
ATOM      8  C   UNL     1      -0.902   2.224  23.976  0.00  0.00    +0.149 C 
ATOM      9  C   UNL     1      -0.583   3.726  23.853  0.00  0.00    +0.061 C 
ATOM     10  C   UNL     1      -0.847   4.299  25.241  0.00  0.00    +0.130 C 
ATOM     11  C   UNL     1      -1.815   3.305  25.856  0.00  0.00    +0.116 C 
ENDROOT
BRANCH   8  13
ATOM      2  O   UNL     1      -0.011   0.415  22.593  0.00  0.00    -0.336 OA
ATOM      5  N   UNL     1       1.494   1.339  23.971  0.00  0.00    -0.190 NA
ATOM      6  N   UNL     1       1.191  -0.267  22.371  0.00  0.00    -0.056 NA
ATOM     13  C   UNL     1       0.255   1.343  23.550  0.00  0.00    +0.245 A 
ATOM     17  C   UNL     1       2.030   0.334  23.219  0.00  0.00    +0.204 A 
BRANCH  17  20
ATOM      7  N   UNL     1       5.045  -1.736  23.888  0.00  0.00    -0.263 NA
ATOM     20  C   UNL     1       3.409  -0.043  23.340  0.00  0.00    +0.041 A 
ATOM     22  C   UNL     1       4.427   0.857  23.044  0.00  0.00    +0.014 A 
ATOM     23  C   UNL     1       3.767  -1.316  23.753  0.00  0.00    +0.122 A 
ATOM     25  C   UNL     1       5.754   0.462  23.170  0.00  0.00    +0.020 A 
ATOM     26  C   UNL     1       6.007  -0.834  23.592  0.00  0.00    +0.111 A 
ENDBRANCH  17  20
ENDBRANCH   8  13
BRANCH  10   1
ATOM      1  O   UNL     1      -1.410   5.593  25.150  0.00  0.00    -0.390 OA
ATOM     27  H   UNL     1      -1.349   6.000  26.031  0.00  0.00    +0.210 HD
ENDBRANCH  10   1
BRANCH   4  12
ATOM     12  C   UNL     1      -2.207   0.930  25.595  0.00  0.00    +0.124 C 
BRANCH  12  14
ATOM     14  C   UNL     1      -3.631   1.353  25.354  0.00  0.00    +0.008 A 
ATOM     15  C   UNL     1      -4.620   0.407  25.083  0.00  0.00    +0.124 A 
ATOM     16  C   UNL     1      -3.957   2.708  25.402  0.00  0.00    +0.008 A 
ATOM     18  C   UNL     1      -5.935   0.816  24.860  0.00  0.00    +0.046 A 
ATOM     19  C   UNL     1      -5.272   3.117  25.179  0.00  0.00    +0.001 A 
ATOM     21  C   UNL     1      -6.261   2.171  24.908  0.00  0.00    +0.004 A 
BRANCH  15   3
ATOM      3  O   UNL     1      -4.319  -0.921  25.032  0.00  0.00    -0.495 OA
ATOM     24  C   UNL     1      -3.984  -1.461  23.755  0.00  0.00    +0.277 C 
ENDBRANCH  15   3
ENDBRANCH  12  14
ENDBRANCH   4  12
TORSDOF 6
ENDMDL
MODEL 9
REMARK VINA RESULT:      -1.8      1.090      2.019
REMARK  Name = 26743976
REMARK  7 active torsions:
REMARK  status: ('A' for Active; 'I' for Inactive)
REMARK    1  A    between atoms: O_1  and  C_10
REMARK    2  A    between atoms: O_3  and  C_15
REMARK    3  A    between atoms: O_3  and  C_24
REMARK    4  A    between atoms: N_4  and  C_12
REMARK    5  A    between atoms: C_8  and  C_13
REMARK    6  A    between atoms: C_12  and  C_14
REMARK    7  A    between atoms: C_17  and  C_20
REMARK                            x       y       z     vdW  Elec       q    Type
REMARK                         _______ _______ _______ _____ _____    ______ ____
ROOT
ATOM      4  N   UNL     1      -3.762   1.803  24.778  0.00  0.00    -0.284 NA
ATOM      8  C   UNL     1      -3.006   3.070  24.721  0.00  0.00    +0.149 C 
ATOM      9  C   UNL     1      -3.907   4.100  25.427  0.00  0.00    +0.061 C 
ATOM     10  C   UNL     1      -5.166   3.329  25.805  0.00  0.00    +0.130 C 
ATOM     11  C   UNL     1      -5.177   2.168  24.827  0.00  0.00    +0.116 C 
ENDROOT
BRANCH   8  13
ATOM      2  O   UNL     1      -0.576   2.922  24.506  0.00  0.00    -0.336 OA
ATOM      5  N   UNL     1      -1.310   2.893  26.622  0.00  0.00    -0.190 NA
ATOM      6  N   UNL     1       0.564   2.819  25.313  0.00  0.00    -0.056 NA
ATOM     13  C   UNL     1      -1.635   2.960  25.356  0.00  0.00    +0.245 A 
ATOM     17  C   UNL     1       0.050   2.807  26.546  0.00  0.00    +0.204 A 
BRANCH  17  20
ATOM      7  N   UNL     1       1.037   2.199  30.078  0.00  0.00    -0.263 NA
ATOM     20  C   UNL     1       0.866   2.712  27.723  0.00  0.00    +0.041 A 
ATOM     22  C   UNL     1       2.221   3.019  27.682  0.00  0.00    +0.014 A 
ATOM     23  C   UNL     1       0.327   2.310  28.934  0.00  0.00    +0.122 A 
ATOM     25  C   UNL     1       2.986   2.917  28.839  0.00  0.00    +0.020 A 
ATOM     26  C   UNL     1       2.352   2.506  30.001  0.00  0.00    +0.111 A 
ENDBRANCH  17  20
ENDBRANCH   8  13
BRANCH  10   1
ATOM      1  O   UNL     1      -6.314   4.143  25.665  0.00  0.00    -0.390 OA
ATOM     27  H   UNL     1      -7.091   3.581  25.828  0.00  0.00    +0.210 HD
ENDBRANCH  10   1
BRANCH   4  12
ATOM     12  C   UNL     1      -3.465   0.908  23.668  0.00  0.00    +0.124 C 
BRANCH  12  14
ATOM     14  C   UNL     1      -2.626  -0.264  24.101  0.00  0.00    +0.008 A 
ATOM     15  C   UNL     1      -3.199  -1.522  24.286  0.00  0.00    +0.124 A 
ATOM     16  C   UNL     1      -1.261  -0.081  24.319  0.00  0.00    +0.008 A 
ATOM     18  C   UNL     1      -2.407  -2.597  24.690  0.00  0.00    +0.046 A 
ATOM     19  C   UNL     1      -0.468  -1.156  24.722  0.00  0.00    +0.001 A 
ATOM     21  C   UNL     1      -1.041  -2.414  24.908  0.00  0.00    +0.004 A 
BRANCH  15   3
ATOM      3  O   UNL     1      -4.531  -1.719  24.078  0.00  0.00    -0.495 OA
ATOM     24  C   UNL     1      -4.914  -2.931  23.429  0.00  0.00    +0.277 C 
ENDBRANCH  15   3
ENDBRANCH  12  14
ENDBRANCH   4  12
TORSDOF 6
ENDMDL
MODEL 10
REMARK VINA RESULT:      -1.5     17.356     20.131
REMARK  Name = 26743976
REMARK  7 active torsions:
REMARK  status: ('A' for Active; 'I' for Inactive)
REMARK    1  A    between atoms: O_1  and  C_10
REMARK    2  A    between atoms: O_3  and  C_15
REMARK    3  A    between atoms: O_3  and  C_24
REMARK    4  A    between atoms: N_4  and  C_12
REMARK    5  A    between atoms: C_8  and  C_13
REMARK    6  A    between atoms: C_12  and  C_14
REMARK    7  A    between atoms: C_17  and  C_20
REMARK                            x       y       z     vdW  Elec       q    Type
REMARK                         _______ _______ _______ _____ _____    ______ ____
ROOT
ATOM      4  N   UNL     1      14.429  -6.344  32.101  0.00  0.00    -0.284 NA
ATOM      8  C   UNL     1      14.002  -6.876  30.791  0.00  0.00    +0.149 C 
ATOM      9  C   UNL     1      12.600  -6.280  30.561  0.00  0.00    +0.061 C 
ATOM     10  C   UNL     1      12.308  -5.465  31.816  0.00  0.00    +0.130 C 
ATOM     11  C   UNL     1      13.208  -6.094  32.864  0.00  0.00    +0.116 C 
ENDROOT
BRANCH   8  13
ATOM      2  O   UNL     1      15.933  -5.621  29.973  0.00  0.00    -0.336 OA
ATOM      5  N   UNL     1      15.025  -6.994  28.454  0.00  0.00    -0.190 NA
ATOM      6  N   UNL     1      16.695  -5.472  28.807  0.00  0.00    -0.056 NA
ATOM     13  C   UNL     1      14.972  -6.535  29.679  0.00  0.00    +0.245 A 
ATOM     17  C   UNL     1      16.098  -6.313  27.958  0.00  0.00    +0.204 A 
BRANCH  17  20
ATOM      7  N   UNL     1      17.240  -8.006  24.852  0.00  0.00    -0.263 NA
ATOM     20  C   UNL     1      16.548  -6.497  26.608  0.00  0.00    +0.041 A 
ATOM     22  C   UNL     1      16.730  -5.412  25.758  0.00  0.00    +0.014 A 
ATOM     23  C   UNL     1      16.814  -7.762  26.111  0.00  0.00    +0.122 A 
ATOM     25  C   UNL     1      17.166  -5.622  24.455  0.00  0.00    +0.020 A 
ATOM     26  C   UNL     1      17.405  -6.927  24.054  0.00  0.00    +0.111 A 
ENDBRANCH  17  20
ENDBRANCH   8  13
BRANCH  10   1
ATOM      1  O   UNL     1      10.942  -5.562  32.170  0.00  0.00    -0.390 OA
ATOM     27  H   UNL     1      10.456  -5.852  31.379  0.00  0.00    +0.210 HD
ENDBRANCH  10   1
BRANCH   4  12
ATOM     12  C   UNL     1      15.345  -7.229  32.808  0.00  0.00    +0.124 C 
BRANCH  12  14
ATOM     14  C   UNL     1      15.715  -8.431  31.980  0.00  0.00    +0.008 A 
ATOM     15  C   UNL     1      14.940  -9.590  32.019  0.00  0.00    +0.124 A 
ATOM     16  C   UNL     1      16.847  -8.376  31.167  0.00  0.00    +0.008 A 
ATOM     18  C   UNL     1      15.297 -10.695  31.247  0.00  0.00    +0.046 A 
ATOM     19  C   UNL     1      17.204  -9.481  30.395  0.00  0.00    +0.001 A 
ATOM     21  C   UNL     1      16.430 -10.641  30.434  0.00  0.00    +0.004 A 
BRANCH  15   3
ATOM      3  O   UNL     1      13.831  -9.661  32.808  0.00  0.00    -0.495 OA
ATOM     24  C   UNL     1      12.637 -10.156  32.204  0.00  0.00    +0.277 C 
ENDBRANCH  15   3
ENDBRANCH  12  14
ENDBRANCH   4  12
TORSDOF 6
ENDMDL
