MODEL 1
REMARK VINA RESULT:       2.2      0.000      0.000
REMARK  Name = 11865554
REMARK  8 active torsions:
REMARK  status: ('A' for Active; 'I' for Inactive)
REMARK    1  A    between atoms: O_3  and  C_13
REMARK    2  A    between atoms: O_3  and  C_17
REMARK    3  A    between atoms: N_6  and  C_12
REMARK    4  A    between atoms: N_7  and  C_19
REMARK    5  A    between atoms: C_16  and  C_18
REMARK    6  A    between atoms: C_22  and  C_23
REMARK    7  A    between atoms: C_22  and  C_28
REMARK    8  A    between atoms: C_22  and  C_29
REMARK                            x       y       z     vdW  Elec       q    Type
REMARK                         _______ _______ _______ _____ _____    ______ ____
ROOT
ATOM      1  O   UNL     1      -2.642  -0.679  25.492  0.00  0.00    -0.368 OA
ATOM      2  O   UNL     1      -2.616  -3.584  24.512  0.00  0.00    -0.368 OA
ATOM     10  C   UNL     1      -1.757  -2.465  24.209  0.00  0.00    +0.173 C 
ATOM     11  C   UNL     1      -2.638  -1.234  24.166  0.00  0.00    +0.192 C 
ATOM     12  C   UNL     1      -0.820  -2.202  25.365  0.00  0.00    +0.130 C 
ATOM     13  C   UNL     1      -3.985  -1.809  23.797  0.00  0.00    +0.235 C 
ATOM     14  C   UNL     1      -1.690  -1.385  26.304  0.00  0.00    +0.185 C 
ATOM     15  C   UNL     1      -3.979  -3.132  24.528  0.00  0.00    +0.207 C 
ENDROOT
BRANCH  12   6
ATOM      4  O   UNL     1      -0.460  -0.893  22.835  0.00  0.00    -0.270 OA
ATOM      6  N   UNL     1       0.337  -1.454  24.939  0.00  0.00    -0.304 N 
ATOM     16  C   UNL     1       0.420  -0.854  23.690  0.00  0.00    +0.247 C 
ATOM     31  H   UNL     1       1.146  -1.462  25.552  0.00  0.00    +0.149 HD
BRANCH  16  18
ATOM      8  N   UNL     1       2.877   1.895  23.095  0.00  0.00    -0.243 NA
ATOM      9  N   UNL     1       4.007  -0.221  22.870  0.00  0.00    -0.243 NA
ATOM     18  C   UNL     1       1.690  -0.143  23.393  0.00  0.00    +0.073 A 
ATOM     20  C   UNL     1       1.741   1.217  23.362  0.00  0.00    +0.127 A 
ATOM     21  C   UNL     1       2.836  -0.834  23.143  0.00  0.00    +0.127 A 
ATOM     30  C   UNL     1       3.956   1.123  22.863  0.00  0.00    +0.221 A 
ENDBRANCH  16  18
ENDBRANCH  12   6
BRANCH  13   3
ATOM      3  O   UNL     1      -5.070  -0.995  24.184  0.00  0.00    -0.442 OA
BRANCH   3  17
ATOM      5  O   UNL     1      -5.317   0.617  25.788  0.00  0.00    -0.226 OA
ATOM      7  N   UNL     1      -3.774   0.847  24.043  0.00  0.00    -0.251 N 
ATOM     17  C   UNL     1      -4.763   0.215  24.772  0.00  0.00    +0.405 C 
ATOM     32  H   UNL     1      -3.436   0.351  23.222  0.00  0.00    +0.158 HD
BRANCH   7  19
ATOM     19  C   UNL     1      -3.171   2.099  24.296  0.00  0.00    +0.036 A 
ATOM     23  C   UNL     1      -1.989   4.557  24.792  0.00  0.00    -0.045 A 
ATOM     24  C   UNL     1      -1.789   2.192  24.342  0.00  0.00    +0.024 A 
ATOM     25  C   UNL     1      -3.974   3.212  24.493  0.00  0.00    +0.024 A 
ATOM     26  C   UNL     1      -1.194   3.428  24.592  0.00  0.00    +0.006 A 
ATOM     27  C   UNL     1      -3.379   4.449  24.742  0.00  0.00    +0.006 A 
BRANCH  23  22
ATOM     22  C   UNL     1      -1.353   5.880  25.058  0.00  0.00    +0.013 C 
ATOM     28  C   UNL     1       0.096   5.951  24.542  0.00  0.00    +0.012 C 
ATOM     29  C   UNL     1      -2.172   7.052  24.484  0.00  0.00    +0.012 C 
ENDBRANCH  23  22
ENDBRANCH   7  19
ENDBRANCH   3  17
ENDBRANCH  13   3
TORSDOF 6
ENDMDL
MODEL 2
REMARK VINA RESULT:       2.8      2.208      5.613
REMARK  Name = 11865554
REMARK  8 active torsions:
REMARK  status: ('A' for Active; 'I' for Inactive)
REMARK    1  A    between atoms: O_3  and  C_13
REMARK    2  A    between atoms: O_3  and  C_17
REMARK    3  A    between atoms: N_6  and  C_12
REMARK    4  A    between atoms: N_7  and  C_19
REMARK    5  A    between atoms: C_16  and  C_18
REMARK    6  A    between atoms: C_22  and  C_23
REMARK    7  A    between atoms: C_22  and  C_28
REMARK    8  A    between atoms: C_22  and  C_29
REMARK                            x       y       z     vdW  Elec       q    Type
REMARK                         _______ _______ _______ _____ _____    ______ ____
ROOT
ATOM      1  O   UNL     1      -0.937   1.721  24.872  0.00  0.00    -0.368 OA
ATOM      2  O   UNL     1      -0.542   4.467  23.567  0.00  0.00    -0.368 OA
ATOM     10  C   UNL     1       0.398   3.545  24.157  0.00  0.00    +0.173 C 
ATOM     11  C   UNL     1      -0.294   2.915  25.348  0.00  0.00    +0.192 C 
ATOM     12  C   UNL     1       0.643   2.383  23.223  0.00  0.00    +0.130 C 
ATOM     13  C   UNL     1      -1.299   3.972  25.739  0.00  0.00    +0.235 C 
ATOM     14  C   UNL     1      -0.547   1.484  23.510  0.00  0.00    +0.185 C 
ATOM     15  C   UNL     1      -1.711   4.533  24.397  0.00  0.00    +0.207 C 
ENDROOT
BRANCH  12   6
ATOM      4  O   UNL     1       1.725   0.076  21.901  0.00  0.00    -0.270 OA
ATOM      6  N   UNL     1       1.887   1.721  23.527  0.00  0.00    -0.304 N 
ATOM     16  C   UNL     1       2.329   0.606  22.828  0.00  0.00    +0.247 C 
ATOM     31  H   UNL     1       2.394   2.039  24.346  0.00  0.00    +0.149 HD
BRANCH  16  18
ATOM      8  N   UNL     1       4.853  -1.841  24.090  0.00  0.00    -0.243 NA
ATOM      9  N   UNL     1       5.939   0.278  23.723  0.00  0.00    -0.243 NA
ATOM     18  C   UNL     1       3.618   0.023  23.282  0.00  0.00    +0.073 A 
ATOM     20  C   UNL     1       3.699  -1.279  23.672  0.00  0.00    +0.127 A 
ATOM     21  C   UNL     1       4.752   0.775  23.317  0.00  0.00    +0.127 A 
ATOM     30  C   UNL     1       5.918  -1.017  24.089  0.00  0.00    +0.221 A 
ENDBRANCH  16  18
ENDBRANCH  12   6
BRANCH  13   3
ATOM      3  O   UNL     1      -2.398   3.465  26.461  0.00  0.00    -0.442 OA
BRANCH   3  17
ATOM      5  O   UNL     1      -4.249   2.793  25.298  0.00  0.00    -0.226 OA
ATOM      7  N   UNL     1      -2.562   1.286  25.899  0.00  0.00    -0.251 N 
ATOM     17  C   UNL     1      -3.179   2.520  25.828  0.00  0.00    +0.405 C 
ATOM     32  H   UNL     1      -1.668   1.259  26.384  0.00  0.00    +0.158 HD
BRANCH   7  19
ATOM     19  C   UNL     1      -3.017   0.053  25.381  0.00  0.00    +0.036 A 
ATOM     23  C   UNL     1      -3.912  -2.365  24.364  0.00  0.00    -0.045 A 
ATOM     24  C   UNL     1      -2.569  -1.130  25.946  0.00  0.00    +0.024 A 
ATOM     25  C   UNL     1      -3.905   0.050  24.317  0.00  0.00    +0.024 A 
ATOM     26  C   UNL     1      -3.018  -2.347  25.434  0.00  0.00    +0.006 A 
ATOM     27  C   UNL     1      -4.356  -1.166  23.805  0.00  0.00    +0.006 A 
BRANCH  23  22
ATOM     22  C   UNL     1      -4.394  -3.667  23.817  0.00  0.00    +0.013 C 
ATOM     28  C   UNL     1      -5.601  -3.499  22.875  0.00  0.00    +0.012 C 
ATOM     29  C   UNL     1      -3.279  -4.453  23.102  0.00  0.00    +0.012 C 
ENDBRANCH  23  22
ENDBRANCH   7  19
ENDBRANCH   3  17
ENDBRANCH  13   3
TORSDOF 6
ENDMDL
MODEL 3
REMARK VINA RESULT:       2.8      2.340      5.818
REMARK  Name = 11865554
REMARK  8 active torsions:
REMARK  status: ('A' for Active; 'I' for Inactive)
REMARK    1  A    between atoms: O_3  and  C_13
REMARK    2  A    between atoms: O_3  and  C_17
REMARK    3  A    between atoms: N_6  and  C_12
REMARK    4  A    between atoms: N_7  and  C_19
REMARK    5  A    between atoms: C_16  and  C_18
REMARK    6  A    between atoms: C_22  and  C_23
REMARK    7  A    between atoms: C_22  and  C_28
REMARK    8  A    between atoms: C_22  and  C_29
REMARK                            x       y       z     vdW  Elec       q    Type
REMARK                         _______ _______ _______ _____ _____    ______ ____
ROOT
ATOM      1  O   UNL     1      -3.463   3.403  24.074  0.00  0.00    -0.368 OA
ATOM      2  O   UNL     1      -2.101   5.404  25.955  0.00  0.00    -0.368 OA
ATOM     10  C   UNL     1      -1.641   4.159  25.388  0.00  0.00    +0.173 C 
ATOM     11  C   UNL     1      -2.833   3.225  25.353  0.00  0.00    +0.192 C 
ATOM     12  C   UNL     1      -1.288   4.351  23.932  0.00  0.00    +0.130 C 
ATOM     13  C   UNL     1      -3.693   3.752  26.478  0.00  0.00    +0.235 C 
ATOM     14  C   UNL     1      -2.645   4.254  23.256  0.00  0.00    +0.185 C 
ATOM     15  C   UNL     1      -3.460   5.243  26.387  0.00  0.00    +0.207 C 
ENDROOT
BRANCH  12   6
ATOM      4  O   UNL     1       0.172   2.492  25.561  0.00  0.00    -0.270 OA
ATOM      6  N   UNL     1      -0.396   3.317  23.469  0.00  0.00    -0.304 N 
ATOM     16  C   UNL     1       0.268   2.461  24.337  0.00  0.00    +0.247 C 
ATOM     31  H   UNL     1      -0.187   3.294  22.477  0.00  0.00    +0.149 HD
BRANCH  16  18
ATOM      8  N   UNL     1       1.496  -0.668  22.711  0.00  0.00    -0.243 NA
ATOM      9  N   UNL     1       3.344   0.859  22.956  0.00  0.00    -0.243 NA
ATOM     18  C   UNL     1       1.173   1.467  23.705  0.00  0.00    +0.073 A 
ATOM     20  C   UNL     1       0.703   0.258  23.288  0.00  0.00    +0.127 A 
ATOM     21  C   UNL     1       2.495   1.738  23.526  0.00  0.00    +0.127 A 
ATOM     30  C   UNL     1       2.787  -0.306  22.577  0.00  0.00    +0.221 A 
ENDBRANCH  16  18
ENDBRANCH  12   6
BRANCH  13   3
ATOM      3  O   UNL     1      -5.057   3.420  26.346  0.00  0.00    -0.442 OA
BRANCH   3  17
ATOM      5  O   UNL     1      -6.478   1.862  25.461  0.00  0.00    -0.226 OA
ATOM      7  N   UNL     1      -4.197   1.422  25.746  0.00  0.00    -0.251 N 
ATOM     17  C   UNL     1      -5.349   2.182  25.810  0.00  0.00    +0.405 C 
ATOM     32  H   UNL     1      -3.348   1.866  26.087  0.00  0.00    +0.158 HD
BRANCH   7  19
ATOM     19  C   UNL     1      -4.051   0.102  25.265  0.00  0.00    +0.036 A 
ATOM     23  C   UNL     1      -3.764  -2.488  24.320  0.00  0.00    -0.045 A 
ATOM     24  C   UNL     1      -4.437  -0.195  23.967  0.00  0.00    +0.024 A 
ATOM     25  C   UNL     1      -3.524  -0.871  26.099  0.00  0.00    +0.024 A 
ATOM     26  C   UNL     1      -4.293  -1.498  23.491  0.00  0.00    +0.006 A 
ATOM     27  C   UNL     1      -3.379  -2.175  25.624  0.00  0.00    +0.006 A 
BRANCH  23  22
ATOM     22  C   UNL     1      -3.609  -3.882  23.811  0.00  0.00    +0.013 C 
ATOM     28  C   UNL     1      -4.663  -4.241  22.748  0.00  0.00    +0.012 C 
ATOM     29  C   UNL     1      -2.196  -4.153  23.259  0.00  0.00    +0.012 C 
ENDBRANCH  23  22
ENDBRANCH   7  19
ENDBRANCH   3  17
ENDBRANCH  13   3
TORSDOF 6
ENDMDL
MODEL 4
REMARK VINA RESULT:       4.0      2.468      6.116
REMARK  Name = 11865554
REMARK  8 active torsions:
REMARK  status: ('A' for Active; 'I' for Inactive)
REMARK    1  A    between atoms: O_3  and  C_13
REMARK    2  A    between atoms: O_3  and  C_17
REMARK    3  A    between atoms: N_6  and  C_12
REMARK    4  A    between atoms: N_7  and  C_19
REMARK    5  A    between atoms: C_16  and  C_18
REMARK    6  A    between atoms: C_22  and  C_23
REMARK    7  A    between atoms: C_22  and  C_28
REMARK    8  A    between atoms: C_22  and  C_29
REMARK                            x       y       z     vdW  Elec       q    Type
REMARK                         _______ _______ _______ _____ _____    ______ ____
ROOT
ATOM      1  O   UNL     1      -3.673   2.924  26.184  0.00  0.00    -0.368 OA
ATOM      2  O   UNL     1      -6.432   3.869  25.236  0.00  0.00    -0.368 OA
ATOM     10  C   UNL     1      -5.615   2.749  24.835  0.00  0.00    +0.173 C 
ATOM     11  C   UNL     1      -4.176   3.221  24.870  0.00  0.00    +0.192 C 
ATOM     12  C   UNL     1      -5.667   1.665  25.885  0.00  0.00    +0.130 C 
ATOM     13  C   UNL     1      -4.314   4.708  24.647  0.00  0.00    +0.235 C 
ATOM     14  C   UNL     1      -4.648   2.151  26.901  0.00  0.00    +0.185 C 
ATOM     15  C   UNL     1      -5.594   5.024  25.387  0.00  0.00    +0.207 C 
ENDROOT
BRANCH  12   6
ATOM      4  O   UNL     1      -3.008   0.603  25.679  0.00  0.00    -0.270 OA
ATOM      6  N   UNL     1      -5.291   0.386  25.336  0.00  0.00    -0.304 N 
ATOM     16  C   UNL     1      -3.972  -0.043  25.278  0.00  0.00    +0.247 C 
ATOM     31  H   UNL     1      -6.021  -0.162  24.894  0.00  0.00    +0.149 HD
BRANCH  16  18
ATOM      8  N   UNL     1      -4.556  -3.192  23.358  0.00  0.00    -0.243 NA
ATOM      9  N   UNL     1      -2.315  -3.225  24.244  0.00  0.00    -0.243 NA
ATOM     18  C   UNL     1      -3.746  -1.374  24.658  0.00  0.00    +0.073 A 
ATOM     20  C   UNL     1      -4.726  -1.984  23.935  0.00  0.00    +0.127 A 
ATOM     21  C   UNL     1      -2.554  -2.016  24.794  0.00  0.00    +0.127 A 
ATOM     30  C   UNL     1      -3.343  -3.747  23.550  0.00  0.00    +0.221 A 
ENDBRANCH  16  18
ENDBRANCH  12   6
BRANCH  13   3
ATOM      3  O   UNL     1      -3.222   5.455  25.135  0.00  0.00    -0.442 OA
BRANCH   3  17
ATOM      5  O   UNL     1      -0.943   5.619  25.032  0.00  0.00    -0.226 OA
ATOM      7  N   UNL     1      -2.061   3.645  24.452  0.00  0.00    -0.251 N 
ATOM     17  C   UNL     1      -1.961   4.955  24.881  0.00  0.00    +0.405 C 
ATOM     32  H   UNL     1      -3.002   3.264  24.390  0.00  0.00    +0.158 HD
BRANCH   7  19
ATOM     19  C   UNL     1      -1.016   2.767  24.088  0.00  0.00    +0.036 A 
ATOM     23  C   UNL     1       1.035   1.044  23.373  0.00  0.00    -0.045 A 
ATOM     24  C   UNL     1      -1.285   1.706  23.238  0.00  0.00    +0.024 A 
ATOM     25  C   UNL     1       0.259   2.983  24.587  0.00  0.00    +0.024 A 
ATOM     26  C   UNL     1      -0.253   0.839  22.878  0.00  0.00    +0.006 A 
ATOM     27  C   UNL     1       1.291   2.117  24.227  0.00  0.00    +0.006 A 
BRANCH  23  22
ATOM     22  C   UNL     1       2.139   0.117  22.988  0.00  0.00    +0.013 C 
ATOM     28  C   UNL     1       1.833  -0.654  21.691  0.00  0.00    +0.012 C 
ATOM     29  C   UNL     1       3.494   0.838  22.861  0.00  0.00    +0.012 C 
ENDBRANCH  23  22
ENDBRANCH   7  19
ENDBRANCH   3  17
ENDBRANCH  13   3
TORSDOF 6
ENDMDL
MODEL 5
REMARK VINA RESULT:       4.0      2.085      5.296
REMARK  Name = 11865554
REMARK  8 active torsions:
REMARK  status: ('A' for Active; 'I' for Inactive)
REMARK    1  A    between atoms: O_3  and  C_13
REMARK    2  A    between atoms: O_3  and  C_17
REMARK    3  A    between atoms: N_6  and  C_12
REMARK    4  A    between atoms: N_7  and  C_19
REMARK    5  A    between atoms: C_16  and  C_18
REMARK    6  A    between atoms: C_22  and  C_23
REMARK    7  A    between atoms: C_22  and  C_28
REMARK    8  A    between atoms: C_22  and  C_29
REMARK                            x       y       z     vdW  Elec       q    Type
REMARK                         _______ _______ _______ _____ _____    ______ ____
ROOT
ATOM      1  O   UNL     1      -2.103  -0.852  23.810  0.00  0.00    -0.368 OA
ATOM      2  O   UNL     1      -3.538  -3.333  24.900  0.00  0.00    -0.368 OA
ATOM     10  C   UNL     1      -3.661  -1.934  25.232  0.00  0.00    +0.173 C 
ATOM     11  C   UNL     1      -2.270  -1.339  25.152  0.00  0.00    +0.192 C 
ATOM     12  C   UNL     1      -4.429  -1.210  24.151  0.00  0.00    +0.130 C 
ATOM     13  C   UNL     1      -1.388  -2.534  25.427  0.00  0.00    +0.235 C 
ATOM     14  C   UNL     1      -3.353  -0.953  23.110  0.00  0.00    +0.185 C 
ATOM     15  C   UNL     1      -2.146  -3.653  24.751  0.00  0.00    +0.207 C 
ENDROOT
BRANCH  12   6
ATOM      4  O   UNL     1      -3.481   1.443  23.595  0.00  0.00    -0.270 OA
ATOM      6  N   UNL     1      -4.987   0.025  24.644  0.00  0.00    -0.304 N 
ATOM     16  C   UNL     1      -4.457   1.266  24.319  0.00  0.00    +0.247 C 
ATOM     31  H   UNL     1      -5.733  -0.044  25.328  0.00  0.00    +0.149 HD
BRANCH  16  18
ATOM      8  N   UNL     1      -5.275   4.796  25.222  0.00  0.00    -0.243 NA
ATOM      9  N   UNL     1      -6.838   3.328  26.322  0.00  0.00    -0.243 NA
ATOM     18  C   UNL     1      -5.129   2.442  24.930  0.00  0.00    +0.073 A 
ATOM     20  C   UNL     1      -4.689   3.707  24.684  0.00  0.00    +0.127 A 
ATOM     21  C   UNL     1      -6.204   2.284  25.751  0.00  0.00    +0.127 A 
ATOM     30  C   UNL     1      -6.330   4.537  26.019  0.00  0.00    +0.221 A 
ENDBRANCH  16  18
ENDBRANCH  12   6
BRANCH  13   3
ATOM      3  O   UNL     1      -0.080  -2.397  24.918  0.00  0.00    -0.442 OA
BRANCH   3  17
ATOM      5  O   UNL     1       1.204  -0.949  23.700  0.00  0.00    -0.226 OA
ATOM      7  N   UNL     1      -0.488  -0.188  25.126  0.00  0.00    -0.251 N 
ATOM     17  C   UNL     1       0.299  -1.137  24.503  0.00  0.00    +0.405 C 
ATOM     32  H   UNL     1      -1.195  -0.542  25.767  0.00  0.00    +0.158 HD
BRANCH   7  19
ATOM     19  C   UNL     1      -0.434   1.217  24.985  0.00  0.00    +0.036 A 
ATOM     23  C   UNL     1      -0.329   3.973  24.708  0.00  0.00    -0.045 A 
ATOM     24  C   UNL     1       0.134   1.764  23.846  0.00  0.00    +0.024 A 
ATOM     25  C   UNL     1      -0.951   2.021  25.988  0.00  0.00    +0.024 A 
ATOM     26  C   UNL     1       0.188   3.151  23.706  0.00  0.00    +0.006 A 
ATOM     27  C   UNL     1      -0.899   3.408  25.849  0.00  0.00    +0.006 A 
BRANCH  23  22
ATOM     22  C   UNL     1      -0.272   5.456  24.558  0.00  0.00    +0.013 C 
ATOM     28  C   UNL     1       0.132   5.890  23.137  0.00  0.00    +0.012 C 
ATOM     29  C   UNL     1      -1.596   6.138  24.957  0.00  0.00    +0.012 C 
ENDBRANCH  23  22
ENDBRANCH   7  19
ENDBRANCH   3  17
ENDBRANCH  13   3
TORSDOF 6
ENDMDL
