MODEL 1
REMARK VINA RESULT:      -1.5      0.000      0.000
REMARK  Name = 9419217
REMARK  3 active torsions:
REMARK  status: ('A' for Active; 'I' for Inactive)
REMARK    1  A    between atoms: C_14  and  C_19
REMARK    2  A    between atoms: C_16  and  C_20
REMARK    3  A    between atoms: C_24  and  C_29
REMARK                            x       y       z     vdW  Elec       q    Type
REMARK                         _______ _______ _______ _____ _____    ______ ____
ROOT
ATOM      1  O   UNL     1      -2.411   4.176  27.176  0.00  0.00    -0.268 OA
ATOM      2  O   UNL     1      -5.024   0.615  25.887  0.00  0.00    -0.267 OA
ATOM      4  N   UNL     1      -2.218   3.182  25.065  0.00  0.00    -0.311 N 
ATOM      5  N   UNL     1      -4.084   0.983  23.778  0.00  0.00    -0.294 N 
ATOM      7  C   UNL     1      -4.062   3.418  23.298  0.00  0.00    +0.027 C 
ATOM      8  C   UNL     1      -2.063   2.067  22.818  0.00  0.00    +0.054 C 
ATOM      9  C   UNL     1      -2.932   3.214  22.301  0.00  0.00    +0.018 C 
ATOM     10  C   UNL     1      -3.458   3.845  24.636  0.00  0.00    +0.130 C 
ATOM     11  C   UNL     1      -4.907   2.139  23.428  0.00  0.00    +0.113 C 
ATOM     12  C   UNL     1      -2.912   0.780  22.914  0.00  0.00    +0.117 C 
ATOM     13  C   UNL     1      -1.452   2.394  24.182  0.00  0.00    +0.034 A 
ATOM     14  C   UNL     1      -0.236   1.929  24.571  0.00  0.00    +0.002 A 
ATOM     15  C   UNL     1      -1.789   3.483  26.370  0.00  0.00    +0.252 A 
ATOM     16  C   UNL     1      -4.419   0.213  24.894  0.00  0.00    +0.282 C 
ATOM     17  C   UNL     1       0.237   2.217  25.911  0.00  0.00    +0.015 A 
ATOM     18  C   UNL     1      -0.478   2.931  26.780  0.00  0.00    +0.071 A 
ENDROOT
BRANCH  14  19
ATOM     19  C   UNL     1       0.613   1.121  23.668  0.00  0.00    -0.015 A 
ATOM     21  C   UNL     1       1.999   1.201  23.766  0.00  0.00    +0.027 A 
ATOM     22  C   UNL     1       0.020   0.285  22.726  0.00  0.00    +0.008 A 
ATOM     24  C   UNL     1       2.799   0.439  22.914  0.00  0.00    +0.052 A 
ATOM     25  C   UNL     1       0.819  -0.477  21.875  0.00  0.00    +0.002 A 
ATOM     26  C   UNL     1       2.209  -0.400  21.969  0.00  0.00    +0.019 A 
BRANCH  24  29
ATOM      6  N   UNL     1       5.380   0.581  23.087  0.00  0.00    -0.191 NA
ATOM     29  C   UNL     1       4.223   0.517  23.009  0.00  0.00    +0.099 C 
ENDBRANCH  24  29
ENDBRANCH  14  19
BRANCH  16  20
ATOM      3  O   UNL     1      -4.411  -1.981  23.889  0.00  0.00    -0.458 OA
ATOM     20  C   UNL     1      -4.006  -1.196  24.914  0.00  0.00    +0.189 A 
ATOM     23  C   UNL     1      -3.255  -1.902  25.815  0.00  0.00    +0.054 A 
ATOM     27  C   UNL     1      -3.189  -3.223  25.309  0.00  0.00    +0.042 A 
ATOM     28  C   UNL     1      -3.908  -3.219  24.137  0.00  0.00    +0.196 A 
ENDBRANCH  16  20
TORSDOF 3
ENDMDL
