MODEL 1
REMARK VINA RESULT:      -7.2      0.000      0.000
REMARK  Name = 56775024
REMARK  6 active torsions:
REMARK  status: ('A' for Active; 'I' for Inactive)
REMARK    1  A    between atoms: N_3  and  C_10
REMARK    2  A    between atoms: N_4  and  C_14
REMARK    3  A    between atoms: C_10  and  C_11
REMARK    4  A    between atoms: C_11  and  C_15
REMARK    5  A    between atoms: C_11  and  C_16
REMARK    6  A    between atoms: C_14  and  C_17
REMARK                            x       y       z     vdW  Elec       q    Type
REMARK                         _______ _______ _______ _____ _____    ______ ____
ROOT
ATOM      1  O   UNL     1       0.298   1.399  25.118  0.00  0.00    -0.364 OA
ATOM      2  O   UNL     1      -1.545   4.399  24.960  0.00  0.00    -0.273 OA
ATOM      3  N   UNL     1      -1.371  -1.185  23.939  0.00  0.00    -0.298 NA
ATOM      4  N   UNL     1      -1.870   2.427  23.767  0.00  0.00    -0.288 N 
ATOM      6  C   UNL     1      -1.419   1.074  23.455  0.00  0.00    +0.120 C 
ATOM      7  C   UNL     1       0.012   0.758  23.879  0.00  0.00    +0.154 C 
ATOM      8  C   UNL     1      -2.213  -0.013  24.174  0.00  0.00    +0.109 C 
ATOM      9  C   UNL     1       0.023  -0.755  24.122  0.00  0.00    +0.118 C 
ATOM     12  C   UNL     1      -1.158   3.286  24.598  0.00  0.00    +0.242 C 
ATOM     13  C   UNL     1       0.220   2.800  24.993  0.00  0.00    +0.256 C 
ENDROOT
BRANCH   3  10
ATOM     10  C   UNL     1      -1.728  -2.314  24.783  0.00  0.00    +0.087 C 
BRANCH  10  11
ATOM     11  C   UNL     1      -3.238  -2.372  25.077  0.00  0.00    -0.003 C 
ATOM     15  C   UNL     1      -4.090  -2.107  23.833  0.00  0.00    +0.008 C 
ATOM     16  C   UNL     1      -3.591  -1.357  26.168  0.00  0.00    +0.008 C 
ENDBRANCH  10  11
ENDBRANCH   3  10
BRANCH   4  14
ATOM     14  C   UNL     1      -3.171   2.829  23.244  0.00  0.00    +0.143 C 
BRANCH  14  17
ATOM      5  N   UNL     1      -6.229   2.675  26.256  0.00  0.00    -0.263 NA
ATOM     17  C   UNL     1      -4.239   2.776  24.296  0.00  0.00    -0.027 A 
ATOM     18  C   UNL     1      -4.603   3.930  24.980  0.00  0.00    +0.025 A 
ATOM     19  C   UNL     1      -4.868   1.571  24.591  0.00  0.00    +0.025 A 
ATOM     20  C   UNL     1      -5.595   3.827  25.942  0.00  0.00    +0.111 A 
ATOM     21  C   UNL     1      -5.848   1.573  25.571  0.00  0.00    +0.111 A 
ENDBRANCH  14  17
ENDBRANCH   4  14
TORSDOF 4
ENDMDL
MODEL 2
REMARK VINA RESULT:      -7.0      1.794      4.791
REMARK  Name = 56775024
REMARK  6 active torsions:
REMARK  status: ('A' for Active; 'I' for Inactive)
REMARK    1  A    between atoms: N_3  and  C_10
REMARK    2  A    between atoms: N_4  and  C_14
REMARK    3  A    between atoms: C_10  and  C_11
REMARK    4  A    between atoms: C_11  and  C_15
REMARK    5  A    between atoms: C_11  and  C_16
REMARK    6  A    between atoms: C_14  and  C_17
REMARK                            x       y       z     vdW  Elec       q    Type
REMARK                         _______ _______ _______ _____ _____    ______ ____
ROOT
ATOM      1  O   UNL     1       0.117   2.650  23.833  0.00  0.00    -0.364 OA
ATOM      2  O   UNL     1       0.320  -0.853  23.507  0.00  0.00    -0.273 OA
ATOM      3  N   UNL     1      -2.098   3.594  26.082  0.00  0.00    -0.298 NA
ATOM      4  N   UNL     1      -0.532   0.396  25.276  0.00  0.00    -0.288 N 
ATOM      6  C   UNL     1      -0.779   1.708  25.866  0.00  0.00    +0.120 C 
ATOM      7  C   UNL     1       0.008   2.855  25.238  0.00  0.00    +0.154 C 
ATOM      8  C   UNL     1      -2.220   2.185  25.707  0.00  0.00    +0.109 C 
ATOM      9  C   UNL     1      -0.863   4.096  25.464  0.00  0.00    +0.118 C 
ATOM     12  C   UNL     1       0.168   0.224  24.086  0.00  0.00    +0.242 C 
ATOM     13  C   UNL     1       0.835   1.472  23.549  0.00  0.00    +0.256 C 
ENDROOT
BRANCH   3  10
ATOM     10  C   UNL     1      -3.269   4.376  25.719  0.00  0.00    +0.087 C 
BRANCH  10  11
ATOM     11  C   UNL     1      -4.356   3.524  25.039  0.00  0.00    -0.003 C 
ATOM     15  C   UNL     1      -4.252   3.549  23.511  0.00  0.00    +0.008 C 
ATOM     16  C   UNL     1      -5.741   4.016  25.467  0.00  0.00    +0.008 C 
ENDBRANCH  10  11
ENDBRANCH   3  10
BRANCH   4  14
ATOM     14  C   UNL     1      -1.137  -0.753  25.940  0.00  0.00    +0.143 C 
BRANCH  14  17
ATOM      5  N   UNL     1      -4.536  -2.246  23.778  0.00  0.00    -0.263 NA
ATOM     17  C   UNL     1      -2.325  -1.275  25.185  0.00  0.00    -0.027 A 
ATOM     18  C   UNL     1      -2.376  -2.610  24.802  0.00  0.00    +0.025 A 
ATOM     19  C   UNL     1      -3.378  -0.424  24.866  0.00  0.00    +0.025 A 
ATOM     20  C   UNL     1      -3.494  -3.042  24.107  0.00  0.00    +0.111 A 
ATOM     21  C   UNL     1      -4.451  -0.954  24.167  0.00  0.00    +0.111 A 
ENDBRANCH  14  17
ENDBRANCH   4  14
TORSDOF 4
ENDMDL
MODEL 3
REMARK VINA RESULT:      -7.0      1.697      4.308
REMARK  Name = 56775024
REMARK  6 active torsions:
REMARK  status: ('A' for Active; 'I' for Inactive)
REMARK    1  A    between atoms: N_3  and  C_10
REMARK    2  A    between atoms: N_4  and  C_14
REMARK    3  A    between atoms: C_10  and  C_11
REMARK    4  A    between atoms: C_11  and  C_15
REMARK    5  A    between atoms: C_11  and  C_16
REMARK    6  A    between atoms: C_14  and  C_17
REMARK                            x       y       z     vdW  Elec       q    Type
REMARK                         _______ _______ _______ _____ _____    ______ ____
ROOT
ATOM      1  O   UNL     1      -2.416   4.031  25.965  0.00  0.00    -0.364 OA
ATOM      2  O   UNL     1      -5.620   2.736  26.655  0.00  0.00    -0.273 OA
ATOM      3  N   UNL     1      -0.768   2.239  23.745  0.00  0.00    -0.298 NA
ATOM      4  N   UNL     1      -4.259   2.343  24.808  0.00  0.00    -0.288 N 
ATOM      6  C   UNL     1      -3.019   2.632  24.094  0.00  0.00    +0.120 C 
ATOM      7  C   UNL     1      -2.289   3.890  24.553  0.00  0.00    +0.154 C 
ATOM      8  C   UNL     1      -1.949   1.558  24.275  0.00  0.00    +0.109 C 
ATOM      9  C   UNL     1      -0.813   3.622  24.241  0.00  0.00    +0.118 C 
ATOM     12  C   UNL     1      -4.631   3.008  25.972  0.00  0.00    +0.242 C 
ATOM     13  C   UNL     1      -3.765   4.195  26.337  0.00  0.00    +0.256 C 
ENDROOT
BRANCH   3  10
ATOM     10  C   UNL     1       0.472   1.558  24.080  0.00  0.00    +0.087 C 
BRANCH  10  11
ATOM     11  C   UNL     1       0.627   0.220  23.336  0.00  0.00    -0.003 C 
ATOM     15  C   UNL     1       0.187  -0.978  24.182  0.00  0.00    +0.008 C 
ATOM     16  C   UNL     1       2.084   0.036  22.903  0.00  0.00    +0.008 C 
ENDBRANCH  10  11
ENDBRANCH   3  10
BRANCH   4  14
ATOM     14  C   UNL     1      -5.073   1.243  24.304  0.00  0.00    +0.143 C 
BRANCH  14  17
ATOM      5  N   UNL     1      -3.322  -2.581  25.176  0.00  0.00    -0.263 NA
ATOM     17  C   UNL     1      -4.461  -0.093  24.608  0.00  0.00    -0.027 A 
ATOM     18  C   UNL     1      -4.434  -1.085  23.636  0.00  0.00    +0.025 A 
ATOM     19  C   UNL     1      -3.920  -0.343  25.865  0.00  0.00    +0.025 A 
ATOM     20  C   UNL     1      -3.858  -2.302  23.966  0.00  0.00    +0.111 A 
ATOM     21  C   UNL     1      -3.367  -1.592  26.096  0.00  0.00    +0.111 A 
ENDBRANCH  14  17
ENDBRANCH   4  14
TORSDOF 4
ENDMDL
MODEL 4
REMARK VINA RESULT:      -5.9      2.477      4.328
REMARK  Name = 56775024
REMARK  6 active torsions:
REMARK  status: ('A' for Active; 'I' for Inactive)
REMARK    1  A    between atoms: N_3  and  C_10
REMARK    2  A    between atoms: N_4  and  C_14
REMARK    3  A    between atoms: C_10  and  C_11
REMARK    4  A    between atoms: C_11  and  C_15
REMARK    5  A    between atoms: C_11  and  C_16
REMARK    6  A    between atoms: C_14  and  C_17
REMARK                            x       y       z     vdW  Elec       q    Type
REMARK                         _______ _______ _______ _____ _____    ______ ____
ROOT
ATOM      1  O   UNL     1      -1.390  -2.350  24.605  0.00  0.00    -0.364 OA
ATOM      2  O   UNL     1      -4.725  -1.578  23.767  0.00  0.00    -0.273 OA
ATOM      3  N   UNL     1       0.731  -0.003  23.684  0.00  0.00    -0.298 NA
ATOM      4  N   UNL     1      -2.907  -0.140  23.970  0.00  0.00    -0.288 N 
ATOM      6  C   UNL     1      -1.497   0.042  24.301  0.00  0.00    +0.120 C 
ATOM      7  C   UNL     1      -0.861  -1.112  25.072  0.00  0.00    +0.154 C 
ATOM      8  C   UNL     1      -0.592   0.143  23.076  0.00  0.00    +0.109 C 
ATOM      9  C   UNL     1       0.623  -1.065  24.694  0.00  0.00    +0.118 C 
ATOM     12  C   UNL     1      -3.565  -1.357  24.118  0.00  0.00    +0.242 C 
ATOM     13  C   UNL     1      -2.777  -2.428  24.841  0.00  0.00    +0.256 C 
ENDROOT
BRANCH   3  10
ATOM     10  C   UNL     1       1.775  -0.258  22.705  0.00  0.00    +0.087 C 
BRANCH  10  11
ATOM     11  C   UNL     1       3.175   0.108  23.231  0.00  0.00    -0.003 C 
ATOM     15  C   UNL     1       3.968   0.967  22.243  0.00  0.00    +0.008 C 
ATOM     16  C   UNL     1       3.958  -1.169  23.547  0.00  0.00    +0.008 C 
ENDBRANCH  10  11
ENDBRANCH   3  10
BRANCH   4  14
ATOM     14  C   UNL     1      -3.599   0.996  23.374  0.00  0.00    +0.143 C 
BRANCH  14  17
ATOM      5  N   UNL     1      -5.141   3.682  26.350  0.00  0.00    -0.263 NA
ATOM     17  C   UNL     1      -4.137   1.934  24.414  0.00  0.00    -0.027 A 
ATOM     18  C   UNL     1      -5.391   1.711  24.973  0.00  0.00    +0.025 A 
ATOM     19  C   UNL     1      -3.385   3.031  24.822  0.00  0.00    +0.025 A 
ATOM     20  C   UNL     1      -5.843   2.606  25.929  0.00  0.00    +0.111 A 
ATOM     21  C   UNL     1      -3.927   3.868  25.785  0.00  0.00    +0.111 A 
ENDBRANCH  14  17
ENDBRANCH   4  14
TORSDOF 4
ENDMDL
MODEL 5
REMARK VINA RESULT:      -5.6      1.755      4.463
REMARK  Name = 56775024
REMARK  6 active torsions:
REMARK  status: ('A' for Active; 'I' for Inactive)
REMARK    1  A    between atoms: N_3  and  C_10
REMARK    2  A    between atoms: N_4  and  C_14
REMARK    3  A    between atoms: C_10  and  C_11
REMARK    4  A    between atoms: C_11  and  C_15
REMARK    5  A    between atoms: C_11  and  C_16
REMARK    6  A    between atoms: C_14  and  C_17
REMARK                            x       y       z     vdW  Elec       q    Type
REMARK                         _______ _______ _______ _____ _____    ______ ____
ROOT
ATOM      1  O   UNL     1      -4.259   3.957  24.453  0.00  0.00    -0.364 OA
ATOM      2  O   UNL     1      -0.948   5.141  24.687  0.00  0.00    -0.273 OA
ATOM      3  N   UNL     1      -4.526   0.763  25.214  0.00  0.00    -0.298 NA
ATOM      4  N   UNL     1      -1.887   3.245  25.658  0.00  0.00    -0.288 N 
ATOM      6  C   UNL     1      -3.072   2.426  25.892  0.00  0.00    +0.120 C 
ATOM      7  C   UNL     1      -4.401   3.115  25.593  0.00  0.00    +0.154 C 
ATOM      8  C   UNL     1      -3.145   1.191  24.998  0.00  0.00    +0.109 C 
ATOM      9  C   UNL     1      -5.355   1.976  25.218  0.00  0.00    +0.118 C 
ATOM     12  C   UNL     1      -1.932   4.463  24.986  0.00  0.00    +0.242 C 
ATOM     13  C   UNL     1      -3.324   4.983  24.696  0.00  0.00    +0.256 C 
ENDROOT
BRANCH   3  10
ATOM     10  C   UNL     1      -4.969  -0.220  24.239  0.00  0.00    +0.087 C 
BRANCH  10  11
ATOM     11  C   UNL     1      -4.003  -1.413  24.127  0.00  0.00    -0.003 C 
ATOM     15  C   UNL     1      -4.626  -2.609  23.401  0.00  0.00    +0.008 C 
ATOM     16  C   UNL     1      -3.547  -1.841  25.524  0.00  0.00    +0.008 C 
ENDBRANCH  10  11
ENDBRANCH   3  10
BRANCH   4  14
ATOM     14  C   UNL     1      -0.605   2.690  26.076  0.00  0.00    +0.143 C 
BRANCH  14  17
ATOM      5  N   UNL     1       0.682  -0.495  23.497  0.00  0.00    -0.263 NA
ATOM     17  C   UNL     1      -0.155   1.578  25.175  0.00  0.00    -0.027 A 
ATOM     18  C   UNL     1       0.652   1.852  24.076  0.00  0.00    +0.025 A 
ATOM     19  C   UNL     1      -0.544   0.268  25.435  0.00  0.00    +0.025 A 
ATOM     20  C   UNL     1       1.039   0.790  23.275  0.00  0.00    +0.111 A 
ATOM     21  C   UNL     1      -0.103  -0.724  24.573  0.00  0.00    +0.111 A 
ENDBRANCH  14  17
ENDBRANCH   4  14
TORSDOF 4
ENDMDL
MODEL 6
REMARK VINA RESULT:      -5.2      1.922      5.198
REMARK  Name = 56775024
REMARK  6 active torsions:
REMARK  status: ('A' for Active; 'I' for Inactive)
REMARK    1  A    between atoms: N_3  and  C_10
REMARK    2  A    between atoms: N_4  and  C_14
REMARK    3  A    between atoms: C_10  and  C_11
REMARK    4  A    between atoms: C_11  and  C_15
REMARK    5  A    between atoms: C_11  and  C_16
REMARK    6  A    between atoms: C_14  and  C_17
REMARK                            x       y       z     vdW  Elec       q    Type
REMARK                         _______ _______ _______ _____ _____    ______ ____
ROOT
ATOM      1  O   UNL     1      -4.552   3.913  25.592  0.00  0.00    -0.364 OA
ATOM      2  O   UNL     1      -6.547   1.178  26.569  0.00  0.00    -0.273 OA
ATOM      3  N   UNL     1      -2.027   3.026  23.670  0.00  0.00    -0.298 NA
ATOM      4  N   UNL     1      -5.062   1.330  24.783  0.00  0.00    -0.288 N 
ATOM      6  C   UNL     1      -4.139   2.146  24.001  0.00  0.00    +0.120 C 
ATOM      7  C   UNL     1      -4.262   3.651  24.222  0.00  0.00    +0.154 C 
ATOM      8  C   UNL     1      -2.671   1.894  24.336  0.00  0.00    +0.109 C 
ATOM      9  C   UNL     1      -2.865   4.206  23.924  0.00  0.00    +0.118 C 
ATOM     12  C   UNL     1      -5.826   1.846  25.826  0.00  0.00    +0.242 C 
ATOM     13  C   UNL     1      -5.790   3.353  25.963  0.00  0.00    +0.256 C 
ENDROOT
BRANCH   3  10
ATOM     10  C   UNL     1      -0.647   3.213  24.087  0.00  0.00    +0.087 C 
BRANCH  10  11
ATOM     11  C   UNL     1      -0.122   2.036  24.928  0.00  0.00    -0.003 C 
ATOM     15  C   UNL     1       0.349   2.471  26.319  0.00  0.00    +0.008 C 
ATOM     16  C   UNL     1       1.027   1.344  24.189  0.00  0.00    +0.008 C 
ENDBRANCH  10  11
ENDBRANCH   3  10
BRANCH   4  14
ATOM     14  C   UNL     1      -5.092  -0.098  24.494  0.00  0.00    +0.143 C 
BRANCH  14  17
ATOM      5  N   UNL     1      -1.330  -1.989  25.344  0.00  0.00    -0.263 NA
ATOM     17  C   UNL     1      -3.777  -0.759  24.790  0.00  0.00    -0.027 A 
ATOM     18  C   UNL     1      -3.234  -1.667  23.889  0.00  0.00    +0.025 A 
ATOM     19  C   UNL     1      -3.099  -0.465  25.968  0.00  0.00    +0.025 A 
ATOM     20  C   UNL     1      -2.018  -2.250  24.209  0.00  0.00    +0.111 A 
ATOM     21  C   UNL     1      -1.889  -1.102  26.196  0.00  0.00    +0.111 A 
ENDBRANCH  14  17
ENDBRANCH   4  14
TORSDOF 4
ENDMDL
MODEL 7
REMARK VINA RESULT:      -5.0      2.175      4.342
REMARK  Name = 56775024
REMARK  6 active torsions:
REMARK  status: ('A' for Active; 'I' for Inactive)
REMARK    1  A    between atoms: N_3  and  C_10
REMARK    2  A    between atoms: N_4  and  C_14
REMARK    3  A    between atoms: C_10  and  C_11
REMARK    4  A    between atoms: C_11  and  C_15
REMARK    5  A    between atoms: C_11  and  C_16
REMARK    6  A    between atoms: C_14  and  C_17
REMARK                            x       y       z     vdW  Elec       q    Type
REMARK                         _______ _______ _______ _____ _____    ______ ____
ROOT
ATOM      1  O   UNL     1      -1.526  -2.037  24.893  0.00  0.00    -0.364 OA
ATOM      2  O   UNL     1      -4.605  -2.711  23.316  0.00  0.00    -0.273 OA
ATOM      3  N   UNL     1      -1.113   1.162  25.567  0.00  0.00    -0.298 NA
ATOM      4  N   UNL     1      -3.993  -0.853  24.577  0.00  0.00    -0.288 N 
ATOM      6  C   UNL     1      -2.986  -0.182  25.395  0.00  0.00    +0.120 C 
ATOM      7  C   UNL     1      -1.859  -1.081  25.895  0.00  0.00    +0.154 C 
ATOM      8  C   UNL     1      -2.219   0.904  24.645  0.00  0.00    +0.109 C 
ATOM      9  C   UNL     1      -0.658  -0.144  26.065  0.00  0.00    +0.118 C 
ATOM     12  C   UNL     1      -3.825  -2.142  24.082  0.00  0.00    +0.242 C 
ATOM     13  C   UNL     1      -2.619  -2.883  24.619  0.00  0.00    +0.256 C 
ENDROOT
BRANCH   3  10
ATOM     10  C   UNL     1      -0.044   1.939  24.961  0.00  0.00    +0.087 C 
BRANCH  10  11
ATOM     11  C   UNL     1      -0.209   3.450  25.200  0.00  0.00    -0.003 C 
ATOM     15  C   UNL     1      -1.386   3.775  26.124  0.00  0.00    +0.008 C 
ATOM     16  C   UNL     1      -0.394   4.168  23.860  0.00  0.00    +0.008 C 
ENDBRANCH  10  11
ENDBRANCH   3  10
BRANCH   4  14
ATOM     14  C   UNL     1      -5.169  -0.076  24.207  0.00  0.00    +0.143 C 
BRANCH  14  17
ATOM      5  N   UNL     1      -4.798   4.047  25.354  0.00  0.00    -0.263 NA
ATOM     17  C   UNL     1      -5.040   1.365  24.607  0.00  0.00    -0.027 A 
ATOM     18  C   UNL     1      -4.362   2.259  23.786  0.00  0.00    +0.025 A 
ATOM     19  C   UNL     1      -5.596   1.810  25.801  0.00  0.00    +0.025 A 
ATOM     20  C   UNL     1      -4.270   3.578  24.201  0.00  0.00    +0.111 A 
ATOM     21  C   UNL     1      -5.448   3.149  26.127  0.00  0.00    +0.111 A 
ENDBRANCH  14  17
ENDBRANCH   4  14
TORSDOF 4
ENDMDL
