MODEL 1
REMARK VINA RESULT:      -1.0      0.000      0.000
REMARK  Name = 71693884
REMARK  9 active torsions:
REMARK  status: ('A' for Active; 'I' for Inactive)
REMARK    1  A    between atoms: O_1  and  C_9
REMARK    2  A    between atoms: O_2  and  C_11
REMARK    3  A    between atoms: O_4  and  C_19
REMARK    4  A    between atoms: O_4  and  C_25
REMARK    5  A    between atoms: O_5  and  C_20
REMARK    6  A    between atoms: O_5  and  C_26
REMARK    7  A    between atoms: N_6  and  C_8
REMARK    8  A    between atoms: C_7  and  C_12
REMARK    9  A    between atoms: C_15  and  C_18
REMARK                            x       y       z     vdW  Elec       q    Type
REMARK                         _______ _______ _______ _____ _____    ______ ____
ROOT
ATOM      7  C   UNL     1      -1.419  -0.571  23.784  0.00  0.00    +0.044 C 
ATOM      8  C   UNL     1      -1.913  -0.349  25.231  0.00  0.00    +0.112 C 
ATOM      9  C   UNL     1      -2.823  -1.551  25.486  0.00  0.00    +0.164 C 
ATOM     10  C   UNL     1      -1.563  -2.091  23.517  0.00  0.00    +0.044 C 
ATOM     11  C   UNL     1      -2.071  -2.699  24.823  0.00  0.00    +0.145 C 
ENDROOT
BRANCH   7  12
ATOM     12  C   UNL     1      -0.029  -0.024  23.542  0.00  0.00    -0.042 A 
ATOM     13  C   UNL     1       0.865  -0.724  22.732  0.00  0.00    +0.007 A 
ATOM     14  C   UNL     1       0.360   1.179  24.134  0.00  0.00    +0.007 A 
ATOM     16  C   UNL     1       2.146  -0.220  22.511  0.00  0.00    +0.046 A 
ATOM     17  C   UNL     1       1.642   1.682  23.912  0.00  0.00    +0.046 A 
ATOM     19  C   UNL     1       2.536   0.982  23.102  0.00  0.00    +0.120 A 
BRANCH  19   4
ATOM      4  O   UNL     1       3.788   1.472  22.887  0.00  0.00    -0.495 OA
ATOM     25  C   UNL     1       4.883   0.621  23.220  0.00  0.00    +0.277 C 
ENDBRANCH  19   4
ENDBRANCH   7  12
BRANCH   8   6
ATOM      3  O   UNL     1      -4.501   0.293  24.167  0.00  0.00    -0.270 OA
ATOM      6  N   UNL     1      -2.618   0.900  25.377  0.00  0.00    -0.305 N 
ATOM     15  C   UNL     1      -3.873   1.119  24.825  0.00  0.00    +0.248 C 
ATOM     27  H   UNL     1      -2.203   1.598  25.986  0.00  0.00    +0.149 HD
BRANCH  15  18
ATOM     18  C   UNL     1      -4.454   2.468  25.042  0.00  0.00    +0.078 A 
ATOM     20  C   UNL     1      -3.689   3.617  24.848  0.00  0.00    +0.132 A 
ATOM     21  C   UNL     1      -5.785   2.576  25.446  0.00  0.00    +0.017 A 
ATOM     22  C   UNL     1      -4.253   4.875  25.059  0.00  0.00    +0.046 A 
ATOM     23  C   UNL     1      -6.350   3.834  25.656  0.00  0.00    +0.001 A 
ATOM     24  C   UNL     1      -5.584   4.983  25.464  0.00  0.00    +0.004 A 
BRANCH  20   5
ATOM      5  O   UNL     1      -2.386   3.532  24.456  0.00  0.00    -0.494 OA
ATOM     26  C   UNL     1      -1.441   4.317  25.178  0.00  0.00    +0.277 C 
ENDBRANCH  20   5
ENDBRANCH  15  18
ENDBRANCH   8   6
BRANCH   9   1
ATOM      1  O   UNL     1      -3.016  -1.795  26.866  0.00  0.00    -0.387 OA
ATOM     28  H   UNL     1      -3.159  -0.934  27.297  0.00  0.00    +0.210 HD
ENDBRANCH   9   1
BRANCH  11   2
ATOM      2  O   UNL     1      -0.950  -3.095  25.609  0.00  0.00    -0.389 OA
ATOM     29  H   UNL     1      -1.229  -3.851  26.154  0.00  0.00    +0.210 HD
ENDBRANCH  11   2
TORSDOF 7
ENDMDL
MODEL 2
REMARK VINA RESULT:      -0.9      1.798      6.469
REMARK  Name = 71693884
REMARK  9 active torsions:
REMARK  status: ('A' for Active; 'I' for Inactive)
REMARK    1  A    between atoms: O_1  and  C_9
REMARK    2  A    between atoms: O_2  and  C_11
REMARK    3  A    between atoms: O_4  and  C_19
REMARK    4  A    between atoms: O_4  and  C_25
REMARK    5  A    between atoms: O_5  and  C_20
REMARK    6  A    between atoms: O_5  and  C_26
REMARK    7  A    between atoms: N_6  and  C_8
REMARK    8  A    between atoms: C_7  and  C_12
REMARK    9  A    between atoms: C_15  and  C_18
REMARK                            x       y       z     vdW  Elec       q    Type
REMARK                         _______ _______ _______ _____ _____    ______ ____
ROOT
ATOM      7  C   UNL     1      -1.583  -0.342  25.602  0.00  0.00    +0.044 C 
ATOM      8  C   UNL     1      -0.954  -1.016  24.363  0.00  0.00    +0.112 C 
ATOM      9  C   UNL     1      -1.396  -2.474  24.487  0.00  0.00    +0.164 C 
ATOM     10  C   UNL     1      -2.780  -1.241  26.011  0.00  0.00    +0.044 C 
ATOM     11  C   UNL     1      -2.838  -2.357  24.970  0.00  0.00    +0.145 C 
ENDROOT
BRANCH   7  12
ATOM     12  C   UNL     1      -1.946   1.109  25.367  0.00  0.00    -0.042 A 
ATOM     13  C   UNL     1      -3.134   1.434  24.713  0.00  0.00    +0.007 A 
ATOM     14  C   UNL     1      -1.089   2.121  25.801  0.00  0.00    +0.007 A 
ATOM     16  C   UNL     1      -3.466   2.771  24.495  0.00  0.00    +0.046 A 
ATOM     17  C   UNL     1      -1.421   3.457  25.583  0.00  0.00    +0.046 A 
ATOM     19  C   UNL     1      -2.609   3.782  24.929  0.00  0.00    +0.120 A 
BRANCH  19   4
ATOM      4  O   UNL     1      -2.933   5.087  24.715  0.00  0.00    -0.495 OA
ATOM     25  C   UNL     1      -1.923   6.058  24.979  0.00  0.00    +0.277 C 
ENDBRANCH  19   4
ENDBRANCH   7  12
BRANCH   8   6
ATOM      3  O   UNL     1       0.688  -0.353  22.103  0.00  0.00    -0.270 OA
ATOM      6  N   UNL     1       0.482  -0.890  24.349  0.00  0.00    -0.305 N 
ATOM     15  C   UNL     1       1.193  -0.563  23.203  0.00  0.00    +0.248 C 
ATOM     27  H   UNL     1       0.962  -0.957  25.241  0.00  0.00    +0.149 HD
BRANCH  15  18
ATOM     18  C   UNL     1       2.670  -0.498  23.348  0.00  0.00    +0.078 A 
ATOM     20  C   UNL     1       3.353   0.704  23.171  0.00  0.00    +0.132 A 
ATOM     21  C   UNL     1       3.373  -1.660  23.665  0.00  0.00    +0.017 A 
ATOM     22  C   UNL     1       4.741   0.744  23.310  0.00  0.00    +0.046 A 
ATOM     23  C   UNL     1       4.759  -1.620  23.805  0.00  0.00    +0.001 A 
ATOM     24  C   UNL     1       5.444  -0.418  23.627  0.00  0.00    +0.004 A 
BRANCH  20   5
ATOM      5  O   UNL     1       2.685   1.850  22.858  0.00  0.00    -0.494 OA
ATOM     26  C   UNL     1       1.573   2.196  23.682  0.00  0.00    +0.277 C 
ENDBRANCH  20   5
ENDBRANCH  15  18
ENDBRANCH   8   6
BRANCH   9   1
ATOM      1  O   UNL     1      -1.325  -3.163  23.254  0.00  0.00    -0.387 OA
ATOM     28  H   UNL     1      -2.234  -3.255  22.917  0.00  0.00    +0.210 HD
ENDBRANCH   9   1
BRANCH  11   2
ATOM      2  O   UNL     1      -3.699  -1.950  23.911  0.00  0.00    -0.389 OA
ATOM     29  H   UNL     1      -4.162  -1.146  24.204  0.00  0.00    +0.210 HD
ENDBRANCH  11   2
TORSDOF 7
ENDMDL
MODEL 3
REMARK VINA RESULT:      -0.8      1.753      6.278
REMARK  Name = 71693884
REMARK  9 active torsions:
REMARK  status: ('A' for Active; 'I' for Inactive)
REMARK    1  A    between atoms: O_1  and  C_9
REMARK    2  A    between atoms: O_2  and  C_11
REMARK    3  A    between atoms: O_4  and  C_19
REMARK    4  A    between atoms: O_4  and  C_25
REMARK    5  A    between atoms: O_5  and  C_20
REMARK    6  A    between atoms: O_5  and  C_26
REMARK    7  A    between atoms: N_6  and  C_8
REMARK    8  A    between atoms: C_7  and  C_12
REMARK    9  A    between atoms: C_15  and  C_18
REMARK                            x       y       z     vdW  Elec       q    Type
REMARK                         _______ _______ _______ _____ _____    ______ ____
ROOT
ATOM      7  C   UNL     1      -2.526  -0.674  25.533  0.00  0.00    +0.044 C 
ATOM      8  C   UNL     1      -1.990  -1.303  24.228  0.00  0.00    +0.112 C 
ATOM      9  C   UNL     1      -2.103  -2.806  24.484  0.00  0.00    +0.164 C 
ATOM     10  C   UNL     1      -3.431  -1.753  26.182  0.00  0.00    +0.044 C 
ATOM     11  C   UNL     1      -3.437  -2.932  25.211  0.00  0.00    +0.145 C 
ENDROOT
BRANCH   7  12
ATOM     12  C   UNL     1      -3.206   0.660  25.312  0.00  0.00    -0.042 A 
ATOM     13  C   UNL     1      -2.460   1.837  25.347  0.00  0.00    +0.007 A 
ATOM     14  C   UNL     1      -4.580   0.711  25.077  0.00  0.00    +0.007 A 
ATOM     16  C   UNL     1      -3.087   3.066  25.145  0.00  0.00    +0.046 A 
ATOM     17  C   UNL     1      -5.208   1.940  24.874  0.00  0.00    +0.046 A 
ATOM     19  C   UNL     1      -4.461   3.118  24.909  0.00  0.00    +0.120 A 
BRANCH  19   4
ATOM      4  O   UNL     1      -5.074   4.318  24.714  0.00  0.00    -0.495 OA
ATOM     25  C   UNL     1      -6.109   4.674  25.628  0.00  0.00    +0.277 C 
ENDBRANCH  19   4
ENDBRANCH   7  12
BRANCH   8   6
ATOM      3  O   UNL     1      -1.132   0.699  22.358  0.00  0.00    -0.270 OA
ATOM      6  N   UNL     1      -0.631  -0.906  23.954  0.00  0.00    -0.305 N 
ATOM     15  C   UNL     1      -0.312   0.078  23.028  0.00  0.00    +0.248 C 
ATOM     27  H   UNL     1       0.096  -1.309  24.536  0.00  0.00    +0.149 HD
BRANCH  15  18
ATOM     18  C   UNL     1       1.135   0.353  22.842  0.00  0.00    +0.078 A 
ATOM     20  C   UNL     1       1.795   1.286  23.642  0.00  0.00    +0.132 A 
ATOM     21  C   UNL     1       1.835  -0.336  21.852  0.00  0.00    +0.017 A 
ATOM     22  C   UNL     1       3.155   1.531  23.450  0.00  0.00    +0.046 A 
ATOM     23  C   UNL     1       3.195  -0.091  21.661  0.00  0.00    +0.001 A 
ATOM     24  C   UNL     1       3.855   0.842  22.459  0.00  0.00    +0.004 A 
BRANCH  20   5
ATOM      5  O   UNL     1       1.128   1.971  24.613  0.00  0.00    -0.494 OA
ATOM     26  C   UNL     1       0.408   3.133  24.207  0.00  0.00    +0.277 C 
ENDBRANCH  20   5
ENDBRANCH  15  18
ENDBRANCH   8   6
BRANCH   9   1
ATOM      1  O   UNL     1      -2.102  -3.556  23.284  0.00  0.00    -0.387 OA
ATOM     28  H   UNL     1      -2.877  -3.278  22.766  0.00  0.00    +0.210 HD
ENDBRANCH   9   1
BRANCH  11   2
ATOM      2  O   UNL     1      -4.527  -2.775  24.307  0.00  0.00    -0.389 OA
ATOM     29  H   UNL     1      -4.815  -3.665  24.041  0.00  0.00    +0.210 HD
ENDBRANCH  11   2
TORSDOF 7
ENDMDL
MODEL 4
REMARK VINA RESULT:       0.3      1.434      2.736
REMARK  Name = 71693884
REMARK  9 active torsions:
REMARK  status: ('A' for Active; 'I' for Inactive)
REMARK    1  A    between atoms: O_1  and  C_9
REMARK    2  A    between atoms: O_2  and  C_11
REMARK    3  A    between atoms: O_4  and  C_19
REMARK    4  A    between atoms: O_4  and  C_25
REMARK    5  A    between atoms: O_5  and  C_20
REMARK    6  A    between atoms: O_5  and  C_26
REMARK    7  A    between atoms: N_6  and  C_8
REMARK    8  A    between atoms: C_7  and  C_12
REMARK    9  A    between atoms: C_15  and  C_18
REMARK                            x       y       z     vdW  Elec       q    Type
REMARK                         _______ _______ _______ _____ _____    ______ ____
ROOT
ATOM      7  C   UNL     1      -0.216  -0.608  23.470  0.00  0.00    +0.044 C 
ATOM      8  C   UNL     1      -0.815  -0.135  24.813  0.00  0.00    +0.112 C 
ATOM      9  C   UNL     1      -1.939  -1.138  25.075  0.00  0.00    +0.164 C 
ATOM     10  C   UNL     1      -0.588  -2.109  23.345  0.00  0.00    +0.044 C 
ATOM     11  C   UNL     1      -1.328  -2.463  24.634  0.00  0.00    +0.145 C 
ENDROOT
BRANCH   7  12
ATOM     12  C   UNL     1       1.265  -0.321  23.348  0.00  0.00    -0.042 A 
ATOM     13  C   UNL     1       1.701   0.949  22.973  0.00  0.00    +0.007 A 
ATOM     14  C   UNL     1       2.194  -1.329  23.608  0.00  0.00    +0.007 A 
ATOM     16  C   UNL     1       3.066   1.213  22.859  0.00  0.00    +0.046 A 
ATOM     17  C   UNL     1       3.559  -1.065  23.495  0.00  0.00    +0.046 A 
ATOM     19  C   UNL     1       3.995   0.205  23.120  0.00  0.00    +0.120 A 
BRANCH  19   4
ATOM      4  O   UNL     1       5.327   0.462  23.007  0.00  0.00    -0.495 OA
ATOM     25  C   UNL     1       6.201  -0.249  23.881  0.00  0.00    +0.277 C 
ENDBRANCH  19   4
ENDBRANCH   7  12
BRANCH   8   6
ATOM      3  O   UNL     1       0.219   2.147  26.215  0.00  0.00    -0.270 OA
ATOM      6  N   UNL     1      -1.308   1.217  24.738  0.00  0.00    -0.305 N 
ATOM     15  C   UNL     1      -0.740   2.261  25.456  0.00  0.00    +0.248 C 
ATOM     27  H   UNL     1      -2.040   1.408  24.061  0.00  0.00    +0.149 HD
BRANCH  15  18
ATOM     18  C   UNL     1      -1.381   3.591  25.291  0.00  0.00    +0.078 A 
ATOM     20  C   UNL     1      -2.761   3.742  25.424  0.00  0.00    +0.132 A 
ATOM     21  C   UNL     1      -0.583   4.697  24.999  0.00  0.00    +0.017 A 
ATOM     22  C   UNL     1      -3.343   4.999  25.263  0.00  0.00    +0.046 A 
ATOM     23  C   UNL     1      -1.165   5.954  24.840  0.00  0.00    +0.001 A 
ATOM     24  C   UNL     1      -2.545   6.105  24.972  0.00  0.00    +0.004 A 
BRANCH  20   5
ATOM      5  O   UNL     1      -3.557   2.673  25.706  0.00  0.00    -0.494 OA
ATOM     26  C   UNL     1      -4.696   2.476  24.871  0.00  0.00    +0.277 C 
ENDBRANCH  20   5
ENDBRANCH  15  18
ENDBRANCH   8   6
BRANCH   9   1
ATOM      1  O   UNL     1      -2.316  -1.177  26.437  0.00  0.00    -0.387 OA
ATOM     28  H   UNL     1      -1.500  -1.161  26.967  0.00  0.00    +0.210 HD
ENDBRANCH   9   1
BRANCH  11   2
ATOM      2  O   UNL     1      -0.382  -2.931  25.590  0.00  0.00    -0.389 OA
ATOM     29  H   UNL     1      -0.814  -2.909  26.462  0.00  0.00    +0.210 HD
ENDBRANCH  11   2
TORSDOF 7
ENDMDL
MODEL 5
REMARK VINA RESULT:       0.7      2.159      5.764
REMARK  Name = 71693884
REMARK  9 active torsions:
REMARK  status: ('A' for Active; 'I' for Inactive)
REMARK    1  A    between atoms: O_1  and  C_9
REMARK    2  A    between atoms: O_2  and  C_11
REMARK    3  A    between atoms: O_4  and  C_19
REMARK    4  A    between atoms: O_4  and  C_25
REMARK    5  A    between atoms: O_5  and  C_20
REMARK    6  A    between atoms: O_5  and  C_26
REMARK    7  A    between atoms: N_6  and  C_8
REMARK    8  A    between atoms: C_7  and  C_12
REMARK    9  A    between atoms: C_15  and  C_18
REMARK                            x       y       z     vdW  Elec       q    Type
REMARK                         _______ _______ _______ _____ _____    ______ ____
ROOT
ATOM      7  C   UNL     1      -3.356   3.251  26.080  0.00  0.00    +0.044 C 
ATOM      8  C   UNL     1      -4.334   2.445  25.196  0.00  0.00    +0.112 C 
ATOM      9  C   UNL     1      -5.690   2.677  25.863  0.00  0.00    +0.164 C 
ATOM     10  C   UNL     1      -4.216   4.328  26.790  0.00  0.00    +0.044 C 
ATOM     11  C   UNL     1      -5.635   4.150  26.253  0.00  0.00    +0.145 C 
ENDROOT
BRANCH   7  12
ATOM     12  C   UNL     1      -2.178   3.805  25.306  0.00  0.00    -0.042 A 
ATOM     13  C   UNL     1      -1.973   5.183  25.240  0.00  0.00    +0.007 A 
ATOM     14  C   UNL     1      -1.300   2.936  24.657  0.00  0.00    +0.007 A 
ATOM     16  C   UNL     1      -0.889   5.692  24.526  0.00  0.00    +0.046 A 
ATOM     17  C   UNL     1      -0.216   3.446  23.943  0.00  0.00    +0.046 A 
ATOM     19  C   UNL     1      -0.011   4.824  23.877  0.00  0.00    +0.120 A 
BRANCH  19   4
ATOM      4  O   UNL     1       1.047   5.322  23.178  0.00  0.00    -0.495 OA
ATOM     25  C   UNL     1       0.822   5.650  21.808  0.00  0.00    +0.277 C 
ENDBRANCH  19   4
ENDBRANCH   7  12
BRANCH   8   6
ATOM      3  O   UNL     1      -3.250   1.021  22.951  0.00  0.00    -0.270 OA
ATOM      6  N   UNL     1      -3.991   1.046  25.148  0.00  0.00    -0.305 N 
ATOM     15  C   UNL     1      -3.469   0.443  24.012  0.00  0.00    +0.248 C 
ATOM     27  H   UNL     1      -4.056   0.522  26.015  0.00  0.00    +0.149 HD
BRANCH  15  18
ATOM     18  C   UNL     1      -3.193  -1.013  24.115  0.00  0.00    +0.078 A 
ATOM     20  C   UNL     1      -1.926  -1.478  24.465  0.00  0.00    +0.132 A 
ATOM     21  C   UNL     1      -4.222  -1.919  23.855  0.00  0.00    +0.017 A 
ATOM     22  C   UNL     1      -1.687  -2.850  24.555  0.00  0.00    +0.046 A 
ATOM     23  C   UNL     1      -3.983  -3.290  23.946  0.00  0.00    +0.001 A 
ATOM     24  C   UNL     1      -2.716  -3.755  24.295  0.00  0.00    +0.004 A 
BRANCH  20   5
ATOM      5  O   UNL     1      -0.907  -0.609  24.719  0.00  0.00    -0.494 OA
ATOM     26  C   UNL     1       0.104  -0.488  23.722  0.00  0.00    +0.277 C 
ENDBRANCH  20   5
ENDBRANCH  15  18
ENDBRANCH   8   6
BRANCH   9   1
ATOM      1  O   UNL     1      -6.769   2.420  24.986  0.00  0.00    -0.387 OA
ATOM     28  H   UNL     1      -7.258   1.657  25.340  0.00  0.00    +0.210 HD
ENDBRANCH   9   1
BRANCH  11   2
ATOM      2  O   UNL     1      -5.800   4.985  25.111  0.00  0.00    -0.389 OA
ATOM     29  H   UNL     1      -5.930   4.405  24.341  0.00  0.00    +0.210 HD
ENDBRANCH  11   2
TORSDOF 7
ENDMDL
MODEL 6
REMARK VINA RESULT:       1.8      1.879      6.889
REMARK  Name = 71693884
REMARK  9 active torsions:
REMARK  status: ('A' for Active; 'I' for Inactive)
REMARK    1  A    between atoms: O_1  and  C_9
REMARK    2  A    between atoms: O_2  and  C_11
REMARK    3  A    between atoms: O_4  and  C_19
REMARK    4  A    between atoms: O_4  and  C_25
REMARK    5  A    between atoms: O_5  and  C_20
REMARK    6  A    between atoms: O_5  and  C_26
REMARK    7  A    between atoms: N_6  and  C_8
REMARK    8  A    between atoms: C_7  and  C_12
REMARK    9  A    between atoms: C_15  and  C_18
REMARK                            x       y       z     vdW  Elec       q    Type
REMARK                         _______ _______ _______ _____ _____    ______ ____
ROOT
ATOM      7  C   UNL     1      -1.632  -0.324  25.573  0.00  0.00    +0.044 C 
ATOM      8  C   UNL     1      -0.940  -0.846  24.293  0.00  0.00    +0.112 C 
ATOM      9  C   UNL     1      -1.008  -2.366  24.446  0.00  0.00    +0.164 C 
ATOM     10  C   UNL     1      -2.546  -1.478  26.060  0.00  0.00    +0.044 C 
ATOM     11  C   UNL     1      -2.400  -2.592  25.025  0.00  0.00    +0.145 C 
ENDROOT
BRANCH   7  12
ATOM     12  C   UNL     1      -2.348   0.993  25.363  0.00  0.00    -0.042 A 
ATOM     13  C   UNL     1      -1.646   2.193  25.468  0.00  0.00    +0.007 A 
ATOM     14  C   UNL     1      -3.712   1.005  25.069  0.00  0.00    +0.007 A 
ATOM     16  C   UNL     1      -2.307   3.406  25.276  0.00  0.00    +0.046 A 
ATOM     17  C   UNL     1      -4.373   2.218  24.878  0.00  0.00    +0.046 A 
ATOM     19  C   UNL     1      -3.671   3.419  24.982  0.00  0.00    +0.120 A 
BRANCH  19   4
ATOM      4  O   UNL     1      -4.316   4.604  24.798  0.00  0.00    -0.495 OA
ATOM     25  C   UNL     1      -5.629   4.718  25.342  0.00  0.00    +0.277 C 
ENDBRANCH  19   4
ENDBRANCH   7  12
BRANCH   8   6
ATOM      3  O   UNL     1       0.606  -0.618  21.885  0.00  0.00    -0.270 OA
ATOM      6  N   UNL     1       0.418  -0.378  24.183  0.00  0.00    -0.305 N 
ATOM     15  C   UNL     1       1.087  -0.301  22.969  0.00  0.00    +0.248 C 
ATOM     27  H   UNL     1       0.852  -0.010  25.024  0.00  0.00    +0.149 HD
BRANCH  15  18
ATOM     18  C   UNL     1       2.492   0.178  23.028  0.00  0.00    +0.078 A 
ATOM     20  C   UNL     1       3.517  -0.662  23.461  0.00  0.00    +0.132 A 
ATOM     21  C   UNL     1       2.779   1.487  22.642  0.00  0.00    +0.017 A 
ATOM     22  C   UNL     1       4.830  -0.193  23.510  0.00  0.00    +0.046 A 
ATOM     23  C   UNL     1       4.092   1.956  22.690  0.00  0.00    +0.001 A 
ATOM     24  C   UNL     1       5.117   1.116  23.124  0.00  0.00    +0.004 A 
BRANCH  20   5
ATOM      5  O   UNL     1       3.256  -1.944  23.845  0.00  0.00    -0.494 OA
ATOM     26  C   UNL     1       4.374  -2.754  24.199  0.00  0.00    +0.277 C 
ENDBRANCH  20   5
ENDBRANCH  15  18
ENDBRANCH   8   6
BRANCH   9   1
ATOM      1  O   UNL     1      -0.853  -3.037  23.210  0.00  0.00    -0.387 OA
ATOM     28  H   UNL     1      -1.743  -3.189  22.847  0.00  0.00    +0.210 HD
ENDBRANCH   9   1
BRANCH  11   2
ATOM      2  O   UNL     1      -3.401  -2.421  24.026  0.00  0.00    -0.389 OA
ATOM     29  H   UNL     1      -4.102  -3.073  24.201  0.00  0.00    +0.210 HD
ENDBRANCH  11   2
TORSDOF 7
ENDMDL
MODEL 7
REMARK VINA RESULT:       1.8      1.749      4.745
REMARK  Name = 71693884
REMARK  9 active torsions:
REMARK  status: ('A' for Active; 'I' for Inactive)
REMARK    1  A    between atoms: O_1  and  C_9
REMARK    2  A    between atoms: O_2  and  C_11
REMARK    3  A    between atoms: O_4  and  C_19
REMARK    4  A    between atoms: O_4  and  C_25
REMARK    5  A    between atoms: O_5  and  C_20
REMARK    6  A    between atoms: O_5  and  C_26
REMARK    7  A    between atoms: N_6  and  C_8
REMARK    8  A    between atoms: C_7  and  C_12
REMARK    9  A    between atoms: C_15  and  C_18
REMARK                            x       y       z     vdW  Elec       q    Type
REMARK                         _______ _______ _______ _____ _____    ______ ____
ROOT
ATOM      7  C   UNL     1      -0.143   1.831  24.896  0.00  0.00    +0.044 C 
ATOM      8  C   UNL     1      -1.392   2.091  24.025  0.00  0.00    +0.112 C 
ATOM      9  C   UNL     1      -2.136   3.188  24.787  0.00  0.00    +0.164 C 
ATOM     10  C   UNL     1       0.071   3.124  25.725  0.00  0.00    +0.044 C 
ATOM     11  C   UNL     1      -1.011   4.099  25.266  0.00  0.00    +0.145 C 
ENDROOT
BRANCH   7  12
ATOM     12  C   UNL     1       1.063   1.401  24.089  0.00  0.00    -0.042 A 
ATOM     13  C   UNL     1       1.168   0.085  23.639  0.00  0.00    +0.007 A 
ATOM     14  C   UNL     1       2.071   2.320  23.797  0.00  0.00    +0.007 A 
ATOM     16  C   UNL     1       2.280  -0.312  22.897  0.00  0.00    +0.046 A 
ATOM     17  C   UNL     1       3.183   1.924  23.055  0.00  0.00    +0.046 A 
ATOM     19  C   UNL     1       3.288   0.608  22.605  0.00  0.00    +0.120 A 
BRANCH  19   4
ATOM      4  O   UNL     1       4.374   0.220  21.882  0.00  0.00    -0.495 OA
ATOM     25  C   UNL     1       5.547  -0.132  22.613  0.00  0.00    +0.277 C 
ENDBRANCH  19   4
ENDBRANCH   7  12
BRANCH   8   6
ATOM      3  O   UNL     1      -1.480  -0.171  25.791  0.00  0.00    -0.270 OA
ATOM      6  N   UNL     1      -2.198   0.906  23.867  0.00  0.00    -0.305 N 
ATOM     15  C   UNL     1      -2.174  -0.141  24.778  0.00  0.00    +0.248 C 
ATOM     27  H   UNL     1      -2.866   0.898  23.103  0.00  0.00    +0.149 HD
BRANCH  15  18
ATOM     18  C   UNL     1      -3.042  -1.303  24.458  0.00  0.00    +0.078 A 
ATOM     20  C   UNL     1      -4.373  -1.120  24.084  0.00  0.00    +0.132 A 
ATOM     21  C   UNL     1      -2.510  -2.590  24.536  0.00  0.00    +0.017 A 
ATOM     22  C   UNL     1      -5.172  -2.225  23.789  0.00  0.00    +0.046 A 
ATOM     23  C   UNL     1      -3.309  -3.694  24.240  0.00  0.00    +0.001 A 
ATOM     24  C   UNL     1      -4.640  -3.512  23.867  0.00  0.00    +0.004 A 
BRANCH  20   5
ATOM      5  O   UNL     1      -4.912   0.129  24.005  0.00  0.00    -0.494 OA
ATOM     26  C   UNL     1      -5.242   0.770  25.234  0.00  0.00    +0.277 C 
ENDBRANCH  20   5
ENDBRANCH  15  18
ENDBRANCH   8   6
BRANCH   9   1
ATOM      1  O   UNL     1      -3.047   3.890  23.964  0.00  0.00    -0.387 OA
ATOM     28  H   UNL     1      -3.790   4.172  24.525  0.00  0.00    +0.210 HD
ENDBRANCH   9   1
BRANCH  11   2
ATOM      2  O   UNL     1      -0.497   4.881  24.192  0.00  0.00    -0.389 OA
ATOM     29  H   UNL     1      -0.955   4.599  23.381  0.00  0.00    +0.210 HD
ENDBRANCH  11   2
TORSDOF 7
ENDMDL
MODEL 8
REMARK VINA RESULT:       2.9      2.076      6.975
REMARK  Name = 71693884
REMARK  9 active torsions:
REMARK  status: ('A' for Active; 'I' for Inactive)
REMARK    1  A    between atoms: O_1  and  C_9
REMARK    2  A    between atoms: O_2  and  C_11
REMARK    3  A    between atoms: O_4  and  C_19
REMARK    4  A    between atoms: O_4  and  C_25
REMARK    5  A    between atoms: O_5  and  C_20
REMARK    6  A    between atoms: O_5  and  C_26
REMARK    7  A    between atoms: N_6  and  C_8
REMARK    8  A    between atoms: C_7  and  C_12
REMARK    9  A    between atoms: C_15  and  C_18
REMARK                            x       y       z     vdW  Elec       q    Type
REMARK                         _______ _______ _______ _____ _____    ______ ____
ROOT
ATOM      7  C   UNL     1      -2.570   2.123  23.721  0.00  0.00    +0.044 C 
ATOM      8  C   UNL     1      -1.358   2.654  24.517  0.00  0.00    +0.112 C 
ATOM      9  C   UNL     1      -1.600   4.163  24.571  0.00  0.00    +0.164 C 
ATOM     10  C   UNL     1      -3.683   3.191  23.882  0.00  0.00    +0.044 C 
ATOM     11  C   UNL     1      -3.104   4.262  24.804  0.00  0.00    +0.145 C 
ENDROOT
BRANCH   7  12
ATOM     12  C   UNL     1      -2.983   0.726  24.133  0.00  0.00    -0.042 A 
ATOM     13  C   UNL     1      -2.766   0.292  25.440  0.00  0.00    +0.007 A 
ATOM     14  C   UNL     1      -3.577  -0.129  23.203  0.00  0.00    +0.007 A 
ATOM     16  C   UNL     1      -3.145  -0.996  25.819  0.00  0.00    +0.046 A 
ATOM     17  C   UNL     1      -3.955  -1.416  23.582  0.00  0.00    +0.046 A 
ATOM     19  C   UNL     1      -3.739  -1.850  24.890  0.00  0.00    +0.120 A 
BRANCH  19   4
ATOM      4  O   UNL     1      -4.107  -3.108  25.260  0.00  0.00    -0.495 OA
ATOM     25  C   UNL     1      -3.869  -4.155  24.321  0.00  0.00    +0.277 C 
ENDBRANCH  19   4
ENDBRANCH   7  12
BRANCH   8   6
ATOM      3  O   UNL     1       0.082   0.177  24.705  0.00  0.00    -0.270 OA
ATOM      6  N   UNL     1      -0.107   2.334  23.875  0.00  0.00    -0.305 N 
ATOM     15  C   UNL     1       0.517   1.103  24.025  0.00  0.00    +0.248 C 
ATOM     27  H   UNL     1       0.267   3.015  23.222  0.00  0.00    +0.149 HD
BRANCH  15  18
ATOM     18  C   UNL     1       1.813   0.939  23.320  0.00  0.00    +0.078 A 
ATOM     20  C   UNL     1       1.968  -0.021  22.321  0.00  0.00    +0.132 A 
ATOM     21  C   UNL     1       2.885   1.762  23.669  0.00  0.00    +0.017 A 
ATOM     22  C   UNL     1       3.195  -0.160  21.671  0.00  0.00    +0.046 A 
ATOM     23  C   UNL     1       4.111   1.623  23.019  0.00  0.00    +0.001 A 
ATOM     24  C   UNL     1       4.266   0.662  22.021  0.00  0.00    +0.004 A 
BRANCH  20   5
ATOM      5  O   UNL     1       0.934  -0.836  21.967  0.00  0.00    -0.494 OA
ATOM     26  C   UNL     1       0.451  -0.725  20.631  0.00  0.00    +0.277 C 
ENDBRANCH  20   5
ENDBRANCH  15  18
ENDBRANCH   8   6
BRANCH   9   1
ATOM      1  O   UNL     1      -0.879   4.784  25.617  0.00  0.00    -0.387 OA
ATOM     28  H   UNL     1      -1.359   5.595  25.862  0.00  0.00    +0.210 HD
ENDBRANCH   9   1
BRANCH  11   2
ATOM      2  O   UNL     1      -3.433   3.932  26.151  0.00  0.00    -0.389 OA
ATOM     29  H   UNL     1      -4.227   4.441  26.389  0.00  0.00    +0.210 HD
ENDBRANCH  11   2
TORSDOF 7
ENDMDL
