MODEL 1
REMARK VINA RESULT:      -4.3      0.000      0.000
REMARK  Name = 51137123
REMARK  4 active torsions:
REMARK  status: ('A' for Active; 'I' for Inactive)
REMARK    1  A    between atoms: N_4  and  C_8
REMARK    2  A    between atoms: C_7  and  C_8
REMARK    3  A    between atoms: C_9  and  C_18
REMARK    4  A    between atoms: C_23  and  C_25
REMARK                            x       y       z     vdW  Elec       q    Type
REMARK                         _______ _______ _______ _____ _____    ______ ____
ROOT
ATOM      5  N   UNL     1      11.303  -7.484  32.422  0.00  0.00    -0.342 N 
ATOM      6  N   UNL     1      12.345  -9.440  32.253  0.00  0.00    -0.232 NA
ATOM     18  C   UNL     1      12.493  -8.154  32.477  0.00  0.00    +0.113 A 
ATOM     19  C   UNL     1      10.320  -8.400  32.141  0.00  0.00    +0.067 A 
ATOM     20  C   UNL     1      10.997  -9.612  32.042  0.00  0.00    +0.089 A 
ATOM     21  C   UNL     1       8.941  -8.275  31.974  0.00  0.00    +0.040 A 
ATOM     22  C   UNL     1      10.270 -10.781  31.757  0.00  0.00    +0.030 A 
ATOM     23  C   UNL     1       8.233  -9.448  31.691  0.00  0.00    +0.057 A 
ATOM     24  C   UNL     1       8.883 -10.680  31.584  0.00  0.00    +0.014 A 
ATOM     26  H   UNL     1      11.166  -6.491  32.560  0.00  0.00    +0.167 HD
ENDROOT
BRANCH  18   9
ATOM      4  N   UNL     1      15.613  -6.381  31.735  0.00  0.00    -0.301 NA
ATOM      9  C   UNL     1      13.788  -7.430  32.768  0.00  0.00    +0.070 C 
ATOM     10  C   UNL     1      14.150  -6.396  31.693  0.00  0.00    +0.095 C 
ATOM     11  C   UNL     1      16.002  -7.788  31.837  0.00  0.00    +0.085 C 
ATOM     12  C   UNL     1      15.027  -8.336  32.870  0.00  0.00    +0.028 C 
BRANCH   4   8
ATOM      8  C   UNL     1      16.196  -5.727  30.573  0.00  0.00    +0.088 C 
BRANCH   8   7
ATOM      7  C   UNL     1      16.008  -4.213  30.649  0.00  0.00    +0.003 C 
ATOM     13  C   UNL     1      16.904  -3.504  29.624  0.00  0.00    +0.005 C 
ATOM     14  C   UNL     1      16.292  -3.703  32.068  0.00  0.00    +0.005 C 
ATOM     15  C   UNL     1      16.773  -1.985  29.717  0.00  0.00    +0.000 C 
ATOM     16  C   UNL     1      16.163  -2.184  32.157  0.00  0.00    +0.000 C 
ATOM     17  C   UNL     1      17.047  -1.483  31.131  0.00  0.00    +0.000 C 
ENDBRANCH   8   7
ENDBRANCH   4   8
ENDBRANCH  18   9
BRANCH  23  25
ATOM      1  F   UNL     1       6.076 -10.183  32.369  0.00  0.00    -0.166 F 
ATOM      2  F   UNL     1       6.238  -8.129  31.677  0.00  0.00    -0.166 F 
ATOM      3  F   UNL     1       6.348  -9.761  30.253  0.00  0.00    -0.166 F 
ATOM     25  C   UNL     1       6.753  -9.380  31.499  0.00  0.00    +0.417 C 
ENDBRANCH  23  25
TORSDOF 4
ENDMDL
MODEL 2
REMARK VINA RESULT:      -4.0      4.433      6.244
REMARK  Name = 51137123
REMARK  4 active torsions:
REMARK  status: ('A' for Active; 'I' for Inactive)
REMARK    1  A    between atoms: N_4  and  C_8
REMARK    2  A    between atoms: C_7  and  C_8
REMARK    3  A    between atoms: C_9  and  C_18
REMARK    4  A    between atoms: C_23  and  C_25
REMARK                            x       y       z     vdW  Elec       q    Type
REMARK                         _______ _______ _______ _____ _____    ______ ____
ROOT
ATOM      5  N   UNL     1      15.075  -6.836  28.345  0.00  0.00    -0.342 N 
ATOM      6  N   UNL     1      16.795  -7.217  29.702  0.00  0.00    -0.232 NA
ATOM     18  C   UNL     1      16.432  -6.954  28.467  0.00  0.00    +0.113 A 
ATOM     19  C   UNL     1      14.526  -7.038  29.587  0.00  0.00    +0.067 A 
ATOM     20  C   UNL     1      15.619  -7.273  30.415  0.00  0.00    +0.089 A 
ATOM     21  C   UNL     1      13.206  -7.033  30.041  0.00  0.00    +0.040 A 
ATOM     22  C   UNL     1      15.403  -7.522  31.781  0.00  0.00    +0.030 A 
ATOM     23  C   UNL     1      13.009  -7.282  31.403  0.00  0.00    +0.057 A 
ATOM     24  C   UNL     1      14.087  -7.522  32.260  0.00  0.00    +0.014 A 
ATOM     26  H   UNL     1      14.564  -6.637  27.496  0.00  0.00    +0.167 HD
ENDROOT
BRANCH  18   9
ATOM      4  N   UNL     1      17.388  -6.052  25.046  0.00  0.00    -0.301 NA
ATOM      9  C   UNL     1      17.344  -6.787  27.273  0.00  0.00    +0.070 C 
ATOM     10  C   UNL     1      16.937  -5.615  26.369  0.00  0.00    +0.095 C 
ATOM     11  C   UNL     1      17.006  -7.462  24.965  0.00  0.00    +0.085 C 
ATOM     12  C   UNL     1      17.405  -8.002  26.331  0.00  0.00    +0.028 C 
BRANCH   4   8
ATOM      8  C   UNL     1      16.812  -5.257  23.972  0.00  0.00    +0.088 C 
BRANCH   8   7
ATOM      7  C   UNL     1      17.358  -3.831  23.996  0.00  0.00    +0.003 C 
ATOM     13  C   UNL     1      16.915  -3.102  25.272  0.00  0.00    +0.005 C 
ATOM     14  C   UNL     1      16.916  -3.060  22.745  0.00  0.00    +0.005 C 
ATOM     15  C   UNL     1      17.405  -1.656  25.294  0.00  0.00    +0.000 C 
ATOM     16  C   UNL     1      17.405  -1.614  22.771  0.00  0.00    +0.000 C 
ATOM     17  C   UNL     1      16.972  -0.896  24.044  0.00  0.00    +0.000 C 
ENDBRANCH   8   7
ENDBRANCH   4   8
ENDBRANCH  18   9
BRANCH  23  25
ATOM      1  F   UNL     1      11.385  -8.364  32.760  0.00  0.00    -0.166 F 
ATOM      2  F   UNL     1      11.322  -6.192  32.700  0.00  0.00    -0.166 F 
ATOM      3  F   UNL     1      10.655  -7.340  30.986  0.00  0.00    -0.166 F 
ATOM     25  C   UNL     1      11.619  -7.292  31.950  0.00  0.00    +0.417 C 
ENDBRANCH  23  25
TORSDOF 4
ENDMDL
MODEL 3
REMARK VINA RESULT:      -1.6     15.132     18.745
REMARK  Name = 51137123
REMARK  4 active torsions:
REMARK  status: ('A' for Active; 'I' for Inactive)
REMARK    1  A    between atoms: N_4  and  C_8
REMARK    2  A    between atoms: C_7  and  C_8
REMARK    3  A    between atoms: C_9  and  C_18
REMARK    4  A    between atoms: C_23  and  C_25
REMARK                            x       y       z     vdW  Elec       q    Type
REMARK                         _______ _______ _______ _____ _____    ______ ____
ROOT
ATOM      5  N   UNL     1       0.566   2.159  24.434  0.00  0.00    -0.342 N 
ATOM      6  N   UNL     1      -0.635   0.817  23.131  0.00  0.00    -0.232 NA
ATOM     18  C   UNL     1      -0.680   1.806  23.995  0.00  0.00    +0.113 A 
ATOM     19  C   UNL     1       1.476   1.341  23.813  0.00  0.00    +0.067 A 
ATOM     20  C   UNL     1       0.701   0.514  23.004  0.00  0.00    +0.089 A 
ATOM     21  C   UNL     1       2.867   1.259  23.885  0.00  0.00    +0.040 A 
ATOM     22  C   UNL     1       1.335  -0.461  22.216  0.00  0.00    +0.030 A 
ATOM     23  C   UNL     1       3.481   0.284  23.093  0.00  0.00    +0.057 A 
ATOM     24  C   UNL     1       2.731  -0.562  22.272  0.00  0.00    +0.014 A 
ATOM     26  H   UNL     1       0.782   2.889  25.099  0.00  0.00    +0.167 HD
ENDROOT
BRANCH  18   9
ATOM      4  N   UNL     1      -4.167   2.174  25.057  0.00  0.00    -0.301 NA
ATOM      9  C   UNL     1      -1.918   2.517  24.490  0.00  0.00    +0.070 C 
ATOM     10  C   UNL     1      -2.841   1.608  25.313  0.00  0.00    +0.095 C 
ATOM     11  C   UNL     1      -4.185   2.460  23.623  0.00  0.00    +0.085 C 
ATOM     12  C   UNL     1      -2.820   3.091  23.385  0.00  0.00    +0.028 C 
BRANCH   4   8
ATOM      8  C   UNL     1      -5.241   1.277  25.458  0.00  0.00    +0.088 C 
BRANCH   8   7
ATOM      7  C   UNL     1      -4.833  -0.181  25.261  0.00  0.00    +0.003 C 
ATOM     13  C   UNL     1      -3.642  -0.537  26.162  0.00  0.00    +0.005 C 
ATOM     14  C   UNL     1      -4.505  -0.457  23.788  0.00  0.00    +0.005 C 
ATOM     15  C   UNL     1      -3.181  -1.977  25.945  0.00  0.00    +0.000 C 
ATOM     16  C   UNL     1      -4.042  -1.897  23.574  0.00  0.00    +0.000 C 
ATOM     17  C   UNL     1      -2.865  -2.250  24.477  0.00  0.00    +0.000 C 
ENDBRANCH   8   7
ENDBRANCH   4   8
ENDBRANCH  18   9
BRANCH  23  25
ATOM      1  F   UNL     1       5.371  -0.996  23.757  0.00  0.00    -0.166 F 
ATOM      2  F   UNL     1       5.540   0.103  21.890  0.00  0.00    -0.166 F 
ATOM      3  F   UNL     1       5.595   1.166  23.779  0.00  0.00    -0.166 F 
ATOM     25  C   UNL     1       4.968   0.145  23.128  0.00  0.00    +0.417 C 
ENDBRANCH  23  25
TORSDOF 4
ENDMDL
MODEL 4
REMARK VINA RESULT:      -1.3      4.374      6.268
REMARK  Name = 51137123
REMARK  4 active torsions:
REMARK  status: ('A' for Active; 'I' for Inactive)
REMARK    1  A    between atoms: N_4  and  C_8
REMARK    2  A    between atoms: C_7  and  C_8
REMARK    3  A    between atoms: C_9  and  C_18
REMARK    4  A    between atoms: C_23  and  C_25
REMARK                            x       y       z     vdW  Elec       q    Type
REMARK                         _______ _______ _______ _____ _____    ______ ____
ROOT
ATOM      5  N   UNL     1      14.813  -6.804  28.341  0.00  0.00    -0.342 N 
ATOM      6  N   UNL     1      16.656  -7.137  29.539  0.00  0.00    -0.232 NA
ATOM     18  C   UNL     1      16.174  -6.689  28.401  0.00  0.00    +0.113 A 
ATOM     19  C   UNL     1      14.388  -7.366  29.518  0.00  0.00    +0.067 A 
ATOM     20  C   UNL     1      15.557  -7.563  30.249  0.00  0.00    +0.089 A 
ATOM     21  C   UNL     1      13.121  -7.706  29.992  0.00  0.00    +0.040 A 
ATOM     22  C   UNL     1      15.475  -8.134  31.530  0.00  0.00    +0.030 A 
ATOM     23  C   UNL     1      13.058  -8.273  31.269  0.00  0.00    +0.057 A 
ATOM     24  C   UNL     1      14.213  -8.484  32.027  0.00  0.00    +0.014 A 
ATOM     26  H   UNL     1      14.222  -6.528  27.568  0.00  0.00    +0.167 HD
ENDROOT
BRANCH  18   9
ATOM      4  N   UNL     1      17.392  -4.099  26.113  0.00  0.00    -0.301 NA
ATOM      9  C   UNL     1      16.964  -6.103  27.254  0.00  0.00    +0.070 C 
ATOM     10  C   UNL     1      17.339  -4.631  27.476  0.00  0.00    +0.095 C 
ATOM     11  C   UNL     1      16.222  -4.666  25.442  0.00  0.00    +0.085 C 
ATOM     12  C   UNL     1      16.241  -6.119  25.896  0.00  0.00    +0.028 C 
BRANCH   4   8
ATOM      8  C   UNL     1      17.397  -2.643  26.085  0.00  0.00    +0.088 C 
BRANCH   8   7
ATOM      7  C   UNL     1      16.694  -2.121  24.834  0.00  0.00    +0.003 C 
ATOM     13  C   UNL     1      17.241  -2.813  23.577  0.00  0.00    +0.005 C 
ATOM     14  C   UNL     1      16.842  -0.597  24.726  0.00  0.00    +0.005 C 
ATOM     15  C   UNL     1      16.591  -2.269  22.306  0.00  0.00    +0.000 C 
ATOM     16  C   UNL     1      16.194  -0.057  23.453  0.00  0.00    +0.000 C 
ATOM     17  C   UNL     1      16.731  -0.753  22.208  0.00  0.00    +0.000 C 
ENDBRANCH   8   7
ENDBRANCH   4   8
ENDBRANCH  18   9
BRANCH  23  25
ATOM      1  F   UNL     1      11.032  -7.590  32.310  0.00  0.00    -0.166 F 
ATOM      2  F   UNL     1      10.907  -9.259  30.923  0.00  0.00    -0.166 F 
ATOM      3  F   UNL     1      11.815  -9.539  32.873  0.00  0.00    -0.166 F 
ATOM     25  C   UNL     1      11.729  -8.660  31.832  0.00  0.00    +0.417 C 
ENDBRANCH  23  25
TORSDOF 4
ENDMDL
MODEL 5
REMARK VINA RESULT:      -1.1     14.955     18.350
REMARK  Name = 51137123
REMARK  4 active torsions:
REMARK  status: ('A' for Active; 'I' for Inactive)
REMARK    1  A    between atoms: N_4  and  C_8
REMARK    2  A    between atoms: C_7  and  C_8
REMARK    3  A    between atoms: C_9  and  C_18
REMARK    4  A    between atoms: C_23  and  C_25
REMARK                            x       y       z     vdW  Elec       q    Type
REMARK                         _______ _______ _______ _____ _____    ______ ____
ROOT
ATOM      5  N   UNL     1       0.881  -1.629  24.192  0.00  0.00    -0.342 N 
ATOM      6  N   UNL     1      -0.048   0.235  23.415  0.00  0.00    -0.232 NA
ATOM     18  C   UNL     1      -0.278  -0.952  23.930  0.00  0.00    +0.113 A 
ATOM     19  C   UNL     1       1.929  -0.825  23.819  0.00  0.00    +0.067 A 
ATOM     20  C   UNL     1       1.322   0.332  23.339  0.00  0.00    +0.089 A 
ATOM     21  C   UNL     1       3.311  -1.005  23.863  0.00  0.00    +0.040 A 
ATOM     22  C   UNL     1       2.128   1.382  22.867  0.00  0.00    +0.030 A 
ATOM     23  C   UNL     1       4.098   0.049  23.390  0.00  0.00    +0.057 A 
ATOM     24  C   UNL     1       3.519   1.223  22.900  0.00  0.00    +0.014 A 
ATOM     26  H   UNL     1       0.957  -2.557  24.588  0.00  0.00    +0.167 HD
ENDROOT
BRANCH  18   9
ATOM      4  N   UNL     1      -3.879  -1.024  24.602  0.00  0.00    -0.301 NA
ATOM      9  C   UNL     1      -1.628  -1.563  24.226  0.00  0.00    +0.070 C 
ATOM     10  C   UNL     1      -2.794  -0.740  23.661  0.00  0.00    +0.095 C 
ATOM     11  C   UNL     1      -3.256  -0.964  25.925  0.00  0.00    +0.085 C 
ATOM     12  C   UNL     1      -1.952  -1.722  25.721  0.00  0.00    +0.028 C 
BRANCH   4   8
ATOM      8  C   UNL     1      -4.989  -0.092  24.468  0.00  0.00    +0.088 C 
BRANCH   8   7
ATOM      7  C   UNL     1      -4.606   1.289  24.995  0.00  0.00    +0.003 C 
ATOM     13  C   UNL     1      -5.861   2.112  25.320  0.00  0.00    +0.005 C 
ATOM     14  C   UNL     1      -3.717   2.027  23.984  0.00  0.00    +0.005 C 
ATOM     15  C   UNL     1      -5.505   3.518  25.799  0.00  0.00    +0.000 C 
ATOM     16  C   UNL     1      -3.365   3.433  24.465  0.00  0.00    +0.000 C 
ATOM     17  C   UNL     1      -4.613   4.244  24.797  0.00  0.00    +0.000 C 
ENDBRANCH   8   7
ENDBRANCH   4   8
ENDBRANCH  18   9
BRANCH  23  25
ATOM      1  F   UNL     1       6.204   1.030  23.898  0.00  0.00    -0.166 F 
ATOM      2  F   UNL     1       6.031  -1.119  24.177  0.00  0.00    -0.166 F 
ATOM      3  F   UNL     1       6.129  -0.293  22.174  0.00  0.00    -0.166 F 
ATOM     25  C   UNL     1       5.586  -0.083  23.408  0.00  0.00    +0.417 C 
ENDBRANCH  23  25
TORSDOF 4
ENDMDL
