MODEL 1
REMARK VINA RESULT:      -7.3      0.000      0.000
REMARK  Name = 38027350
REMARK  13 active torsions:
REMARK  status: ('A' for Active; 'I' for Inactive)
REMARK    1  A    between atoms: O_3  and  C_28
REMARK    2  A    between atoms: N_5  and  C_16
REMARK    3  A    between atoms: N_6  and  C_15
REMARK    4  A    between atoms: C_7  and  C_11
REMARK    5  A    between atoms: C_8  and  C_15
REMARK    6  A    between atoms: C_10  and  C_14
REMARK    7  A    between atoms: C_11  and  C_17
REMARK    8  A    between atoms: C_11  and  C_18
REMARK    9  A    between atoms: C_12  and  C_22
REMARK   10  A    between atoms: C_14  and  C_21
REMARK   11  A    between atoms: C_25  and  C_26
REMARK   12  A    between atoms: C_26  and  C_27
REMARK   13  A    between atoms: C_27  and  C_28
REMARK                            x       y       z     vdW  Elec       q    Type
REMARK                         _______ _______ _______ _____ _____    ______ ____
ROOT
ATOM      7  C   UNL     1      -1.071   0.522  24.659  0.00  0.00    +0.000 C 
ATOM      8  C   UNL     1      -0.353  -0.836  24.459  0.00  0.00    +0.032 C 
ATOM      9  C   UNL     1      -2.194   0.387  25.700  0.00  0.00    +0.012 C 
ATOM     10  C   UNL     1      -3.243  -0.664  25.293  0.00  0.00    +0.023 C 
ATOM     12  C   UNL     1      -2.597  -1.952  24.824  0.00  0.00    -0.073 C 
ATOM     13  C   UNL     1      -1.301  -2.013  24.468  0.00  0.00    -0.022 C 
ATOM     22  C   UNL     1      -3.464  -3.180  24.816  0.00  0.00    +0.039 C 
ENDROOT
BRANCH   7  11
ATOM     11  C   UNL     1      -0.096   1.623  25.087  0.00  0.00    -0.013 C 
ATOM     17  C   UNL     1      -0.169   2.803  24.121  0.00  0.00    +0.007 C 
ATOM     18  C   UNL     1      -0.394   2.072  26.514  0.00  0.00    +0.007 C 
ENDBRANCH   7  11
BRANCH  10  14
ATOM     14  C   UNL     1      -4.197  -0.109  24.229  0.00  0.00    +0.103 C 
BRANCH  14  21
ATOM      1  O   UNL     1      -5.906   1.224  25.304  0.00  0.00    -0.276 OA
ATOM      5  N   UNL     1      -4.114   2.280  24.266  0.00  0.00    -0.312 N 
ATOM     21  C   UNL     1      -4.854   1.179  24.671  0.00  0.00    +0.214 C 
ATOM     29  H   UNL     1      -3.230   2.126  23.789  0.00  0.00    +0.149 HD
BRANCH   5  16
ATOM     16  C   UNL     1      -4.505   3.638  24.548  0.00  0.00    +0.073 C 
ATOM     19  C   UNL     1      -3.454   4.636  24.077  0.00  0.00    +0.022 C 
ATOM     20  C   UNL     1      -4.579   3.909  26.046  0.00  0.00    +0.022 C 
ATOM     23  C   UNL     1      -2.411   4.648  25.191  0.00  0.00    +0.002 C 
ATOM     24  C   UNL     1      -3.144   4.222  26.464  0.00  0.00    +0.002 C 
ENDBRANCH   5  16
ENDBRANCH  14  21
ENDBRANCH  10  14
BRANCH   8  15
ATOM     15  C   UNL     1       0.460  -0.845  23.160  0.00  0.00    +0.112 C 
BRANCH  15   6
ATOM      2  O   UNL     1       2.372  -0.160  21.099  0.00  0.00    -0.276 OA
ATOM      6  N   UNL     1       1.676  -0.112  23.318  0.00  0.00    -0.315 N 
ATOM     25  C   UNL     1       2.547   0.178  22.267  0.00  0.00    +0.214 C 
ATOM     30  H   UNL     1       1.890   0.266  24.237  0.00  0.00    +0.149 HD
BRANCH  25  26
ATOM     26  C   UNL     1       3.758   0.969  22.728  0.00  0.00    +0.107 C 
BRANCH  26  27
ATOM     27  C   UNL     1       5.023   0.120  22.784  0.00  0.00    +0.129 C 
BRANCH  27  28
ATOM      4  O   UNL     1       5.826  -0.447  25.010  0.00  0.00    -0.251 OA
ATOM     28  C   UNL     1       5.103  -0.692  24.056  0.00  0.00    +0.305 C 
BRANCH  28   3
ATOM      3  O   UNL     1       4.256  -1.755  24.020  0.00  0.00    -0.481 OA
ATOM     31  H   UNL     1       4.702  -2.586  24.287  0.00  0.00    +0.295 HD
ENDBRANCH  28   3
ENDBRANCH  27  28
ENDBRANCH  26  27
ENDBRANCH  25  26
ENDBRANCH  15   6
ENDBRANCH   8  15
TORSDOF 10
ENDMDL
MODEL 2
REMARK VINA RESULT:      -6.0      1.708      7.492
REMARK  Name = 38027350
REMARK  13 active torsions:
REMARK  status: ('A' for Active; 'I' for Inactive)
REMARK    1  A    between atoms: O_3  and  C_28
REMARK    2  A    between atoms: N_5  and  C_16
REMARK    3  A    between atoms: N_6  and  C_15
REMARK    4  A    between atoms: C_7  and  C_11
REMARK    5  A    between atoms: C_8  and  C_15
REMARK    6  A    between atoms: C_10  and  C_14
REMARK    7  A    between atoms: C_11  and  C_17
REMARK    8  A    between atoms: C_11  and  C_18
REMARK    9  A    between atoms: C_12  and  C_22
REMARK   10  A    between atoms: C_14  and  C_21
REMARK   11  A    between atoms: C_25  and  C_26
REMARK   12  A    between atoms: C_26  and  C_27
REMARK   13  A    between atoms: C_27  and  C_28
REMARK                            x       y       z     vdW  Elec       q    Type
REMARK                         _______ _______ _______ _____ _____    ______ ____
ROOT
ATOM      7  C   UNL     1      -2.269  -1.187  24.330  0.00  0.00    +0.000 C 
ATOM      8  C   UNL     1      -2.874  -0.312  25.457  0.00  0.00    +0.032 C 
ATOM      9  C   UNL     1      -0.753  -1.343  24.527  0.00  0.00    +0.012 C 
ATOM     10  C   UNL     1      -0.024   0.014  24.536  0.00  0.00    +0.023 C 
ATOM     12  C   UNL     1      -0.722   1.022  25.426  0.00  0.00    -0.073 C 
ATOM     13  C   UNL     1      -1.991   0.853  25.839  0.00  0.00    -0.022 C 
ATOM     22  C   UNL     1       0.088   2.209  25.870  0.00  0.00    +0.039 C 
ENDROOT
BRANCH   7  11
ATOM     11  C   UNL     1      -2.928  -2.569  24.266  0.00  0.00    -0.013 C 
ATOM     17  C   UNL     1      -3.126  -3.129  25.671  0.00  0.00    +0.007 C 
ATOM     18  C   UNL     1      -4.257  -2.489  23.523  0.00  0.00    +0.007 C 
ENDBRANCH   7  11
BRANCH  10  14
ATOM     14  C   UNL     1       0.143   0.562  23.113  0.00  0.00    +0.103 C 
BRANCH  14  21
ATOM      1  O   UNL     1       1.178  -0.599  21.260  0.00  0.00    -0.276 OA
ATOM      5  N   UNL     1       2.446  -0.080  23.137  0.00  0.00    -0.312 N 
ATOM     21  C   UNL     1       1.284  -0.105  22.379  0.00  0.00    +0.214 C 
ATOM     29  H   UNL     1       2.434   0.401  24.033  0.00  0.00    +0.149 HD
BRANCH   5  16
ATOM     16  C   UNL     1       3.692  -0.646  22.687  0.00  0.00    +0.073 C 
ATOM     19  C   UNL     1       4.391  -1.423  23.795  0.00  0.00    +0.022 C 
ATOM     20  C   UNL     1       4.713   0.431  22.337  0.00  0.00    +0.022 C 
ATOM     23  C   UNL     1       5.110  -0.357  24.617  0.00  0.00    +0.002 C 
ATOM     24  C   UNL     1       5.354   0.817  23.669  0.00  0.00    +0.002 C 
ENDBRANCH   5  16
ENDBRANCH  14  21
ENDBRANCH  10  14
BRANCH   8  15
ATOM     15  C   UNL     1      -4.264   0.205  25.070  0.00  0.00    +0.112 C 
BRANCH  15   6
ATOM      2  O   UNL     1      -6.222   2.051  26.132  0.00  0.00    -0.276 OA
ATOM      6  N   UNL     1      -4.261   1.629  24.954  0.00  0.00    -0.315 N 
ATOM     25  C   UNL     1      -5.248   2.451  25.500  0.00  0.00    +0.214 C 
ATOM     30  H   UNL     1      -3.467   2.070  24.498  0.00  0.00    +0.149 HD
BRANCH  25  26
ATOM     26  C   UNL     1      -4.988   3.920  25.220  0.00  0.00    +0.107 C 
BRANCH  26  27
ATOM     27  C   UNL     1      -3.672   4.151  24.486  0.00  0.00    +0.129 C 
BRANCH  27  28
ATOM      4  O   UNL     1      -1.569   5.197  25.125  0.00  0.00    -0.251 OA
ATOM     28  C   UNL     1      -2.561   4.550  25.429  0.00  0.00    +0.305 C 
BRANCH  28   3
ATOM      3  O   UNL     1      -2.793   4.097  26.689  0.00  0.00    -0.481 OA
ATOM     31  H   UNL     1      -3.751   3.976  26.863  0.00  0.00    +0.295 HD
ENDBRANCH  28   3
ENDBRANCH  27  28
ENDBRANCH  26  27
ENDBRANCH  25  26
ENDBRANCH  15   6
ENDBRANCH   8  15
TORSDOF 10
ENDMDL
MODEL 3
REMARK VINA RESULT:      -5.3      1.456      3.235
REMARK  Name = 38027350
REMARK  13 active torsions:
REMARK  status: ('A' for Active; 'I' for Inactive)
REMARK    1  A    between atoms: O_3  and  C_28
REMARK    2  A    between atoms: N_5  and  C_16
REMARK    3  A    between atoms: N_6  and  C_15
REMARK    4  A    between atoms: C_7  and  C_11
REMARK    5  A    between atoms: C_8  and  C_15
REMARK    6  A    between atoms: C_10  and  C_14
REMARK    7  A    between atoms: C_11  and  C_17
REMARK    8  A    between atoms: C_11  and  C_18
REMARK    9  A    between atoms: C_12  and  C_22
REMARK   10  A    between atoms: C_14  and  C_21
REMARK   11  A    between atoms: C_25  and  C_26
REMARK   12  A    between atoms: C_26  and  C_27
REMARK   13  A    between atoms: C_27  and  C_28
REMARK                            x       y       z     vdW  Elec       q    Type
REMARK                         _______ _______ _______ _____ _____    ______ ____
ROOT
ATOM      7  C   UNL     1      -3.118  -0.687  24.798  0.00  0.00    +0.000 C 
ATOM      8  C   UNL     1      -2.000  -0.093  23.904  0.00  0.00    +0.032 C 
ATOM      9  C   UNL     1      -4.500  -0.391  24.197  0.00  0.00    +0.012 C 
ATOM     10  C   UNL     1      -4.754   1.120  24.036  0.00  0.00    +0.023 C 
ATOM     12  C   UNL     1      -3.573   1.825  23.399  0.00  0.00    -0.073 C 
ATOM     13  C   UNL     1      -2.354   1.261  23.338  0.00  0.00    -0.022 C 
ATOM     22  C   UNL     1      -3.838   3.175  22.794  0.00  0.00    +0.039 C 
ENDROOT
BRANCH   7  11
ATOM     11  C   UNL     1      -2.949  -2.198  24.992  0.00  0.00    -0.013 C 
ATOM     17  C   UNL     1      -4.034  -2.956  24.232  0.00  0.00    +0.007 C 
ATOM     18  C   UNL     1      -1.561  -2.640  24.541  0.00  0.00    +0.007 C 
ENDBRANCH   7  11
BRANCH  10  14
ATOM     14  C   UNL     1      -5.119   1.764  25.379  0.00  0.00    +0.103 C 
BRANCH  14  21
ATOM      1  O   UNL     1      -4.873   4.171  25.325  0.00  0.00    -0.276 OA
ATOM      5  N   UNL     1      -3.133   2.860  26.135  0.00  0.00    -0.312 N 
ATOM     21  C   UNL     1      -4.394   3.073  25.597  0.00  0.00    +0.214 C 
ATOM     29  H   UNL     1      -2.856   1.910  26.368  0.00  0.00    +0.149 HD
BRANCH   5  16
ATOM     16  C   UNL     1      -2.218   3.929  26.445  0.00  0.00    +0.073 C 
ATOM     19  C   UNL     1      -1.965   4.822  25.236  0.00  0.00    +0.022 C 
ATOM     20  C   UNL     1      -0.825   3.408  26.776  0.00  0.00    +0.022 C 
ATOM     23  C   UNL     1      -0.907   4.078  24.426  0.00  0.00    +0.002 C 
ATOM     24  C   UNL     1      -0.147   3.202  25.422  0.00  0.00    +0.002 C 
ENDBRANCH   5  16
ENDBRANCH  14  21
ENDBRANCH  10  14
BRANCH   8  15
ATOM     15  C   UNL     1      -0.674   0.002  24.667  0.00  0.00    +0.112 C 
BRANCH  15   6
ATOM      2  O   UNL     1       1.429   1.770  23.763  0.00  0.00    -0.276 OA
ATOM      6  N   UNL     1       0.426  -0.327  23.815  0.00  0.00    -0.315 N 
ATOM     25  C   UNL     1       1.402   0.590  23.425  0.00  0.00    +0.214 C 
ATOM     30  H   UNL     1       0.531  -1.295  23.524  0.00  0.00    +0.149 HD
BRANCH  25  26
ATOM     26  C   UNL     1       2.447  -0.037  22.519  0.00  0.00    +0.107 C 
BRANCH  26  27
ATOM     27  C   UNL     1       3.796   0.667  22.608  0.00  0.00    +0.129 C 
BRANCH  27  28
ATOM      4  O   UNL     1       5.968   0.178  23.588  0.00  0.00    -0.251 OA
ATOM     28  C   UNL     1       4.804  -0.138  23.394  0.00  0.00    +0.305 C 
BRANCH  28   3
ATOM      3  O   UNL     1       4.256  -1.284  23.876  0.00  0.00    -0.481 OA
ATOM     31  H   UNL     1       4.810  -1.686  24.579  0.00  0.00    +0.295 HD
ENDBRANCH  28   3
ENDBRANCH  27  28
ENDBRANCH  26  27
ENDBRANCH  25  26
ENDBRANCH  15   6
ENDBRANCH   8  15
TORSDOF 10
ENDMDL
