MODEL 1
REMARK VINA RESULT:       2.5      0.000      0.000
REMARK  Name = 38027975
REMARK  12 active torsions:
REMARK  status: ('A' for Active; 'I' for Inactive)
REMARK    1  A    between atoms: N_5  and  C_16
REMARK    2  A    between atoms: N_6  and  C_26
REMARK    3  A    between atoms: N_7  and  C_32
REMARK    4  A    between atoms: C_8  and  C_12
REMARK    5  A    between atoms: C_9  and  C_16
REMARK    6  A    between atoms: C_11  and  C_15
REMARK    7  A    between atoms: C_12  and  C_17
REMARK    8  A    between atoms: C_12  and  C_18
REMARK    9  A    between atoms: C_13  and  C_19
REMARK   10  A    between atoms: C_15  and  C_20
REMARK   11  A    between atoms: C_25  and  C_27
REMARK   12  A    between atoms: C_33  and  C_34
REMARK                            x       y       z     vdW  Elec       q    Type
REMARK                         _______ _______ _______ _____ _____    ______ ____
ROOT
ATOM      8  C   UNL     1      -1.626   0.225  24.964  0.00  0.00    +0.000 C 
ATOM      9  C   UNL     1      -1.088  -1.102  24.374  0.00  0.00    +0.032 C 
ATOM     10  C   UNL     1      -2.741  -0.055  25.983  0.00  0.00    +0.012 C 
ATOM     11  C   UNL     1      -3.921  -0.825  25.359  0.00  0.00    +0.023 C 
ATOM     13  C   UNL     1      -3.449  -2.003  24.532  0.00  0.00    -0.073 C 
ATOM     14  C   UNL     1      -2.176  -2.117  24.112  0.00  0.00    -0.022 C 
ATOM     19  C   UNL     1      -4.463  -3.073  24.237  0.00  0.00    +0.039 C 
ENDROOT
BRANCH   8  12
ATOM     12  C   UNL     1      -0.515   1.046  25.625  0.00  0.00    -0.013 C 
ATOM     17  C   UNL     1       0.190   1.918  24.591  0.00  0.00    +0.007 C 
ATOM     18  C   UNL     1      -1.082   1.899  26.754  0.00  0.00    +0.007 C 
ENDBRANCH   8  12
BRANCH  11  15
ATOM     15  C   UNL     1      -4.812   0.106  24.530  0.00  0.00    +0.103 C 
BRANCH  15  20
ATOM      1  O   UNL     1      -5.945   1.264  26.259  0.00  0.00    -0.276 OA
ATOM      4  N   UNL     1      -4.501   2.520  24.944  0.00  0.00    -0.299 N 
ATOM      6  N   UNL     1      -2.694   4.735  24.743  0.00  0.00    -0.302 NA
ATOM     20  C   UNL     1      -5.143   1.343  25.326  0.00  0.00    +0.216 C 
ATOM     21  C   UNL     1      -4.765   3.762  25.669  0.00  0.00    +0.123 C 
ATOM     22  C   UNL     1      -3.648   2.675  23.761  0.00  0.00    +0.123 C 
ATOM     23  C   UNL     1      -3.469   4.513  25.973  0.00  0.00    +0.103 C 
ATOM     24  C   UNL     1      -2.375   3.452  24.099  0.00  0.00    +0.103 C 
ATOM     26  C   UNL     1      -1.471   5.482  25.034  0.00  0.00    +0.105 C 
ENDBRANCH  15  20
ENDBRANCH  11  15
BRANCH   9  16
ATOM     16  C   UNL     1      -0.300  -0.853  23.083  0.00  0.00    +0.112 C 
BRANCH  16   5
ATOM      2  O   UNL     1       1.771  -0.281  21.177  0.00  0.00    -0.270 OA
ATOM      5  N   UNL     1       1.087  -0.656  23.363  0.00  0.00    -0.311 N 
ATOM     25  C   UNL     1       2.030  -0.380  22.374  0.00  0.00    +0.244 C 
ATOM     35  H   UNL     1       1.363  -0.633  24.340  0.00  0.00    +0.149 HD
BRANCH  25  27
ATOM     27  C   UNL     1       3.437  -0.228  22.826  0.00  0.00    +0.037 A 
ATOM     28  C   UNL     1       4.091  -1.295  23.443  0.00  0.00    +0.015 A 
ATOM     29  C   UNL     1       4.106   0.981  22.632  0.00  0.00    +0.015 A 
ATOM     30  C   UNL     1       5.411  -1.153  23.867  0.00  0.00    +0.024 A 
ATOM     31  C   UNL     1       5.427   1.124  23.056  0.00  0.00    +0.024 A 
ATOM     32  C   UNL     1       6.079   0.057  23.674  0.00  0.00    +0.033 A 
BRANCH  32   7
ATOM      3  O   UNL     1       8.660  -0.653  22.294  0.00  0.00    -0.276 OA
ATOM      7  N   UNL     1       7.401   0.199  24.096  0.00  0.00    -0.286 N 
ATOM     33  C   UNL     1       8.572  -0.152  23.410  0.00  0.00    +0.214 C 
ATOM     34  C   UNL     1       9.808   0.164  24.215  0.00  0.00    +0.109 C 
ATOM     36  H   UNL     1       7.519   0.609  25.021  0.00  0.00    +0.155 HD
ENDBRANCH  32   7
ENDBRANCH  25  27
ENDBRANCH  16   5
ENDBRANCH   9  16
TORSDOF 7
ENDMDL
MODEL 2
REMARK VINA RESULT:       4.9      2.185      5.104
REMARK  Name = 38027975
REMARK  12 active torsions:
REMARK  status: ('A' for Active; 'I' for Inactive)
REMARK    1  A    between atoms: N_5  and  C_16
REMARK    2  A    between atoms: N_6  and  C_26
REMARK    3  A    between atoms: N_7  and  C_32
REMARK    4  A    between atoms: C_8  and  C_12
REMARK    5  A    between atoms: C_9  and  C_16
REMARK    6  A    between atoms: C_11  and  C_15
REMARK    7  A    between atoms: C_12  and  C_17
REMARK    8  A    between atoms: C_12  and  C_18
REMARK    9  A    between atoms: C_13  and  C_19
REMARK   10  A    between atoms: C_15  and  C_20
REMARK   11  A    between atoms: C_25  and  C_27
REMARK   12  A    between atoms: C_33  and  C_34
REMARK                            x       y       z     vdW  Elec       q    Type
REMARK                         _______ _______ _______ _____ _____    ______ ____
ROOT
ATOM      8  C   UNL     1      -3.545   2.547  23.707  0.00  0.00    +0.000 C 
ATOM      9  C   UNL     1      -3.799   3.917  24.384  0.00  0.00    +0.032 C 
ATOM     10  C   UNL     1      -4.861   1.768  23.564  0.00  0.00    +0.012 C 
ATOM     11  C   UNL     1      -5.543   1.521  24.923  0.00  0.00    +0.023 C 
ATOM     13  C   UNL     1      -5.590   2.778  25.766  0.00  0.00    -0.073 C 
ATOM     14  C   UNL     1      -4.813   3.844  25.503  0.00  0.00    -0.022 C 
ATOM     19  C   UNL     1      -6.585   2.801  26.893  0.00  0.00    +0.039 C 
ENDROOT
BRANCH   8  12
ATOM     12  C   UNL     1      -2.885   2.705  22.334  0.00  0.00    -0.013 C 
ATOM     17  C   UNL     1      -2.462   1.346  21.787  0.00  0.00    +0.007 C 
ATOM     18  C   UNL     1      -3.831   3.407  21.366  0.00  0.00    +0.007 C 
ENDBRANCH   8  12
BRANCH  11  15
ATOM     15  C   UNL     1      -4.863   0.376  25.683  0.00  0.00    +0.103 C 
BRANCH  15  20
ATOM      1  O   UNL     1      -5.066  -0.834  23.655  0.00  0.00    -0.276 OA
ATOM      4  N   UNL     1      -3.381  -1.512  25.102  0.00  0.00    -0.299 N 
ATOM      6  N   UNL     1      -0.777  -2.659  25.440  0.00  0.00    -0.302 NA
ATOM     20  C   UNL     1      -4.453  -0.708  24.718  0.00  0.00    +0.216 C 
ATOM     21  C   UNL     1      -2.921  -2.583  24.219  0.00  0.00    +0.123 C 
ATOM     22  C   UNL     1      -2.720  -1.475  26.410  0.00  0.00    +0.123 C 
ATOM     23  C   UNL     1      -1.397  -2.593  24.108  0.00  0.00    +0.103 C 
ATOM     24  C   UNL     1      -1.198  -1.512  26.259  0.00  0.00    +0.103 C 
ATOM     26  C   UNL     1       0.680  -2.702  25.327  0.00  0.00    +0.105 C 
ENDBRANCH  15  20
ENDBRANCH  11  15
BRANCH   9  16
ATOM     16  C   UNL     1      -2.495   4.521  24.917  0.00  0.00    +0.112 C 
BRANCH  16   5
ATOM      2  O   UNL     1      -1.703   1.877  25.714  0.00  0.00    -0.270 OA
ATOM      5  N   UNL     1      -1.364   3.788  24.440  0.00  0.00    -0.311 N 
ATOM     25  C   UNL     1      -1.051   2.503  24.882  0.00  0.00    +0.244 C 
ATOM     35  H   UNL     1      -0.829   4.202  23.684  0.00  0.00    +0.149 HD
BRANCH  25  27
ATOM     27  C   UNL     1       0.173   1.887  24.309  0.00  0.00    +0.037 A 
ATOM     28  C   UNL     1       1.297   2.674  24.055  0.00  0.00    +0.015 A 
ATOM     29  C   UNL     1       0.200   0.521  24.025  0.00  0.00    +0.015 A 
ATOM     30  C   UNL     1       2.446   2.096  23.519  0.00  0.00    +0.024 A 
ATOM     31  C   UNL     1       1.350  -0.058  23.487  0.00  0.00    +0.024 A 
ATOM     32  C   UNL     1       2.473   0.730  23.234  0.00  0.00    +0.033 A 
BRANCH  32   7
ATOM      3  O   UNL     1       5.298   0.667  24.274  0.00  0.00    -0.276 OA
ATOM      7  N   UNL     1       3.623   0.152  22.697  0.00  0.00    -0.286 N 
ATOM     33  C   UNL     1       4.921   0.154  23.226  0.00  0.00    +0.214 C 
ATOM     34  C   UNL     1       5.889  -0.585  22.336  0.00  0.00    +0.109 C 
ATOM     36  H   UNL     1       3.493  -0.330  21.809  0.00  0.00    +0.155 HD
ENDBRANCH  32   7
ENDBRANCH  25  27
ENDBRANCH  16   5
ENDBRANCH   9  16
TORSDOF 7
ENDMDL
MODEL 3
REMARK VINA RESULT:       5.3      1.591      3.946
REMARK  Name = 38027975
REMARK  12 active torsions:
REMARK  status: ('A' for Active; 'I' for Inactive)
REMARK    1  A    between atoms: N_5  and  C_16
REMARK    2  A    between atoms: N_6  and  C_26
REMARK    3  A    between atoms: N_7  and  C_32
REMARK    4  A    between atoms: C_8  and  C_12
REMARK    5  A    between atoms: C_9  and  C_16
REMARK    6  A    between atoms: C_11  and  C_15
REMARK    7  A    between atoms: C_12  and  C_17
REMARK    8  A    between atoms: C_12  and  C_18
REMARK    9  A    between atoms: C_13  and  C_19
REMARK   10  A    between atoms: C_15  and  C_20
REMARK   11  A    between atoms: C_25  and  C_27
REMARK   12  A    between atoms: C_33  and  C_34
REMARK                            x       y       z     vdW  Elec       q    Type
REMARK                         _______ _______ _______ _____ _____    ______ ____
ROOT
ATOM      8  C   UNL     1      -3.019   2.175  23.311  0.00  0.00    +0.000 C 
ATOM      9  C   UNL     1      -1.516   2.097  23.680  0.00  0.00    +0.032 C 
ATOM     10  C   UNL     1      -3.640   3.468  23.860  0.00  0.00    +0.012 C 
ATOM     11  C   UNL     1      -3.507   3.573  25.391  0.00  0.00    +0.023 C 
ATOM     13  C   UNL     1      -2.105   3.245  25.859  0.00  0.00    -0.073 C 
ATOM     14  C   UNL     1      -1.224   2.596  25.076  0.00  0.00    -0.022 C 
ATOM     19  C   UNL     1      -1.720   3.720  27.233  0.00  0.00    +0.039 C 
ENDROOT
BRANCH   8  12
ATOM     12  C   UNL     1      -3.237   2.097  21.797  0.00  0.00    -0.013 C 
ATOM     17  C   UNL     1      -3.952   3.349  21.297  0.00  0.00    +0.007 C 
ATOM     18  C   UNL     1      -1.907   1.911  21.076  0.00  0.00    +0.007 C 
ENDBRANCH   8  12
BRANCH  11  15
ATOM     15  C   UNL     1      -4.542   2.690  26.098  0.00  0.00    +0.103 C 
BRANCH  15  20
ATOM      1  O   UNL     1      -5.960   2.024  24.319  0.00  0.00    -0.276 OA
ATOM      4  N   UNL     1      -4.585   0.383  25.218  0.00  0.00    -0.299 N 
ATOM      6  N   UNL     1      -3.071  -2.016  24.814  0.00  0.00    -0.302 NA
ATOM     20  C   UNL     1      -5.098   1.676  25.130  0.00  0.00    +0.216 C 
ATOM     21  C   UNL     1      -5.069  -0.657  24.311  0.00  0.00    +0.123 C 
ATOM     22  C   UNL     1      -3.661  -0.093  26.253  0.00  0.00    +0.123 C 
ATOM     23  C   UNL     1      -3.912  -1.474  23.737  0.00  0.00    +0.103 C 
ATOM     24  C   UNL     1      -2.534  -0.927  25.643  0.00  0.00    +0.103 C 
ATOM     26  C   UNL     1      -1.985  -2.824  24.261  0.00  0.00    +0.105 C 
ENDBRANCH  15  20
ENDBRANCH  11  15
BRANCH   9  16
ATOM     16  C   UNL     1      -0.982   0.669  23.527  0.00  0.00    +0.112 C 
BRANCH  16   5
ATOM      2  O   UNL     1       0.836  -0.721  21.791  0.00  0.00    -0.270 OA
ATOM      5  N   UNL     1       0.443   0.646  23.626  0.00  0.00    -0.311 N 
ATOM     25  C   UNL     1       1.255  -0.057  22.736  0.00  0.00    +0.244 C 
ATOM     35  H   UNL     1       0.869   1.245  24.326  0.00  0.00    +0.149 HD
BRANCH  25  27
ATOM     27  C   UNL     1       2.718  -0.002  22.991  0.00  0.00    +0.037 A 
ATOM     28  C   UNL     1       3.438   1.148  22.667  0.00  0.00    +0.015 A 
ATOM     29  C   UNL     1       3.370  -1.099  23.555  0.00  0.00    +0.015 A 
ATOM     30  C   UNL     1       4.811   1.201  22.907  0.00  0.00    +0.024 A 
ATOM     31  C   UNL     1       4.743  -1.047  23.794  0.00  0.00    +0.024 A 
ATOM     32  C   UNL     1       5.463   0.103  23.470  0.00  0.00    +0.033 A 
BRANCH  32   7
ATOM      3  O   UNL     1       7.760  -1.144  21.973  0.00  0.00    -0.276 OA
ATOM      7  N   UNL     1       6.837   0.156  23.710  0.00  0.00    -0.286 N 
ATOM     33  C   UNL     1       7.868  -0.448  22.978  0.00  0.00    +0.214 C 
ATOM     34  C   UNL     1       9.223  -0.148  23.568  0.00  0.00    +0.109 C 
ATOM     36  H   UNL     1       7.114   0.704  24.523  0.00  0.00    +0.155 HD
ENDBRANCH  32   7
ENDBRANCH  25  27
ENDBRANCH  16   5
ENDBRANCH   9  16
TORSDOF 7
ENDMDL
