MODEL 1
REMARK VINA RESULT:      -0.5      0.000      0.000
REMARK  Name = 44716868
REMARK  13 active torsions:
REMARK  status: ('A' for Active; 'I' for Inactive)
REMARK    1  A    between atoms: O_3  and  C_16
REMARK    2  A    between atoms: O_3  and  C_25
REMARK    3  A    between atoms: O_4  and  C_17
REMARK    4  A    between atoms: O_5  and  C_21
REMARK    5  A    between atoms: N_8  and  C_26
REMARK    6  A    between atoms: N_9  and  C_27
REMARK    7  A    between atoms: C_10  and  C_20
REMARK    8  A    between atoms: C_12  and  C_21
REMARK    9  A    between atoms: C_12  and  C_22
REMARK   10  A    between atoms: C_13  and  C_23
REMARK   11  A    between atoms: C_23  and  C_24
REMARK   12  A    between atoms: C_26  and  C_28
REMARK   13  A    between atoms: C_27  and  C_29
REMARK                            x       y       z     vdW  Elec       q    Type
REMARK                         _______ _______ _______ _____ _____    ______ ____
ROOT
ATOM     10  C   UNL     1      -3.435   3.051  24.568  0.00  0.00    -0.023 C 
ATOM     11  C   UNL     1      -2.200   3.213  25.537  0.00  0.00    +0.007 C 
ATOM     12  C   UNL     1      -0.769   3.129  24.879  0.00  0.00    +0.031 C 
ATOM     13  C   UNL     1      -4.715   2.849  25.481  0.00  0.00    +0.032 C 
ATOM     14  C   UNL     1      -3.217   1.778  23.705  0.00  0.00    +0.011 C 
ATOM     15  C   UNL     1      -2.402   4.413  26.490  0.00  0.00    +0.007 C 
ATOM     16  C   UNL     1      -0.703   1.860  23.978  0.00  0.00    +0.186 C 
ATOM     17  C   UNL     1      -4.916   3.979  26.517  0.00  0.00    +0.119 C 
ATOM     18  C   UNL     1      -1.867   1.737  23.001  0.00  0.00    +0.046 C 
ATOM     19  C   UNL     1      -3.658   4.237  27.343  0.00  0.00    +0.032 C 
ATOM     20  C   UNL     1      -3.635   4.251  23.610  0.00  0.00    +0.012 C 
ATOM     22  C   UNL     1       0.297   2.961  26.001  0.00  0.00    +0.017 C 
ENDROOT
BRANCH  17   4
ATOM      4  O   UNL     1      -5.331   5.184  25.883  0.00  0.00    -0.391 OA
ATOM     35  H   UNL     1      -5.496   5.843  26.578  0.00  0.00    +0.210 HD
ENDBRANCH  17   4
BRANCH  16   3
ATOM      3  O   UNL     1       0.498   1.819  23.207  0.00  0.00    -0.446 OA
BRANCH   3  25
ATOM      7  O   UNL     1       0.686  -0.464  23.374  0.00  0.00    -0.226 OA
ATOM      9  N   UNL     1       2.549   0.898  23.130  0.00  0.00    -0.281 N 
ATOM     25  C   UNL     1       1.198   0.644  23.248  0.00  0.00    +0.401 C 
ATOM     38  H   UNL     1       2.845   1.863  23.025  0.00  0.00    +0.152 HD
BRANCH   9  27
ATOM     27  C   UNL     1       3.562  -0.132  23.137  0.00  0.00    +0.104 C 
ATOM     29  C   UNL     1       4.936   0.444  23.405  0.00  0.00    +0.024 C 
ENDBRANCH   9  27
ENDBRANCH   3  25
ENDBRANCH  16   3
BRANCH  12  21
ATOM     21  C   UNL     1      -0.359   4.395  24.099  0.00  0.00    +0.166 C 
BRANCH  21   5
ATOM      5  O   UNL     1      -0.647   5.515  24.908  0.00  0.00    -0.394 OA
ATOM     36  H   UNL     1       0.105   5.637  25.512  0.00  0.00    +0.209 HD
ENDBRANCH  21   5
ENDBRANCH  12  21
BRANCH  13  23
ATOM     23  C   UNL     1      -6.024   2.607  24.713  0.00  0.00    +0.102 C 
BRANCH  23  24
ATOM      6  O   UNL     1      -7.267   0.692  23.910  0.00  0.00    -0.276 OA
ATOM      8  N   UNL     1      -5.149   0.388  24.815  0.00  0.00    -0.311 N 
ATOM     24  C   UNL     1      -6.246   1.141  24.423  0.00  0.00    +0.214 C 
ATOM     37  H   UNL     1      -4.361   0.847  25.261  0.00  0.00    +0.149 HD
BRANCH   8  26
ATOM     26  C   UNL     1      -5.081  -1.047  24.660  0.00  0.00    +0.139 C 
BRANCH  26  28
ATOM      1  F   UNL     1      -1.538  -4.060  23.193  0.00  0.00    -0.205 F 
ATOM      2  F   UNL     1      -0.613  -0.917  26.612  0.00  0.00    -0.205 F 
ATOM     28  C   UNL     1      -3.671  -1.555  24.746  0.00  0.00    -0.025 A 
ATOM     30  C   UNL     1      -2.780  -0.989  25.658  0.00  0.00    +0.043 A 
ATOM     31  C   UNL     1      -3.250  -2.593  23.913  0.00  0.00    +0.043 A 
ATOM     32  C   UNL     1      -1.940  -3.065  23.993  0.00  0.00    +0.126 A 
ATOM     33  C   UNL     1      -1.469  -1.460  25.737  0.00  0.00    +0.126 A 
ATOM     34  C   UNL     1      -1.050  -2.498  24.904  0.00  0.00    +0.076 A 
ENDBRANCH  26  28
ENDBRANCH   8  26
ENDBRANCH  23  24
ENDBRANCH  13  23
TORSDOF 10
ENDMDL
MODEL 2
REMARK VINA RESULT:       2.5      2.261      5.002
REMARK  Name = 44716868
REMARK  13 active torsions:
REMARK  status: ('A' for Active; 'I' for Inactive)
REMARK    1  A    between atoms: O_3  and  C_16
REMARK    2  A    between atoms: O_3  and  C_25
REMARK    3  A    between atoms: O_4  and  C_17
REMARK    4  A    between atoms: O_5  and  C_21
REMARK    5  A    between atoms: N_8  and  C_26
REMARK    6  A    between atoms: N_9  and  C_27
REMARK    7  A    between atoms: C_10  and  C_20
REMARK    8  A    between atoms: C_12  and  C_21
REMARK    9  A    between atoms: C_12  and  C_22
REMARK   10  A    between atoms: C_13  and  C_23
REMARK   11  A    between atoms: C_23  and  C_24
REMARK   12  A    between atoms: C_26  and  C_28
REMARK   13  A    between atoms: C_27  and  C_29
REMARK                            x       y       z     vdW  Elec       q    Type
REMARK                         _______ _______ _______ _____ _____    ______ ____
ROOT
ATOM     10  C   UNL     1      -2.559   0.012  24.275  0.00  0.00    -0.023 C 
ATOM     11  C   UNL     1      -1.534  -1.073  23.763  0.00  0.00    +0.007 C 
ATOM     12  C   UNL     1      -0.004  -0.701  23.860  0.00  0.00    +0.031 C 
ATOM     13  C   UNL     1      -3.996  -0.444  23.786  0.00  0.00    +0.032 C 
ATOM     14  C   UNL     1      -2.204   1.373  23.616  0.00  0.00    +0.011 C 
ATOM     15  C   UNL     1      -1.893  -2.472  24.311  0.00  0.00    +0.007 C 
ATOM     16  C   UNL     1       0.211   0.713  23.242  0.00  0.00    +0.186 C 
ATOM     17  C   UNL     1      -4.372  -1.876  24.233  0.00  0.00    +0.119 C 
ATOM     18  C   UNL     1      -0.743   1.773  23.782  0.00  0.00    +0.046 C 
ATOM     19  C   UNL     1      -3.294  -2.896  23.873  0.00  0.00    +0.032 C 
ATOM     20  C   UNL     1      -2.543   0.205  25.811  0.00  0.00    +0.012 C 
ATOM     22  C   UNL     1       0.819  -1.711  23.009  0.00  0.00    +0.017 C 
ENDROOT
BRANCH  17   4
ATOM      4  O   UNL     1      -4.631  -1.922  25.632  0.00  0.00    -0.391 OA
ATOM     35  H   UNL     1      -4.196  -2.715  25.987  0.00  0.00    +0.210 HD
ENDBRANCH  17   4
BRANCH  16   3
ATOM      3  O   UNL     1       1.538   1.192  23.461  0.00  0.00    -0.446 OA
BRANCH   3  25
ATOM      7  O   UNL     1       2.337   0.052  21.633  0.00  0.00    -0.226 OA
ATOM      9  N   UNL     1       3.732   0.703  23.369  0.00  0.00    -0.281 N 
ATOM     25  C   UNL     1       2.521   0.597  22.717  0.00  0.00    +0.401 C 
ATOM     38  H   UNL     1       3.751   1.185  24.262  0.00  0.00    +0.152 HD
BRANCH   9  27
ATOM     27  C   UNL     1       4.972   0.176  22.848  0.00  0.00    +0.104 C 
ATOM     29  C   UNL     1       5.794  -0.485  23.935  0.00  0.00    +0.024 C 
ENDBRANCH   9  27
ENDBRANCH   3  25
ENDBRANCH  16   3
BRANCH  12  21
ATOM     21  C   UNL     1       0.576  -0.786  25.287  0.00  0.00    +0.166 C 
BRANCH  21   5
ATOM      5  O   UNL     1       0.568  -2.141  25.677  0.00  0.00    -0.394 OA
ATOM     36  H   UNL     1       0.658  -2.164  26.646  0.00  0.00    +0.209 HD
ENDBRANCH  21   5
ENDBRANCH  12  21
BRANCH  13  23
ATOM     23  C   UNL     1      -5.136   0.527  24.135  0.00  0.00    +0.102 C 
BRANCH  23  24
ATOM      6  O   UNL     1      -4.259   2.605  23.257  0.00  0.00    -0.276 OA
ATOM      8  N   UNL     1      -4.715   2.419  25.528  0.00  0.00    -0.311 N 
ATOM     24  C   UNL     1      -4.653   1.956  24.223  0.00  0.00    +0.214 C 
ATOM     37  H   UNL     1      -5.025   1.795  26.267  0.00  0.00    +0.149 HD
BRANCH   8  26
ATOM     26  C   UNL     1      -4.314   3.754  25.912  0.00  0.00    +0.139 C 
BRANCH  26  28
ATOM      1  F   UNL     1       0.229   2.478  27.147  0.00  0.00    -0.205 F 
ATOM      2  F   UNL     1      -0.411   6.092  24.155  0.00  0.00    -0.205 F 
ATOM     28  C   UNL     1      -2.827   3.941  25.821  0.00  0.00    -0.025 A 
ATOM     30  C   UNL     1      -2.300   4.950  25.015  0.00  0.00    +0.043 A 
ATOM     31  C   UNL     1      -1.972   3.106  26.541  0.00  0.00    +0.043 A 
ATOM     32  C   UNL     1      -0.591   3.280  26.455  0.00  0.00    +0.126 A 
ATOM     33  C   UNL     1      -0.918   5.124  24.929  0.00  0.00    +0.126 A 
ATOM     34  C   UNL     1      -0.064   4.288  25.649  0.00  0.00    +0.076 A 
ENDBRANCH  26  28
ENDBRANCH   8  26
ENDBRANCH  23  24
ENDBRANCH  13  23
TORSDOF 10
ENDMDL
MODEL 3
REMARK VINA RESULT:       2.9      2.567      6.606
REMARK  Name = 44716868
REMARK  13 active torsions:
REMARK  status: ('A' for Active; 'I' for Inactive)
REMARK    1  A    between atoms: O_3  and  C_16
REMARK    2  A    between atoms: O_3  and  C_25
REMARK    3  A    between atoms: O_4  and  C_17
REMARK    4  A    between atoms: O_5  and  C_21
REMARK    5  A    between atoms: N_8  and  C_26
REMARK    6  A    between atoms: N_9  and  C_27
REMARK    7  A    between atoms: C_10  and  C_20
REMARK    8  A    between atoms: C_12  and  C_21
REMARK    9  A    between atoms: C_12  and  C_22
REMARK   10  A    between atoms: C_13  and  C_23
REMARK   11  A    between atoms: C_23  and  C_24
REMARK   12  A    between atoms: C_26  and  C_28
REMARK   13  A    between atoms: C_27  and  C_29
REMARK                            x       y       z     vdW  Elec       q    Type
REMARK                         _______ _______ _______ _____ _____    ______ ____
ROOT
ATOM     10  C   UNL     1      -2.785  -0.048  24.188  0.00  0.00    -0.023 C 
ATOM     11  C   UNL     1      -3.767   0.260  25.385  0.00  0.00    +0.007 C 
ATOM     12  C   UNL     1      -4.668   1.547  25.247  0.00  0.00    +0.031 C 
ATOM     13  C   UNL     1      -1.783  -1.169  24.689  0.00  0.00    +0.032 C 
ATOM     14  C   UNL     1      -1.986   1.244  23.865  0.00  0.00    +0.011 C 
ATOM     15  C   UNL     1      -4.525  -1.015  25.817  0.00  0.00    +0.007 C 
ATOM     16  C   UNL     1      -3.767   2.752  24.843  0.00  0.00    +0.186 C 
ATOM     17  C   UNL     1      -2.493  -2.437  25.217  0.00  0.00    +0.119 C 
ATOM     18  C   UNL     1      -2.863   2.472  23.648  0.00  0.00    +0.046 C 
ATOM     19  C   UNL     1      -3.557  -2.111  26.263  0.00  0.00    +0.032 C 
ATOM     20  C   UNL     1      -3.506  -0.501  22.895  0.00  0.00    +0.012 C 
ATOM     22  C   UNL     1      -5.295   1.878  26.633  0.00  0.00    +0.017 C 
ENDROOT
BRANCH  17   4
ATOM      4  O   UNL     1      -3.078  -3.176  24.150  0.00  0.00    -0.391 OA
ATOM     35  H   UNL     1      -3.675  -3.836  24.539  0.00  0.00    +0.210 HD
ENDBRANCH  17   4
BRANCH  16   3
ATOM      3  O   UNL     1      -4.541   3.908  24.521  0.00  0.00    -0.446 OA
BRANCH   3  25
ATOM      7  O   UNL     1      -4.189   5.914  23.460  0.00  0.00    -0.226 OA
ATOM      9  N   UNL     1      -2.672   5.066  24.998  0.00  0.00    -0.281 N 
ATOM     25  C   UNL     1      -3.833   5.048  24.251  0.00  0.00    +0.401 C 
ATOM     38  H   UNL     1      -2.496   4.287  25.624  0.00  0.00    +0.152 HD
BRANCH   9  27
ATOM     27  C   UNL     1      -1.702   6.135  24.945  0.00  0.00    +0.104 C 
ATOM     29  C   UNL     1      -0.327   5.618  24.576  0.00  0.00    +0.024 C 
ENDBRANCH   9  27
ENDBRANCH   3  25
ENDBRANCH  16   3
BRANCH  12  21
ATOM     21  C   UNL     1      -5.857   1.383  24.278  0.00  0.00    +0.166 C 
BRANCH  21   5
ATOM      5  O   UNL     1      -6.978   2.013  24.858  0.00  0.00    -0.394 OA
ATOM     36  H   UNL     1      -7.616   2.184  24.143  0.00  0.00    +0.209 HD
ENDBRANCH  21   5
ENDBRANCH  12  21
BRANCH  13  23
ATOM     23  C   UNL     1      -0.697  -1.564  23.676  0.00  0.00    +0.102 C 
BRANCH  23  24
ATOM      6  O   UNL     1       0.589   0.352  24.405  0.00  0.00    -0.276 OA
ATOM      8  N   UNL     1       1.053  -0.627  22.349  0.00  0.00    -0.311 N 
ATOM     24  C   UNL     1       0.370  -0.502  23.550  0.00  0.00    +0.214 C 
ATOM     37  H   UNL     1       0.777  -1.348  21.689  0.00  0.00    +0.149 HD
BRANCH   8  26
ATOM     26  C   UNL     1       2.127   0.256  21.956  0.00  0.00    +0.139 C 
BRANCH  26  28
ATOM      1  F   UNL     1       6.279   1.782  24.010  0.00  0.00    -0.205 F 
ATOM      2  F   UNL     1       5.125  -2.802  24.290  0.00  0.00    -0.205 F 
ATOM     28  C   UNL     1       3.386  -0.014  22.728  0.00  0.00    -0.025 A 
ATOM     30  C   UNL     1       3.677  -1.308  23.158  0.00  0.00    +0.043 A 
ATOM     31  C   UNL     1       4.266   1.030  23.016  0.00  0.00    +0.043 A 
ATOM     32  C   UNL     1       5.436   0.779  23.734  0.00  0.00    +0.126 A 
ATOM     33  C   UNL     1       4.846  -1.559  23.876  0.00  0.00    +0.126 A 
ATOM     34  C   UNL     1       5.725  -0.515  24.164  0.00  0.00    +0.076 A 
ENDBRANCH  26  28
ENDBRANCH   8  26
ENDBRANCH  23  24
ENDBRANCH  13  23
TORSDOF 10
ENDMDL
