MODEL 1
REMARK VINA RESULT:      -1.9      0.000      0.000
REMARK  Name = 75368531
REMARK  4 active torsions:
REMARK  status: ('A' for Active; 'I' for Inactive)
REMARK    1  A    between atoms: N_6  and  C_16
REMARK    2  A    between atoms: N_8  and  C_23
REMARK    3  A    between atoms: C_16  and  C_18
REMARK    4  A    between atoms: C_17  and  C_19
REMARK                            x       y       z     vdW  Elec       q    Type
REMARK                         _______ _______ _______ _____ _____    ______ ____
ROOT
ATOM      1  O   UNL     1      16.891  -6.043  29.102  0.00  0.00    -0.252 OA
ATOM      2  O   UNL     1      11.050  -5.351  32.874  0.00  0.00    -0.270 OA
ATOM      5  N   UNL     1      14.838  -6.592  30.103  0.00  0.00    -0.278 N 
ATOM      6  N   UNL     1      16.064  -8.248  29.206  0.00  0.00    -0.276 N 
ATOM      7  N   UNL     1      12.845  -6.595  32.040  0.00  0.00    -0.294 N 
ATOM     10  C   UNL     1      14.004  -7.775  30.228  0.00  0.00    +0.112 C 
ATOM     11  C   UNL     1      14.928  -8.917  29.816  0.00  0.00    +0.134 C 
ATOM     12  C   UNL     1      13.451  -7.882  31.646  0.00  0.00    +0.132 C 
ATOM     13  C   UNL     1      14.342  -5.306  30.562  0.00  0.00    +0.128 C 
ATOM     14  C   UNL     1      13.755  -5.443  31.966  0.00  0.00    +0.127 C 
ATOM     15  C   UNL     1      16.037  -6.857  29.426  0.00  0.00    +0.306 C 
ATOM     17  C   UNL     1      11.540  -6.418  32.503  0.00  0.00    +0.247 C 
ENDROOT
BRANCH  17  19
ATOM      3  O   UNL     1       7.122  -8.569  32.637  0.00  0.00    -0.453 OA
ATOM      4  O   UNL     1       8.079 -10.781  32.682  0.00  0.00    -0.453 OA
ATOM     19  C   UNL     1      10.658  -7.590  32.551  0.00  0.00    +0.041 A 
ATOM     20  C   UNL     1       9.272  -7.414  32.568  0.00  0.00    +0.062 A 
ATOM     21  C   UNL     1      11.215  -8.881  32.577  0.00  0.00    +0.017 A 
ATOM     25  C   UNL     1       8.483  -8.546  32.613  0.00  0.00    +0.167 A 
ATOM     26  C   UNL     1      10.394 -10.010  32.622  0.00  0.00    +0.050 A 
ATOM     27  C   UNL     1       9.029  -9.808  32.639  0.00  0.00    +0.166 A 
ATOM     28  C   UNL     1       6.874  -9.989  32.681  0.00  0.00    +0.466 C 
ENDBRANCH  17  19
BRANCH   6  16
ATOM     16  C   UNL     1      17.138  -8.983  28.576  0.00  0.00    +0.183 C 
BRANCH  16  18
ATOM      8  N   UNL     1      16.595  -8.683  26.141  0.00  0.00    -0.336 N 
ATOM      9  N   UNL     1      16.501 -10.761  26.920  0.00  0.00    -0.239 NA
ATOM     18  C   UNL     1      16.743  -9.505  27.224  0.00  0.00    +0.127 A 
ATOM     22  C   UNL     1      16.235  -9.466  25.080  0.00  0.00    +0.106 A 
ATOM     23  C   UNL     1      16.780  -7.252  26.106  0.00  0.00    +0.150 C 
ATOM     24  C   UNL     1      16.183 -10.743  25.585  0.00  0.00    +0.130 A 
ENDBRANCH  16  18
ENDBRANCH   6  16
TORSDOF 3
ENDMDL
