MODEL 1
REMARK VINA RESULT:      -1.4      0.000      0.000
REMARK  Name = 45783388
REMARK  11 active torsions:
REMARK  status: ('A' for Active; 'I' for Inactive)
REMARK    1  A    between atoms: O_2  and  C_25
REMARK    2  A    between atoms: O_2  and  C_26
REMARK    3  A    between atoms: N_3  and  C_11
REMARK    4  A    between atoms: N_6  and  C_23
REMARK    5  A    between atoms: C_8  and  C_14
REMARK    6  A    between atoms: C_11  and  C_13
REMARK    7  A    between atoms: C_13  and  C_15
REMARK    8  A    between atoms: C_13  and  C_16
REMARK    9  A    between atoms: C_13  and  C_17
REMARK   10  A    between atoms: C_18  and  C_19
REMARK   11  A    between atoms: C_23  and  C_25
REMARK                            x       y       z     vdW  Elec       q    Type
REMARK                         _______ _______ _______ _____ _____    ______ ____
ROOT
ATOM      1  O   UNL     1      -5.876   1.260  24.747  0.00  0.00    -0.336 OA
ATOM      4  N   UNL     1      -3.780   0.822  25.408  0.00  0.00    -0.190 NA
ATOM      5  N   UNL     1      -5.566  -0.012  24.246  0.00  0.00    -0.056 NA
ATOM     14  C   UNL     1      -4.770   1.679  25.418  0.00  0.00    +0.245 A 
ATOM     18  C   UNL     1      -4.316  -0.199  24.678  0.00  0.00    +0.205 A 
ENDROOT
BRANCH  18  19
ATOM      6  N   UNL     1      -1.476  -0.219  24.594  0.00  0.00    -0.326 N 
ATOM      7  N   UNL     1      -1.462  -2.530  24.087  0.00  0.00    -0.240 NA
ATOM     19  C   UNL     1      -3.573  -1.392  24.395  0.00  0.00    +0.062 A 
ATOM     20  C   UNL     1      -2.189  -1.421  24.350  0.00  0.00    +0.130 A 
ATOM     21  C   UNL     1      -4.256  -2.579  24.154  0.00  0.00    +0.016 A 
ATOM     22  C   UNL     1      -3.543  -3.742  23.879  0.00  0.00    +0.020 A 
ATOM     24  C   UNL     1      -2.160  -3.665  23.857  0.00  0.00    +0.113 A 
ATOM     27  H   UNL     1      -1.968   0.494  25.124  0.00  0.00    +0.148 HD
BRANCH   6  23
ATOM     23  C   UNL     1      -0.052  -0.151  24.569  0.00  0.00    +0.131 C 
BRANCH  23  25
ATOM     25  C   UNL     1       0.416   0.462  23.259  0.00  0.00    +0.178 C 
BRANCH  25   2
ATOM      2  O   UNL     1       1.419  -0.365  22.682  0.00  0.00    -0.381 OA
ATOM     26  C   UNL     1       2.675   0.298  22.632  0.00  0.00    +0.194 C 
ENDBRANCH  25   2
ENDBRANCH  23  25
ENDBRANCH   6  23
ENDBRANCH  18  19
BRANCH  14   8
ATOM      3  N   UNL     1      -3.850   3.989  25.523  0.00  0.00    -0.291 NA
ATOM      8  C   UNL     1      -4.850   3.047  26.063  0.00  0.00    +0.146 C 
ATOM      9  C   UNL     1      -6.206   3.737  25.827  0.00  0.00    +0.030 C 
ATOM     10  C   UNL     1      -4.433   5.325  25.645  0.00  0.00    +0.085 C 
ATOM     12  C   UNL     1      -5.863   5.084  25.207  0.00  0.00    +0.017 C 
BRANCH   3  11
ATOM     11  C   UNL     1      -2.555   3.893  26.184  0.00  0.00    +0.091 C 
BRANCH  11  13
ATOM     13  C   UNL     1      -1.353   3.802  25.209  0.00  0.00    -0.025 C 
ATOM     15  C   UNL     1      -0.881   5.234  24.891  0.00  0.00    +0.012 C 
ATOM     16  C   UNL     1      -1.753   3.115  23.891  0.00  0.00    +0.012 C 
ATOM     17  C   UNL     1      -0.186   3.030  25.849  0.00  0.00    +0.012 C 
ENDBRANCH  11  13
ENDBRANCH   3  11
ENDBRANCH  14   8
TORSDOF 7
ENDMDL
MODEL 2
REMARK VINA RESULT:      -0.9      2.220      4.871
REMARK  Name = 45783388
REMARK  11 active torsions:
REMARK  status: ('A' for Active; 'I' for Inactive)
REMARK    1  A    between atoms: O_2  and  C_25
REMARK    2  A    between atoms: O_2  and  C_26
REMARK    3  A    between atoms: N_3  and  C_11
REMARK    4  A    between atoms: N_6  and  C_23
REMARK    5  A    between atoms: C_8  and  C_14
REMARK    6  A    between atoms: C_11  and  C_13
REMARK    7  A    between atoms: C_13  and  C_15
REMARK    8  A    between atoms: C_13  and  C_16
REMARK    9  A    between atoms: C_13  and  C_17
REMARK   10  A    between atoms: C_18  and  C_19
REMARK   11  A    between atoms: C_23  and  C_25
REMARK                            x       y       z     vdW  Elec       q    Type
REMARK                         _______ _______ _______ _____ _____    ______ ____
ROOT
ATOM      1  O   UNL     1      -0.548   3.248  25.926  0.00  0.00    -0.336 OA
ATOM      4  N   UNL     1      -0.752   2.455  23.841  0.00  0.00    -0.190 NA
ATOM      5  N   UNL     1       0.620   2.516  25.671  0.00  0.00    -0.056 NA
ATOM     14  C   UNL     1      -1.301   3.160  24.798  0.00  0.00    +0.245 A 
ATOM     18  C   UNL     1       0.424   2.081  24.423  0.00  0.00    +0.205 A 
ENDROOT
BRANCH  18  19
ATOM      6  N   UNL     1      -0.042  -0.669  23.884  0.00  0.00    -0.326 N 
ATOM      7  N   UNL     1       2.056  -0.861  22.808  0.00  0.00    -0.240 NA
ATOM     19  C   UNL     1       1.382   1.270  23.730  0.00  0.00    +0.062 A 
ATOM     20  C   UNL     1       1.172  -0.072  23.459  0.00  0.00    +0.130 A 
ATOM     21  C   UNL     1       2.578   1.840  23.305  0.00  0.00    +0.016 A 
ATOM     22  C   UNL     1       3.513   1.060  22.632  0.00  0.00    +0.020 A 
ATOM     24  C   UNL     1       3.207  -0.273  22.411  0.00  0.00    +0.113 A 
ATOM     27  H   UNL     1      -0.822  -0.038  24.039  0.00  0.00    +0.148 HD
BRANCH   6  23
ATOM     23  C   UNL     1      -0.347  -2.042  23.652  0.00  0.00    +0.131 C 
BRANCH  23  25
ATOM     25  C   UNL     1      -1.347  -2.535  24.685  0.00  0.00    +0.178 C 
BRANCH  25   2
ATOM      2  O   UNL     1      -2.582  -2.831  24.045  0.00  0.00    -0.381 OA
ATOM     26  C   UNL     1      -3.606  -3.104  24.991  0.00  0.00    +0.194 C 
ENDBRANCH  25   2
ENDBRANCH  23  25
ENDBRANCH   6  23
ENDBRANCH  18  19
BRANCH  14   8
ATOM      3  N   UNL     1      -3.738   3.013  25.279  0.00  0.00    -0.291 NA
ATOM      8  C   UNL     1      -2.634   3.878  24.819  0.00  0.00    +0.146 C 
ATOM      9  C   UNL     1      -2.648   5.077  25.784  0.00  0.00    +0.030 C 
ATOM     10  C   UNL     1      -4.718   3.895  25.912  0.00  0.00    +0.085 C 
ATOM     12  C   UNL     1      -3.830   4.828  26.711  0.00  0.00    +0.017 C 
BRANCH   3  11
ATOM     11  C   UNL     1      -4.328   2.217  24.210  0.00  0.00    +0.091 C 
BRANCH  11  13
ATOM     13  C   UNL     1      -4.017   0.702  24.305  0.00  0.00    -0.025 C 
ATOM     15  C   UNL     1      -3.273   0.280  23.023  0.00  0.00    +0.012 C 
ATOM     16  C   UNL     1      -5.308  -0.128  24.416  0.00  0.00    +0.012 C 
ATOM     17  C   UNL     1      -3.117   0.403  25.517  0.00  0.00    +0.012 C 
ENDBRANCH  11  13
ENDBRANCH   3  11
ENDBRANCH  14   8
TORSDOF 7
ENDMDL
MODEL 3
REMARK VINA RESULT:      -0.7      2.216      5.567
REMARK  Name = 45783388
REMARK  11 active torsions:
REMARK  status: ('A' for Active; 'I' for Inactive)
REMARK    1  A    between atoms: O_2  and  C_25
REMARK    2  A    between atoms: O_2  and  C_26
REMARK    3  A    between atoms: N_3  and  C_11
REMARK    4  A    between atoms: N_6  and  C_23
REMARK    5  A    between atoms: C_8  and  C_14
REMARK    6  A    between atoms: C_11  and  C_13
REMARK    7  A    between atoms: C_13  and  C_15
REMARK    8  A    between atoms: C_13  and  C_16
REMARK    9  A    between atoms: C_13  and  C_17
REMARK   10  A    between atoms: C_18  and  C_19
REMARK   11  A    between atoms: C_23  and  C_25
REMARK                            x       y       z     vdW  Elec       q    Type
REMARK                         _______ _______ _______ _____ _____    ______ ____
ROOT
ATOM      1  O   UNL     1      -0.795  -2.443  25.387  0.00  0.00    -0.336 OA
ATOM      4  N   UNL     1      -0.946  -0.564  24.177  0.00  0.00    -0.190 NA
ATOM      5  N   UNL     1       0.518  -2.093  25.045  0.00  0.00    -0.056 NA
ATOM     14  C   UNL     1      -1.594  -1.492  24.837  0.00  0.00    +0.245 A 
ATOM     18  C   UNL     1       0.346  -0.975  24.333  0.00  0.00    +0.205 A 
ENDROOT
BRANCH  18  19
ATOM      6  N   UNL     1       0.309   1.855  24.093  0.00  0.00    -0.326 N 
ATOM      7  N   UNL     1       2.458   1.845  23.104  0.00  0.00    -0.240 NA
ATOM     19  C   UNL     1       1.441  -0.247  23.763  0.00  0.00    +0.062 A 
ATOM     20  C   UNL     1       1.440   1.132  23.638  0.00  0.00    +0.130 A 
ATOM     21  C   UNL     1       2.559  -0.941  23.311  0.00  0.00    +0.016 A 
ATOM     22  C   UNL     1       3.626  -0.243  22.756  0.00  0.00    +0.020 A 
ATOM     24  C   UNL     1       3.527   1.137  22.676  0.00  0.00    +0.113 A 
ATOM     27  H   UNL     1      -0.269   1.393  24.789  0.00  0.00    +0.148 HD
BRANCH   6  23
ATOM     23  C   UNL     1       0.217   3.275  24.007  0.00  0.00    +0.131 C 
BRANCH  23  25
ATOM     25  C   UNL     1      -0.552   3.821  25.198  0.00  0.00    +0.178 C 
BRANCH  25   2
ATOM      2  O   UNL     1      -0.680   5.232  25.074  0.00  0.00    -0.381 OA
ATOM     26  C   UNL     1      -2.042   5.635  25.102  0.00  0.00    +0.194 C 
ENDBRANCH  25   2
ENDBRANCH  23  25
ENDBRANCH   6  23
ENDBRANCH  18  19
BRANCH  14   8
ATOM      3  N   UNL     1      -3.857  -0.494  24.562  0.00  0.00    -0.291 NA
ATOM      8  C   UNL     1      -3.083  -1.646  25.066  0.00  0.00    +0.146 C 
ATOM      9  C   UNL     1      -3.674  -2.865  24.336  0.00  0.00    +0.030 C 
ATOM     10  C   UNL     1      -5.172  -1.012  24.188  0.00  0.00    +0.085 C 
ATOM     12  C   UNL     1      -4.812  -2.308  23.491  0.00  0.00    +0.017 C 
BRANCH   3  11
ATOM     11  C   UNL     1      -3.950   0.599  25.521  0.00  0.00    +0.091 C 
BRANCH  11  13
ATOM     13  C   UNL     1      -4.429   1.939  24.907  0.00  0.00    -0.025 C 
ATOM     15  C   UNL     1      -4.040   3.078  25.869  0.00  0.00    +0.012 C 
ATOM     16  C   UNL     1      -5.957   1.956  24.723  0.00  0.00    +0.012 C 
ATOM     17  C   UNL     1      -3.753   2.191  23.547  0.00  0.00    +0.012 C 
ENDBRANCH  11  13
ENDBRANCH   3  11
ENDBRANCH  14   8
TORSDOF 7
ENDMDL
MODEL 4
REMARK VINA RESULT:       0.4      2.296      3.758
REMARK  Name = 45783388
REMARK  11 active torsions:
REMARK  status: ('A' for Active; 'I' for Inactive)
REMARK    1  A    between atoms: O_2  and  C_25
REMARK    2  A    between atoms: O_2  and  C_26
REMARK    3  A    between atoms: N_3  and  C_11
REMARK    4  A    between atoms: N_6  and  C_23
REMARK    5  A    between atoms: C_8  and  C_14
REMARK    6  A    between atoms: C_11  and  C_13
REMARK    7  A    between atoms: C_13  and  C_15
REMARK    8  A    between atoms: C_13  and  C_16
REMARK    9  A    between atoms: C_13  and  C_17
REMARK   10  A    between atoms: C_18  and  C_19
REMARK   11  A    between atoms: C_23  and  C_25
REMARK                            x       y       z     vdW  Elec       q    Type
REMARK                         _______ _______ _______ _____ _____    ______ ____
ROOT
ATOM      1  O   UNL     1      -2.111   2.375  22.854  0.00  0.00    -0.336 OA
ATOM      4  N   UNL     1      -1.714   1.714  24.957  0.00  0.00    -0.190 NA
ATOM      5  N   UNL     1      -1.423   1.159  22.757  0.00  0.00    -0.056 NA
ATOM     14  C   UNL     1      -2.240   2.630  24.183  0.00  0.00    +0.245 A 
ATOM     18  C   UNL     1      -1.225   0.833  24.038  0.00  0.00    +0.205 A 
ENDROOT
BRANCH  18  19
ATOM      6  N   UNL     1       1.335   0.155  23.009  0.00  0.00    -0.326 N 
ATOM      7  N   UNL     1       1.377  -1.830  24.294  0.00  0.00    -0.240 NA
ATOM     19  C   UNL     1      -0.540  -0.364  24.432  0.00  0.00    +0.062 A 
ATOM     20  C   UNL     1       0.708  -0.710  23.941  0.00  0.00    +0.130 A 
ATOM     21  C   UNL     1      -1.141  -1.223  25.345  0.00  0.00    +0.016 A 
ATOM     22  C   UNL     1      -0.484  -2.386  25.733  0.00  0.00    +0.020 A 
ATOM     24  C   UNL     1       0.762  -2.642  25.184  0.00  0.00    +0.113 A 
ATOM     27  H   UNL     1       1.026   1.122  23.016  0.00  0.00    +0.148 HD
BRANCH   6  23
ATOM     23  C   UNL     1       2.618  -0.117  22.449  0.00  0.00    +0.131 C 
BRANCH  23  25
ATOM     25  C   UNL     1       3.617   0.936  22.900  0.00  0.00    +0.178 C 
BRANCH  25   2
ATOM      2  O   UNL     1       4.937   0.420  22.778  0.00  0.00    -0.381 OA
ATOM     26  C   UNL     1       5.334  -0.276  23.951  0.00  0.00    +0.194 C 
ENDBRANCH  25   2
ENDBRANCH  23  25
ENDBRANCH   6  23
ENDBRANCH  18  19
BRANCH  14   8
ATOM      3  N   UNL     1      -4.061   3.679  25.516  0.00  0.00    -0.291 NA
ATOM      8  C   UNL     1      -2.961   3.908  24.559  0.00  0.00    +0.146 C 
ATOM      9  C   UNL     1      -2.041   4.925  25.256  0.00  0.00    +0.030 C 
ATOM     10  C   UNL     1      -4.186   4.904  26.303  0.00  0.00    +0.085 C 
ATOM     12  C   UNL     1      -2.736   5.254  26.570  0.00  0.00    +0.017 C 
BRANCH   3  11
ATOM     11  C   UNL     1      -5.316   3.311  24.871  0.00  0.00    +0.091 C 
BRANCH  11  13
ATOM     13  C   UNL     1      -5.858   1.921  25.292  0.00  0.00    -0.025 C 
ATOM     15  C   UNL     1      -7.051   1.572  24.380  0.00  0.00    +0.012 C 
ATOM     16  C   UNL     1      -6.346   1.929  26.751  0.00  0.00    +0.012 C 
ATOM     17  C   UNL     1      -4.778   0.838  25.125  0.00  0.00    +0.012 C 
ENDBRANCH  11  13
ENDBRANCH   3  11
ENDBRANCH  14   8
TORSDOF 7
ENDMDL
MODEL 5
REMARK VINA RESULT:       1.7      1.935      3.372
REMARK  Name = 45783388
REMARK  11 active torsions:
REMARK  status: ('A' for Active; 'I' for Inactive)
REMARK    1  A    between atoms: O_2  and  C_25
REMARK    2  A    between atoms: O_2  and  C_26
REMARK    3  A    between atoms: N_3  and  C_11
REMARK    4  A    between atoms: N_6  and  C_23
REMARK    5  A    between atoms: C_8  and  C_14
REMARK    6  A    between atoms: C_11  and  C_13
REMARK    7  A    between atoms: C_13  and  C_15
REMARK    8  A    between atoms: C_13  and  C_16
REMARK    9  A    between atoms: C_13  and  C_17
REMARK   10  A    between atoms: C_18  and  C_19
REMARK   11  A    between atoms: C_23  and  C_25
REMARK                            x       y       z     vdW  Elec       q    Type
REMARK                         _______ _______ _______ _____ _____    ______ ____
ROOT
ATOM      1  O   UNL     1      -2.874   1.993  22.685  0.00  0.00    -0.336 OA
ATOM      4  N   UNL     1      -1.401   1.683  24.344  0.00  0.00    -0.190 NA
ATOM      5  N   UNL     1      -2.741   0.606  22.834  0.00  0.00    -0.056 NA
ATOM     14  C   UNL     1      -2.051   2.551  23.611  0.00  0.00    +0.245 A 
ATOM     18  C   UNL     1      -1.856   0.503  23.831  0.00  0.00    +0.205 A 
ENDROOT
BRANCH  18  19
ATOM      6  N   UNL     1       0.858  -0.312  23.641  0.00  0.00    -0.326 N 
ATOM      7  N   UNL     1       0.367  -2.360  24.717  0.00  0.00    -0.240 NA
ATOM     19  C   UNL     1      -1.406  -0.761  24.335  0.00  0.00    +0.062 A 
ATOM     20  C   UNL     1      -0.087  -1.175  24.251  0.00  0.00    +0.130 A 
ATOM     21  C   UNL     1      -2.320  -1.620  24.937  0.00  0.00    +0.016 A 
ATOM     22  C   UNL     1      -1.891  -2.848  25.429  0.00  0.00    +0.020 A 
ATOM     24  C   UNL     1      -0.550  -3.169  25.295  0.00  0.00    +0.113 A 
ATOM     27  H   UNL     1       0.617   0.674  23.619  0.00  0.00    +0.148 HD
BRANCH   6  23
ATOM     23  C   UNL     1       2.237  -0.651  23.508  0.00  0.00    +0.131 C 
BRANCH  23  25
ATOM     25  C   UNL     1       2.893   0.238  22.464  0.00  0.00    +0.178 C 
BRANCH  25   2
ATOM      2  O   UNL     1       3.862   1.069  23.090  0.00  0.00    -0.381 OA
ATOM     26  C   UNL     1       5.074   0.368  23.329  0.00  0.00    +0.194 C 
ENDBRANCH  25   2
ENDBRANCH  23  25
ENDBRANCH   6  23
ENDBRANCH  18  19
BRANCH  14   8
ATOM      3  N   UNL     1      -2.711   4.616  24.834  0.00  0.00    -0.291 NA
ATOM      8  C   UNL     1      -2.013   4.065  23.655  0.00  0.00    +0.146 C 
ATOM      9  C   UNL     1      -0.581   4.620  23.753  0.00  0.00    +0.030 C 
ATOM     10  C   UNL     1      -2.048   5.880  25.152  0.00  0.00    +0.085 C 
ATOM     12  C   UNL     1      -0.587   5.520  24.981  0.00  0.00    +0.017 C 
BRANCH   3  11
ATOM     11  C   UNL     1      -4.143   4.785  24.625  0.00  0.00    +0.091 C 
BRANCH  11  13
ATOM     13  C   UNL     1      -5.019   3.778  25.413  0.00  0.00    -0.025 C 
ATOM     15  C   UNL     1      -6.335   4.481  25.799  0.00  0.00    +0.012 C 
ATOM     16  C   UNL     1      -4.317   3.314  26.701  0.00  0.00    +0.012 C 
ATOM     17  C   UNL     1      -5.353   2.550  24.548  0.00  0.00    +0.012 C 
ENDBRANCH  11  13
ENDBRANCH   3  11
ENDBRANCH  14   8
TORSDOF 7
ENDMDL
MODEL 6
REMARK VINA RESULT:       2.0      1.684      7.194
REMARK  Name = 45783388
REMARK  11 active torsions:
REMARK  status: ('A' for Active; 'I' for Inactive)
REMARK    1  A    between atoms: O_2  and  C_25
REMARK    2  A    between atoms: O_2  and  C_26
REMARK    3  A    between atoms: N_3  and  C_11
REMARK    4  A    between atoms: N_6  and  C_23
REMARK    5  A    between atoms: C_8  and  C_14
REMARK    6  A    between atoms: C_11  and  C_13
REMARK    7  A    between atoms: C_13  and  C_15
REMARK    8  A    between atoms: C_13  and  C_16
REMARK    9  A    between atoms: C_13  and  C_17
REMARK   10  A    between atoms: C_18  and  C_19
REMARK   11  A    between atoms: C_23  and  C_25
REMARK                            x       y       z     vdW  Elec       q    Type
REMARK                         _______ _______ _______ _____ _____    ______ ____
ROOT
ATOM      1  O   UNL     1      -0.313   0.794  26.147  0.00  0.00    -0.336 OA
ATOM      4  N   UNL     1      -0.660   1.866  24.211  0.00  0.00    -0.190 NA
ATOM      5  N   UNL     1      -0.810   2.060  26.486  0.00  0.00    -0.056 NA
ATOM     14  C   UNL     1      -0.256   0.763  24.790  0.00  0.00    +0.245 A 
ATOM     18  C   UNL     1      -0.989   2.632  25.291  0.00  0.00    +0.205 A 
ENDROOT
BRANCH  18  19
ATOM      6  N   UNL     1      -3.771   3.205  25.359  0.00  0.00    -0.326 N 
ATOM      7  N   UNL     1      -3.351   5.510  25.036  0.00  0.00    -0.240 NA
ATOM     19  C   UNL     1      -1.494   3.966  25.143  0.00  0.00    +0.062 A 
ATOM     20  C   UNL     1      -2.846   4.263  25.173  0.00  0.00    +0.130 A 
ATOM     21  C   UNL     1      -0.601   5.016  24.959  0.00  0.00    +0.016 A 
ATOM     22  C   UNL     1      -1.081   6.313  24.814  0.00  0.00    +0.020 A 
ATOM     24  C   UNL     1      -2.453   6.505  24.859  0.00  0.00    +0.113 A 
ATOM     27  H   UNL     1      -3.410   2.367  25.804  0.00  0.00    +0.148 HD
BRANCH   6  23
ATOM     23  C   UNL     1      -5.181   3.413  25.404  0.00  0.00    +0.131 C 
BRANCH  23  25
ATOM     25  C   UNL     1      -5.905   2.189  24.868  0.00  0.00    +0.178 C 
BRANCH  25   2
ATOM      2  O   UNL     1      -5.818   1.134  25.818  0.00  0.00    -0.381 OA
ATOM     26  C   UNL     1      -6.580   1.418  26.983  0.00  0.00    +0.194 C 
ENDBRANCH  25   2
ENDBRANCH  23  25
ENDBRANCH   6  23
ENDBRANCH  18  19
BRANCH  14   8
ATOM      3  N   UNL     1      -0.809  -1.284  23.487  0.00  0.00    -0.291 NA
ATOM      8  C   UNL     1       0.256  -0.518  24.165  0.00  0.00    +0.146 C 
ATOM      9  C   UNL     1       1.312  -0.266  23.074  0.00  0.00    +0.030 C 
ATOM     10  C   UNL     1      -0.161  -2.020  22.402  0.00  0.00    +0.085 C 
ATOM     12  C   UNL     1       0.784  -0.979  21.837  0.00  0.00    +0.017 C 
BRANCH   3  11
ATOM     11  C   UNL     1      -1.543  -2.165  24.386  0.00  0.00    +0.091 C 
BRANCH  11  13
ATOM     13  C   UNL     1      -3.023  -1.757  24.602  0.00  0.00    -0.025 C 
ATOM     15  C   UNL     1      -3.324  -0.541  23.703  0.00  0.00    +0.012 C 
ATOM     16  C   UNL     1      -3.286  -1.360  26.065  0.00  0.00    +0.012 C 
ATOM     17  C   UNL     1      -3.970  -2.904  24.210  0.00  0.00    +0.012 C 
ENDBRANCH  11  13
ENDBRANCH   3  11
ENDBRANCH  14   8
TORSDOF 7
ENDMDL
