MODEL 1
REMARK VINA RESULT:      -6.5      0.000      0.000
REMARK  Name = 75536513
REMARK  12 active torsions:
REMARK  status: ('A' for Active; 'I' for Inactive)
REMARK    1  A    between atoms: O_2  and  C_7
REMARK    2  A    between atoms: N_4  and  C_6
REMARK    3  A    between atoms: N_4  and  C_11
REMARK    4  A    between atoms: N_5  and  C_10
REMARK    5  A    between atoms: C_8  and  C_10
REMARK    6  A    between atoms: C_11  and  C_15
REMARK    7  A    between atoms: C_11  and  C_16
REMARK    8  A    between atoms: C_12  and  C_13
REMARK    9  A    between atoms: C_12  and  C_17
REMARK   10  A    between atoms: C_12  and  C_18
REMARK   11  A    between atoms: C_12  and  C_19
REMARK   12  A    between atoms: C_13  and  C_14
REMARK                            x       y       z     vdW  Elec       q    Type
REMARK                         _______ _______ _______ _____ _____    ______ ____
ROOT
ATOM      1  O   UNL     1      -1.105   2.156  23.194  0.00  0.00    -0.371 OA
ATOM      6  C   UNL     1      -3.123   3.237  23.827  0.00  0.00    +0.111 C 
ATOM      7  C   UNL     1      -2.373   2.817  25.079  0.00  0.00    +0.164 C 
ATOM      8  C   UNL     1      -0.960   2.658  24.534  0.00  0.00    +0.165 C 
ATOM      9  C   UNL     1      -2.465   2.362  22.774  0.00  0.00    +0.181 C 
ENDROOT
BRANCH   7   2
ATOM      2  O   UNL     1      -2.437   3.788  26.105  0.00  0.00    -0.388 OA
ATOM     22  H   UNL     1      -3.371   4.000  26.268  0.00  0.00    +0.210 HD
ENDBRANCH   7   2
BRANCH   6   4
ATOM      4  N   UNL     1      -4.560   3.037  23.914  0.00  0.00    -0.307 NA
ATOM     20  H   UNL     1      -4.834   2.222  23.366  0.00  0.00    +0.123 HD
BRANCH   4  11
ATOM     11  C   UNL     1      -4.984   2.870  25.299  0.00  0.00    +0.048 C 
ATOM     15  C   UNL     1      -5.774   1.574  25.458  0.00  0.00    +0.023 C 
ATOM     16  C   UNL     1      -5.817   4.075  25.723  0.00  0.00    +0.023 C 
ENDBRANCH   4  11
ENDBRANCH   6   4
BRANCH   8  10
ATOM     10  C   UNL     1      -0.106   1.704  25.350  0.00  0.00    +0.138 C 
BRANCH  10   5
ATOM      3  O   UNL     1       0.149  -0.638  23.665  0.00  0.00    -0.276 OA
ATOM      5  N   UNL     1      -0.758   0.426  25.521  0.00  0.00    -0.313 N 
ATOM     14  C   UNL     1      -0.575  -0.642  24.659  0.00  0.00    +0.214 C 
ATOM     21  H   UNL     1      -1.373   0.317  26.323  0.00  0.00    +0.149 HD
BRANCH  14  13
ATOM     13  C   UNL     1      -1.379  -1.870  25.053  0.00  0.00    +0.102 C 
BRANCH  13  12
ATOM     12  C   UNL     1      -2.910  -1.721  24.886  0.00  0.00    -0.029 C 
ATOM     17  C   UNL     1      -3.555  -3.056  24.479  0.00  0.00    +0.011 C 
ATOM     18  C   UNL     1      -3.499  -1.290  26.243  0.00  0.00    +0.011 C 
ATOM     19  C   UNL     1      -3.261  -0.650  23.841  0.00  0.00    +0.011 C 
ENDBRANCH  13  12
ENDBRANCH  14  13
ENDBRANCH  10   5
ENDBRANCH   8  10
TORSDOF 7
ENDMDL
MODEL 2
REMARK VINA RESULT:      -6.2      1.498      4.752
REMARK  Name = 75536513
REMARK  12 active torsions:
REMARK  status: ('A' for Active; 'I' for Inactive)
REMARK    1  A    between atoms: O_2  and  C_7
REMARK    2  A    between atoms: N_4  and  C_6
REMARK    3  A    between atoms: N_4  and  C_11
REMARK    4  A    between atoms: N_5  and  C_10
REMARK    5  A    between atoms: C_8  and  C_10
REMARK    6  A    between atoms: C_11  and  C_15
REMARK    7  A    between atoms: C_11  and  C_16
REMARK    8  A    between atoms: C_12  and  C_13
REMARK    9  A    between atoms: C_12  and  C_17
REMARK   10  A    between atoms: C_12  and  C_18
REMARK   11  A    between atoms: C_12  and  C_19
REMARK   12  A    between atoms: C_13  and  C_14
REMARK                            x       y       z     vdW  Elec       q    Type
REMARK                         _______ _______ _______ _____ _____    ______ ____
ROOT
ATOM      1  O   UNL     1      -0.927   1.201  25.911  0.00  0.00    -0.371 OA
ATOM      6  C   UNL     1      -0.725  -0.940  24.903  0.00  0.00    +0.111 C 
ATOM      7  C   UNL     1      -0.309   0.121  23.900  0.00  0.00    +0.164 C 
ATOM      8  C   UNL     1       0.009   1.289  24.824  0.00  0.00    +0.165 C 
ATOM      9  C   UNL     1      -1.511  -0.113  25.907  0.00  0.00    +0.181 C 
ENDROOT
BRANCH   7   2
ATOM      2  O   UNL     1       0.813  -0.265  23.131  0.00  0.00    -0.388 OA
ATOM     22  H   UNL     1       0.540  -0.329  22.200  0.00  0.00    +0.210 HD
ENDBRANCH   7   2
BRANCH   6   4
ATOM      4  N   UNL     1      -1.507  -2.018  24.321  0.00  0.00    -0.307 NA
ATOM     20  H   UNL     1      -1.140  -2.920  24.622  0.00  0.00    +0.123 HD
BRANCH   4  11
ATOM     11  C   UNL     1      -2.913  -1.906  24.691  0.00  0.00    +0.048 C 
ATOM     15  C   UNL     1      -3.505  -3.289  24.947  0.00  0.00    +0.023 C 
ATOM     16  C   UNL     1      -3.673  -1.181  23.586  0.00  0.00    +0.023 C 
ENDBRANCH   4  11
ENDBRANCH   6   4
BRANCH   8  10
ATOM     10  C   UNL     1      -0.117   2.641  24.145  0.00  0.00    +0.138 C 
BRANCH  10   5
ATOM      3  O   UNL     1      -2.470   2.068  22.556  0.00  0.00    -0.276 OA
ATOM      5  N   UNL     1      -1.442   3.194  24.310  0.00  0.00    -0.313 N 
ATOM     14  C   UNL     1      -2.512   2.859  23.496  0.00  0.00    +0.214 C 
ATOM     21  H   UNL     1      -1.584   3.853  25.070  0.00  0.00    +0.149 HD
BRANCH  14  13
ATOM     13  C   UNL     1      -3.795   3.583  23.871  0.00  0.00    +0.102 C 
BRANCH  13  12
ATOM     12  C   UNL     1      -4.365   3.210  25.260  0.00  0.00    -0.029 C 
ATOM     17  C   UNL     1      -3.407   3.636  26.385  0.00  0.00    +0.011 C 
ATOM     18  C   UNL     1      -5.698   3.961  25.446  0.00  0.00    +0.011 C 
ATOM     19  C   UNL     1      -4.638   1.701  25.370  0.00  0.00    +0.011 C 
ENDBRANCH  13  12
ENDBRANCH  14  13
ENDBRANCH  10   5
ENDBRANCH   8  10
TORSDOF 7
ENDMDL
MODEL 3
REMARK VINA RESULT:      -5.8      2.165      3.778
REMARK  Name = 75536513
REMARK  12 active torsions:
REMARK  status: ('A' for Active; 'I' for Inactive)
REMARK    1  A    between atoms: O_2  and  C_7
REMARK    2  A    between atoms: N_4  and  C_6
REMARK    3  A    between atoms: N_4  and  C_11
REMARK    4  A    between atoms: N_5  and  C_10
REMARK    5  A    between atoms: C_8  and  C_10
REMARK    6  A    between atoms: C_11  and  C_15
REMARK    7  A    between atoms: C_11  and  C_16
REMARK    8  A    between atoms: C_12  and  C_13
REMARK    9  A    between atoms: C_12  and  C_17
REMARK   10  A    between atoms: C_12  and  C_18
REMARK   11  A    between atoms: C_12  and  C_19
REMARK   12  A    between atoms: C_13  and  C_14
REMARK                            x       y       z     vdW  Elec       q    Type
REMARK                         _______ _______ _______ _____ _____    ______ ____
ROOT
ATOM      1  O   UNL     1      -5.722   1.973  25.364  0.00  0.00    -0.371 OA
ATOM      6  C   UNL     1      -3.828   3.384  25.114  0.00  0.00    +0.111 C 
ATOM      7  C   UNL     1      -3.484   1.998  24.598  0.00  0.00    +0.164 C 
ATOM      8  C   UNL     1      -4.873   1.430  24.339  0.00  0.00    +0.165 C 
ATOM      9  C   UNL     1      -5.050   3.093  25.968  0.00  0.00    +0.181 C 
ENDROOT
BRANCH   7   2
ATOM      2  O   UNL     1      -2.701   2.033  23.421  0.00  0.00    -0.388 OA
ATOM     22  H   UNL     1      -2.181   1.213  23.375  0.00  0.00    +0.210 HD
ENDBRANCH   7   2
BRANCH   6   4
ATOM      4  N   UNL     1      -2.750   4.011  25.862  0.00  0.00    -0.307 NA
ATOM     20  H   UNL     1      -2.655   3.571  26.777  0.00  0.00    +0.123 HD
BRANCH   4  11
ATOM     11  C   UNL     1      -1.489   3.926  25.137  0.00  0.00    +0.048 C 
ATOM     15  C   UNL     1      -0.480   3.097  25.926  0.00  0.00    +0.023 C 
ATOM     16  C   UNL     1      -0.958   5.331  24.875  0.00  0.00    +0.023 C 
ENDBRANCH   4  11
ENDBRANCH   6   4
BRANCH   8  10
ATOM     10  C   UNL     1      -4.918  -0.087  24.385  0.00  0.00    +0.138 C 
BRANCH  10   5
ATOM      3  O   UNL     1      -3.792  -2.518  25.489  0.00  0.00    -0.276 OA
ATOM      5  N   UNL     1      -3.624  -0.663  24.098  0.00  0.00    -0.313 N 
ATOM     14  C   UNL     1      -3.168  -1.835  24.678  0.00  0.00    +0.214 C 
ATOM     21  H   UNL     1      -3.033  -0.177  23.429  0.00  0.00    +0.149 HD
BRANCH  14  13
ATOM     13  C   UNL     1      -1.773  -2.224  24.217  0.00  0.00    +0.102 C 
BRANCH  13  12
ATOM     12  C   UNL     1      -0.628  -1.414  24.869  0.00  0.00    -0.029 C 
ATOM     17  C   UNL     1      -1.154  -0.539  26.019  0.00  0.00    +0.011 C 
ATOM     18  C   UNL     1       0.394  -2.413  25.447  0.00  0.00    +0.011 C 
ATOM     19  C   UNL     1       0.090  -0.524  23.842  0.00  0.00    +0.011 C 
ENDBRANCH  13  12
ENDBRANCH  14  13
ENDBRANCH  10   5
ENDBRANCH   8  10
TORSDOF 7
ENDMDL
MODEL 4
REMARK VINA RESULT:      -5.8      1.753      2.220
REMARK  Name = 75536513
REMARK  12 active torsions:
REMARK  status: ('A' for Active; 'I' for Inactive)
REMARK    1  A    between atoms: O_2  and  C_7
REMARK    2  A    between atoms: N_4  and  C_6
REMARK    3  A    between atoms: N_4  and  C_11
REMARK    4  A    between atoms: N_5  and  C_10
REMARK    5  A    between atoms: C_8  and  C_10
REMARK    6  A    between atoms: C_11  and  C_15
REMARK    7  A    between atoms: C_11  and  C_16
REMARK    8  A    between atoms: C_12  and  C_13
REMARK    9  A    between atoms: C_12  and  C_17
REMARK   10  A    between atoms: C_12  and  C_18
REMARK   11  A    between atoms: C_12  and  C_19
REMARK   12  A    between atoms: C_13  and  C_14
REMARK                            x       y       z     vdW  Elec       q    Type
REMARK                         _______ _______ _______ _____ _____    ______ ____
ROOT
ATOM      1  O   UNL     1      -0.850   1.790  23.094  0.00  0.00    -0.371 OA
ATOM      6  C   UNL     1      -1.186   2.978  25.123  0.00  0.00    +0.111 C 
ATOM      7  C   UNL     1      -0.197   1.852  25.366  0.00  0.00    +0.164 C 
ATOM      8  C   UNL     1       0.285   1.575  23.949  0.00  0.00    +0.165 C 
ATOM      9  C   UNL     1      -1.843   2.527  23.829  0.00  0.00    +0.181 C 
ENDROOT
BRANCH   7   2
ATOM      2  O   UNL     1       0.864   2.233  26.219  0.00  0.00    -0.388 OA
ATOM     22  H   UNL     1       1.434   1.459  26.364  0.00  0.00    +0.210 HD
ENDBRANCH   7   2
BRANCH   6   4
ATOM      4  N   UNL     1      -2.137   3.162  26.207  0.00  0.00    -0.307 NA
ATOM     20  H   UNL     1      -1.653   3.158  27.104  0.00  0.00    +0.123 HD
BRANCH   4  11
ATOM     11  C   UNL     1      -2.878   4.408  26.048  0.00  0.00    +0.048 C 
ATOM     15  C   UNL     1      -4.220   4.142  25.371  0.00  0.00    +0.023 C 
ATOM     16  C   UNL     1      -2.043   5.396  25.240  0.00  0.00    +0.023 C 
ENDBRANCH   4  11
ENDBRANCH   6   4
BRANCH   8  10
ATOM     10  C   UNL     1       0.810   0.162  23.760  0.00  0.00    +0.138 C 
BRANCH  10   5
ATOM      3  O   UNL     1      -0.434  -1.387  25.868  0.00  0.00    -0.276 OA
ATOM      5  N   UNL     1      -0.270  -0.789  23.628  0.00  0.00    -0.313 N 
ATOM     14  C   UNL     1      -0.802  -1.487  24.699  0.00  0.00    +0.214 C 
ATOM     21  H   UNL     1      -0.652  -0.938  22.698  0.00  0.00    +0.149 HD
BRANCH  14  13
ATOM     13  C   UNL     1      -1.922  -2.433  24.295  0.00  0.00    +0.102 C 
BRANCH  13  12
ATOM     12  C   UNL     1      -3.347  -1.853  24.455  0.00  0.00    -0.029 C 
ATOM     17  C   UNL     1      -4.407  -2.839  23.937  0.00  0.00    +0.011 C 
ATOM     18  C   UNL     1      -3.598  -1.614  25.957  0.00  0.00    +0.011 C 
ATOM     19  C   UNL     1      -3.496  -0.513  23.718  0.00  0.00    +0.011 C 
ENDBRANCH  13  12
ENDBRANCH  14  13
ENDBRANCH  10   5
ENDBRANCH   8  10
TORSDOF 7
ENDMDL
MODEL 5
REMARK VINA RESULT:      -4.9      1.640      4.705
REMARK  Name = 75536513
REMARK  12 active torsions:
REMARK  status: ('A' for Active; 'I' for Inactive)
REMARK    1  A    between atoms: O_2  and  C_7
REMARK    2  A    between atoms: N_4  and  C_6
REMARK    3  A    between atoms: N_4  and  C_11
REMARK    4  A    between atoms: N_5  and  C_10
REMARK    5  A    between atoms: C_8  and  C_10
REMARK    6  A    between atoms: C_11  and  C_15
REMARK    7  A    between atoms: C_11  and  C_16
REMARK    8  A    between atoms: C_12  and  C_13
REMARK    9  A    between atoms: C_12  and  C_17
REMARK   10  A    between atoms: C_12  and  C_18
REMARK   11  A    between atoms: C_12  and  C_19
REMARK   12  A    between atoms: C_13  and  C_14
REMARK                            x       y       z     vdW  Elec       q    Type
REMARK                         _______ _______ _______ _____ _____    ______ ____
ROOT
ATOM      1  O   UNL     1      -0.550   1.995  26.024  0.00  0.00    -0.371 OA
ATOM      6  C   UNL     1      -1.071   0.463  24.285  0.00  0.00    +0.111 C 
ATOM      7  C   UNL     1      -1.688   1.811  23.959  0.00  0.00    +0.164 C 
ATOM      8  C   UNL     1      -0.848   2.736  24.829  0.00  0.00    +0.165 C 
ATOM      9  C   UNL     1      -0.814   0.603  25.776  0.00  0.00    +0.181 C 
ENDROOT
BRANCH   7   2
ATOM      2  O   UNL     1      -1.586   2.140  22.587  0.00  0.00    -0.388 OA
ATOM     22  H   UNL     1      -2.342   1.746  22.120  0.00  0.00    +0.210 HD
ENDBRANCH   7   2
BRANCH   6   4
ATOM      4  N   UNL     1      -1.929  -0.665  23.961  0.00  0.00    -0.307 NA
ATOM     20  H   UNL     1      -1.595  -1.129  23.117  0.00  0.00    +0.123 HD
BRANCH   4  11
ATOM     11  C   UNL     1      -1.981  -1.617  25.064  0.00  0.00    +0.048 C 
ATOM     15  C   UNL     1      -0.834  -2.618  24.953  0.00  0.00    +0.023 C 
ATOM     16  C   UNL     1      -3.331  -2.328  25.057  0.00  0.00    +0.023 C 
ENDBRANCH   4  11
ENDBRANCH   6   4
BRANCH   8  10
ATOM     10  C   UNL     1      -1.559   4.029  25.189  0.00  0.00    +0.138 C 
BRANCH  10   5
ATOM      3  O   UNL     1      -4.039   3.899  23.698  0.00  0.00    -0.276 OA
ATOM      5  N   UNL     1      -2.883   3.776  25.711  0.00  0.00    -0.313 N 
ATOM     14  C   UNL     1      -4.017   3.733  24.916  0.00  0.00    +0.214 C 
ATOM     21  H   UNL     1      -2.970   3.616  26.710  0.00  0.00    +0.149 HD
BRANCH  14  13
ATOM     13  C   UNL     1      -5.286   3.459  25.706  0.00  0.00    +0.102 C 
BRANCH  13  12
ATOM     12  C   UNL     1      -5.799   2.003  25.620  0.00  0.00    -0.029 C 
ATOM     17  C   UNL     1      -6.484   1.579  26.930  0.00  0.00    +0.011 C 
ATOM     18  C   UNL     1      -6.837   1.928  24.483  0.00  0.00    +0.011 C 
ATOM     19  C   UNL     1      -4.660   1.022  25.303  0.00  0.00    +0.011 C 
ENDBRANCH  13  12
ENDBRANCH  14  13
ENDBRANCH  10   5
ENDBRANCH   8  10
TORSDOF 7
ENDMDL
MODEL 6
REMARK VINA RESULT:      -4.7     14.167     16.463
REMARK  Name = 75536513
REMARK  12 active torsions:
REMARK  status: ('A' for Active; 'I' for Inactive)
REMARK    1  A    between atoms: O_2  and  C_7
REMARK    2  A    between atoms: N_4  and  C_6
REMARK    3  A    between atoms: N_4  and  C_11
REMARK    4  A    between atoms: N_5  and  C_10
REMARK    5  A    between atoms: C_8  and  C_10
REMARK    6  A    between atoms: C_11  and  C_15
REMARK    7  A    between atoms: C_11  and  C_16
REMARK    8  A    between atoms: C_12  and  C_13
REMARK    9  A    between atoms: C_12  and  C_17
REMARK   10  A    between atoms: C_12  and  C_18
REMARK   11  A    between atoms: C_12  and  C_19
REMARK   12  A    between atoms: C_13  and  C_14
REMARK                            x       y       z     vdW  Elec       q    Type
REMARK                         _______ _______ _______ _____ _____    ______ ____
ROOT
ATOM      1  O   UNL     1      -3.632 -10.395  16.230  0.00  0.00    -0.371 OA
ATOM      6  C   UNL     1      -5.991 -10.125  16.170  0.00  0.00    +0.111 C 
ATOM      7  C   UNL     1      -5.450 -10.073  14.752  0.00  0.00    +0.164 C 
ATOM      8  C   UNL     1      -4.107 -10.768  14.925  0.00  0.00    +0.165 C 
ATOM      9  C   UNL     1      -4.734  -9.857  16.981  0.00  0.00    +0.181 C 
ENDROOT
BRANCH   7   2
ATOM      2  O   UNL     1      -6.279 -10.750  13.827  0.00  0.00    -0.388 OA
ATOM     22  H   UNL     1      -7.175 -10.378  13.890  0.00  0.00    +0.210 HD
ENDBRANCH   7   2
BRANCH   6   4
ATOM      4  N   UNL     1      -7.048  -9.160  16.426  0.00  0.00    -0.307 NA
ATOM     20  H   UNL     1      -7.002  -8.401  15.748  0.00  0.00    +0.123 HD
BRANCH   4  11
ATOM     11  C   UNL     1      -8.360  -9.794  16.375  0.00  0.00    +0.048 C 
ATOM     15  C   UNL     1      -9.188  -9.203  15.237  0.00  0.00    +0.023 C 
ATOM     16  C   UNL     1      -9.064  -9.613  17.716  0.00  0.00    +0.023 C 
ENDBRANCH   4  11
ENDBRANCH   6   4
BRANCH   8  10
ATOM     10  C   UNL     1      -3.086 -10.371  13.874  0.00  0.00    +0.138 C 
BRANCH  10   5
ATOM      3  O   UNL     1      -1.779  -9.739  11.367  0.00  0.00    -0.276 OA
ATOM      5  N   UNL     1      -3.563 -10.657  12.540  0.00  0.00    -0.313 N 
ATOM     14  C   UNL     1      -2.865 -10.314  11.394  0.00  0.00    +0.214 C 
ATOM     21  H   UNL     1      -4.452 -11.141  12.454  0.00  0.00    +0.149 HD
BRANCH  14  13
ATOM     13  C   UNL     1      -3.585 -10.717  10.116  0.00  0.00    +0.102 C 
BRANCH  13  12
ATOM     12  C   UNL     1      -4.743  -9.779   9.704  0.00  0.00    -0.029 C 
ATOM     17  C   UNL     1      -4.795  -9.600   8.177  0.00  0.00    +0.011 C 
ATOM     18  C   UNL     1      -6.066 -10.423  10.163  0.00  0.00    +0.011 C 
ATOM     19  C   UNL     1      -4.617  -8.400  10.371  0.00  0.00    +0.011 C 
ENDBRANCH  13  12
ENDBRANCH  14  13
ENDBRANCH  10   5
ENDBRANCH   8  10
TORSDOF 7
ENDMDL
MODEL 7
REMARK VINA RESULT:      -4.0     14.670     16.902
REMARK  Name = 75536513
REMARK  12 active torsions:
REMARK  status: ('A' for Active; 'I' for Inactive)
REMARK    1  A    between atoms: O_2  and  C_7
REMARK    2  A    between atoms: N_4  and  C_6
REMARK    3  A    between atoms: N_4  and  C_11
REMARK    4  A    between atoms: N_5  and  C_10
REMARK    5  A    between atoms: C_8  and  C_10
REMARK    6  A    between atoms: C_11  and  C_15
REMARK    7  A    between atoms: C_11  and  C_16
REMARK    8  A    between atoms: C_12  and  C_13
REMARK    9  A    between atoms: C_12  and  C_17
REMARK   10  A    between atoms: C_12  and  C_18
REMARK   11  A    between atoms: C_12  and  C_19
REMARK   12  A    between atoms: C_13  and  C_14
REMARK                            x       y       z     vdW  Elec       q    Type
REMARK                         _______ _______ _______ _____ _____    ______ ____
ROOT
ATOM      1  O   UNL     1      -5.132 -10.332  15.378  0.00  0.00    -0.371 OA
ATOM      6  C   UNL     1      -7.450  -9.847  15.552  0.00  0.00    +0.111 C 
ATOM      7  C   UNL     1      -7.081  -9.980  14.085  0.00  0.00    +0.164 C 
ATOM      8  C   UNL     1      -5.789 -10.780  14.180  0.00  0.00    +0.165 C 
ATOM      9  C   UNL     1      -6.088  -9.624  16.186  0.00  0.00    +0.181 C 
ENDROOT
BRANCH   7   2
ATOM      2  O   UNL     1      -8.068 -10.660  13.334  0.00  0.00    -0.388 OA
ATOM     22  H   UNL     1      -8.908 -10.178  13.425  0.00  0.00    +0.210 HD
ENDBRANCH   7   2
BRANCH   6   4
ATOM      4  N   UNL     1      -8.385  -8.767  15.822  0.00  0.00    -0.307 NA
ATOM     20  H   UNL     1      -9.111  -8.744  15.107  0.00  0.00    +0.123 HD
BRANCH   4  11
ATOM     11  C   UNL     1      -8.990  -8.915  17.140  0.00  0.00    +0.048 C 
ATOM     15  C   UNL     1      -9.515 -10.336  17.325  0.00  0.00    +0.023 C 
ATOM     16  C   UNL     1     -10.110  -7.892  17.302  0.00  0.00    +0.023 C 
ENDBRANCH   4  11
ENDBRANCH   6   4
BRANCH   8  10
ATOM     10  C   UNL     1      -4.872 -10.581  12.986  0.00  0.00    +0.138 C 
BRANCH  10   5
ATOM      3  O   UNL     1      -4.280 -10.311  10.163  0.00  0.00    -0.276 OA
ATOM      5  N   UNL     1      -5.405  -9.600  12.068  0.00  0.00    -0.313 N 
ATOM     14  C   UNL     1      -5.061  -9.548  10.728  0.00  0.00    +0.214 C 
ATOM     21  H   UNL     1      -6.070  -8.926  12.437  0.00  0.00    +0.149 HD
BRANCH  14  13
ATOM     13  C   UNL     1      -5.751  -8.419   9.980  0.00  0.00    +0.102 C 
BRANCH  13  12
ATOM     12  C   UNL     1      -7.001  -8.846   9.175  0.00  0.00    -0.029 C 
ATOM     17  C   UNL     1      -7.615  -7.650   8.430  0.00  0.00    +0.011 C 
ATOM     18  C   UNL     1      -6.561  -9.894   8.132  0.00  0.00    +0.011 C 
ATOM     19  C   UNL     1      -8.066  -9.481  10.082  0.00  0.00    +0.011 C 
ENDBRANCH  13  12
ENDBRANCH  14  13
ENDBRANCH  10   5
ENDBRANCH   8  10
TORSDOF 7
ENDMDL
MODEL 8
REMARK VINA RESULT:      -3.9     19.559     20.518
REMARK  Name = 75536513
REMARK  12 active torsions:
REMARK  status: ('A' for Active; 'I' for Inactive)
REMARK    1  A    between atoms: O_2  and  C_7
REMARK    2  A    between atoms: N_4  and  C_6
REMARK    3  A    between atoms: N_4  and  C_11
REMARK    4  A    between atoms: N_5  and  C_10
REMARK    5  A    between atoms: C_8  and  C_10
REMARK    6  A    between atoms: C_11  and  C_15
REMARK    7  A    between atoms: C_11  and  C_16
REMARK    8  A    between atoms: C_12  and  C_13
REMARK    9  A    between atoms: C_12  and  C_17
REMARK   10  A    between atoms: C_12  and  C_18
REMARK   11  A    between atoms: C_12  and  C_19
REMARK   12  A    between atoms: C_13  and  C_14
REMARK                            x       y       z     vdW  Elec       q    Type
REMARK                         _______ _______ _______ _____ _____    ______ ____
ROOT
ATOM      1  O   UNL     1      17.244  -6.719  24.108  0.00  0.00    -0.371 OA
ATOM      6  C   UNL     1      17.279  -4.352  24.311  0.00  0.00    +0.111 C 
ATOM      7  C   UNL     1      16.813  -4.955  25.624  0.00  0.00    +0.164 C 
ATOM      8  C   UNL     1      17.347  -6.375  25.501  0.00  0.00    +0.165 C 
ATOM      9  C   UNL     1      17.055  -5.510  23.352  0.00  0.00    +0.181 C 
ENDROOT
BRANCH   7   2
ATOM      2  O   UNL     1      17.346  -4.286  26.751  0.00  0.00    -0.388 OA
ATOM     22  H   UNL     1      17.693  -3.426  26.460  0.00  0.00    +0.210 HD
ENDBRANCH   7   2
BRANCH   6   4
ATOM      4  N   UNL     1      16.554  -3.152  23.930  0.00  0.00    -0.307 NA
ATOM     20  H   UNL     1      15.633  -3.144  24.366  0.00  0.00    +0.123 HD
BRANCH   4  11
ATOM     11  C   UNL     1      17.291  -1.952  24.305  0.00  0.00    +0.048 C 
ATOM     15  C   UNL     1      16.602  -1.251  25.472  0.00  0.00    +0.023 C 
ATOM     16  C   UNL     1      17.402  -1.025  23.098  0.00  0.00    +0.023 C 
ENDBRANCH   4  11
ENDBRANCH   6   4
BRANCH   8  10
ATOM     10  C   UNL     1      16.574  -7.381  26.336  0.00  0.00    +0.138 C 
BRANCH  10   5
ATOM      3  O   UNL     1      15.883  -8.377  28.967  0.00  0.00    -0.276 OA
ATOM      5  N   UNL     1      15.764  -6.724  27.337  0.00  0.00    -0.313 N 
ATOM     14  C   UNL     1      15.485  -7.282  28.574  0.00  0.00    +0.214 C 
ATOM     21  H   UNL     1      15.394  -5.805  27.112  0.00  0.00    +0.149 HD
BRANCH  14  13
ATOM     13  C   UNL     1      14.606  -6.396  29.441  0.00  0.00    +0.102 C 
BRANCH  13  12
ATOM     12  C   UNL     1      15.329  -5.745  30.644  0.00  0.00    -0.029 C 
ATOM     17  C   UNL     1      15.526  -6.757  31.785  0.00  0.00    +0.011 C 
ATOM     18  C   UNL     1      16.718  -5.274  30.167  0.00  0.00    +0.011 C 
ATOM     19  C   UNL     1      14.558  -4.527  31.174  0.00  0.00    +0.011 C 
ENDBRANCH  13  12
ENDBRANCH  14  13
ENDBRANCH  10   5
ENDBRANCH   8  10
TORSDOF 7
ENDMDL
MODEL 9
REMARK VINA RESULT:      -3.5     15.952     18.608
REMARK  Name = 75536513
REMARK  12 active torsions:
REMARK  status: ('A' for Active; 'I' for Inactive)
REMARK    1  A    between atoms: O_2  and  C_7
REMARK    2  A    between atoms: N_4  and  C_6
REMARK    3  A    between atoms: N_4  and  C_11
REMARK    4  A    between atoms: N_5  and  C_10
REMARK    5  A    between atoms: C_8  and  C_10
REMARK    6  A    between atoms: C_11  and  C_15
REMARK    7  A    between atoms: C_11  and  C_16
REMARK    8  A    between atoms: C_12  and  C_13
REMARK    9  A    between atoms: C_12  and  C_17
REMARK   10  A    between atoms: C_12  and  C_18
REMARK   11  A    between atoms: C_12  and  C_19
REMARK   12  A    between atoms: C_13  and  C_14
REMARK                            x       y       z     vdW  Elec       q    Type
REMARK                         _______ _______ _______ _____ _____    ______ ____
ROOT
ATOM      1  O   UNL     1      11.246 -10.164  31.523  0.00  0.00    -0.371 OA
ATOM      6  C   UNL     1       9.033  -9.465  32.030  0.00  0.00    +0.111 C 
ATOM      7  C   UNL     1      10.017  -8.518  32.694  0.00  0.00    +0.164 C 
ATOM      8  C   UNL     1      11.269  -8.769  31.866  0.00  0.00    +0.165 C 
ATOM      9  C   UNL     1       9.918 -10.669  31.750  0.00  0.00    +0.181 C 
ENDROOT
BRANCH   7   2
ATOM      2  O   UNL     1       9.602  -7.167  32.628  0.00  0.00    -0.388 OA
ATOM     22  H   UNL     1      10.102  -6.661  33.290  0.00  0.00    +0.210 HD
ENDBRANCH   7   2
BRANCH   6   4
ATOM      4  N   UNL     1       7.884  -9.788  32.860  0.00  0.00    -0.307 NA
ATOM     20  H   UNL     1       7.976  -9.348  33.775  0.00  0.00    +0.123 HD
BRANCH   4  11
ATOM     11  C   UNL     1       6.643  -9.361  32.226  0.00  0.00    +0.048 C 
ATOM     15  C   UNL     1       6.852  -9.178  30.725  0.00  0.00    +0.023 C 
ATOM     16  C   UNL     1       6.161  -8.066  32.873  0.00  0.00    +0.023 C 
ENDBRANCH   4  11
ENDBRANCH   6   4
BRANCH   8  10
ATOM     10  C   UNL     1      12.554  -8.443  32.608  0.00  0.00    +0.138 C 
BRANCH  10   5
ATOM      3  O   UNL     1      12.055  -5.691  31.855  0.00  0.00    -0.276 OA
ATOM      5  N   UNL     1      13.410  -7.579  31.828  0.00  0.00    -0.313 N 
ATOM     14  C   UNL     1      13.086  -6.270  31.516  0.00  0.00    +0.214 C 
ATOM     21  H   UNL     1      14.294  -7.962  31.507  0.00  0.00    +0.149 HD
BRANCH  14  13
ATOM     13  C   UNL     1      14.149  -5.577  30.678  0.00  0.00    +0.102 C 
BRANCH  13  12
ATOM     12  C   UNL     1      15.264  -4.883  31.495  0.00  0.00    -0.029 C 
ATOM     17  C   UNL     1      16.470  -5.817  31.689  0.00  0.00    +0.011 C 
ATOM     18  C   UNL     1      15.731  -3.643  30.707  0.00  0.00    +0.011 C 
ATOM     19  C   UNL     1      14.753  -4.422  32.869  0.00  0.00    +0.011 C 
ENDBRANCH  13  12
ENDBRANCH  14  13
ENDBRANCH  10   5
ENDBRANCH   8  10
TORSDOF 7
ENDMDL
MODEL 10
REMARK VINA RESULT:      -3.4      2.344      4.530
REMARK  Name = 75536513
REMARK  12 active torsions:
REMARK  status: ('A' for Active; 'I' for Inactive)
REMARK    1  A    between atoms: O_2  and  C_7
REMARK    2  A    between atoms: N_4  and  C_6
REMARK    3  A    between atoms: N_4  and  C_11
REMARK    4  A    between atoms: N_5  and  C_10
REMARK    5  A    between atoms: C_8  and  C_10
REMARK    6  A    between atoms: C_11  and  C_15
REMARK    7  A    between atoms: C_11  and  C_16
REMARK    8  A    between atoms: C_12  and  C_13
REMARK    9  A    between atoms: C_12  and  C_17
REMARK   10  A    between atoms: C_12  and  C_18
REMARK   11  A    between atoms: C_12  and  C_19
REMARK   12  A    between atoms: C_13  and  C_14
REMARK                            x       y       z     vdW  Elec       q    Type
REMARK                         _______ _______ _______ _____ _____    ______ ____
ROOT
ATOM      1  O   UNL     1      -1.706   3.502  25.460  0.00  0.00    -0.371 OA
ATOM      6  C   UNL     1       0.375   2.773  26.343  0.00  0.00    +0.111 C 
ATOM      7  C   UNL     1      -0.004   1.886  25.171  0.00  0.00    +0.164 C 
ATOM      8  C   UNL     1      -1.000   2.775  24.440  0.00  0.00    +0.165 C 
ATOM      9  C   UNL     1      -0.965   3.402  26.688  0.00  0.00    +0.181 C 
ENDROOT
BRANCH   7   2
ATOM      2  O   UNL     1       1.105   1.556  24.357  0.00  0.00    -0.388 OA
ATOM     22  H   UNL     1       1.868   2.083  24.650  0.00  0.00    +0.210 HD
ENDBRANCH   7   2
BRANCH   6   4
ATOM      4  N   UNL     1       0.964   2.048  27.457  0.00  0.00    -0.307 NA
ATOM     20  H   UNL     1       1.738   1.471  27.130  0.00  0.00    +0.123 HD
BRANCH   4  11
ATOM     11  C   UNL     1       1.429   2.963  28.492  0.00  0.00    +0.048 C 
ATOM     15  C   UNL     1       2.953   3.039  28.485  0.00  0.00    +0.023 C 
ATOM     16  C   UNL     1       0.909   2.502  29.849  0.00  0.00    +0.023 C 
ENDBRANCH   4  11
ENDBRANCH   6   4
BRANCH   8  10
ATOM     10  C   UNL     1      -1.987   1.996  23.588  0.00  0.00    +0.138 C 
BRANCH  10   5
ATOM      3  O   UNL     1      -4.418   1.544  25.097  0.00  0.00    -0.276 OA
ATOM      5  N   UNL     1      -2.399   0.774  24.241  0.00  0.00    -0.313 N 
ATOM     14  C   UNL     1      -3.586   0.652  24.944  0.00  0.00    +0.214 C 
ATOM     21  H   UNL     1      -1.781  -0.029  24.165  0.00  0.00    +0.149 HD
BRANCH  14  13
ATOM     13  C   UNL     1      -3.782  -0.731  25.543  0.00  0.00    +0.102 C 
BRANCH  13  12
ATOM     12  C   UNL     1      -3.300  -1.897  24.649  0.00  0.00    -0.029 C 
ATOM     17  C   UNL     1      -3.497  -3.251  25.351  0.00  0.00    +0.011 C 
ATOM     18  C   UNL     1      -4.143  -1.891  23.359  0.00  0.00    +0.011 C 
ATOM     19  C   UNL     1      -1.820  -1.737  24.264  0.00  0.00    +0.011 C 
ENDBRANCH  13  12
ENDBRANCH  14  13
ENDBRANCH  10   5
ENDBRANCH   8  10
TORSDOF 7
ENDMDL
