MODEL 1
REMARK VINA RESULT:      -6.3      0.000      0.000
REMARK  Name = 75536067
REMARK  7 active torsions:
REMARK  status: ('A' for Active; 'I' for Inactive)
REMARK    1  A    between atoms: O_1  and  C_8
REMARK    2  A    between atoms: O_2  and  C_10
REMARK    3  A    between atoms: N_4  and  C_7
REMARK    4  A    between atoms: C_6  and  C_11
REMARK    5  A    between atoms: C_12  and  C_15
REMARK    6  A    between atoms: C_15  and  C_17
REMARK    7  A    between atoms: C_15  and  C_18
REMARK                            x       y       z     vdW  Elec       q    Type
REMARK                         _______ _______ _______ _____ _____    ______ ____
ROOT
ATOM      6  C   UNL     1      -2.735   2.081  23.896  0.00  0.00    +0.046 C 
ATOM      7  C   UNL     1      -1.804   1.176  24.735  0.00  0.00    +0.111 C 
ATOM      8  C   UNL     1      -0.404   1.635  24.331  0.00  0.00    +0.164 C 
ATOM      9  C   UNL     1      -1.898   3.339  23.545  0.00  0.00    +0.044 C 
ATOM     10  C   UNL     1      -0.550   3.149  24.236  0.00  0.00    +0.145 C 
ENDROOT
BRANCH   6  11
ATOM      5  N   UNL     1      -5.430   3.930  25.823  0.00  0.00    -0.263 NA
ATOM     11  C   UNL     1      -4.051   2.378  24.584  0.00  0.00    -0.024 A 
ATOM     13  C   UNL     1      -5.067   1.430  24.626  0.00  0.00    +0.007 A 
ATOM     14  C   UNL     1      -4.280   3.602  25.192  0.00  0.00    +0.114 A 
ATOM     16  C   UNL     1      -6.264   1.730  25.266  0.00  0.00    +0.020 A 
ATOM     19  C   UNL     1      -6.394   2.983  25.844  0.00  0.00    +0.111 A 
ENDBRANCH   6  11
BRANCH   7   4
ATOM      3  O   UNL     1      -3.172  -0.729  26.401  0.00  0.00    -0.276 OA
ATOM      4  N   UNL     1      -2.013  -0.221  24.456  0.00  0.00    -0.309 N 
ATOM     12  C   UNL     1      -2.690  -1.071  25.324  0.00  0.00    +0.216 C 
ATOM     20  H   UNL     1      -1.689  -0.585  23.564  0.00  0.00    +0.149 HD
BRANCH  12  15
ATOM     15  C   UNL     1      -2.773  -2.503  24.797  0.00  0.00    +0.069 C 
ATOM     17  C   UNL     1      -4.028  -2.678  23.945  0.00  0.00    +0.017 C 
ATOM     18  C   UNL     1      -1.527  -2.866  23.993  0.00  0.00    +0.017 C 
ENDBRANCH  12  15
ENDBRANCH   7   4
BRANCH   8   1
ATOM      1  O   UNL     1       0.575   1.275  25.287  0.00  0.00    -0.387 OA
ATOM     21  H   UNL     1       1.302   0.839  24.810  0.00  0.00    +0.210 HD
ENDBRANCH   8   1
BRANCH  10   2
ATOM      2  O   UNL     1      -0.614   3.738  25.532  0.00  0.00    -0.389 OA
ATOM     22  H   UNL     1      -1.088   3.116  26.111  0.00  0.00    +0.210 HD
ENDBRANCH  10   2
TORSDOF 5
ENDMDL
MODEL 2
REMARK VINA RESULT:      -5.9      1.883      4.765
REMARK  Name = 75536067
REMARK  7 active torsions:
REMARK  status: ('A' for Active; 'I' for Inactive)
REMARK    1  A    between atoms: O_1  and  C_8
REMARK    2  A    between atoms: O_2  and  C_10
REMARK    3  A    between atoms: N_4  and  C_7
REMARK    4  A    between atoms: C_6  and  C_11
REMARK    5  A    between atoms: C_12  and  C_15
REMARK    6  A    between atoms: C_15  and  C_17
REMARK    7  A    between atoms: C_15  and  C_18
REMARK                            x       y       z     vdW  Elec       q    Type
REMARK                         _______ _______ _______ _____ _____    ______ ____
ROOT
ATOM      6  C   UNL     1      -4.270   1.367  24.403  0.00  0.00    +0.046 C 
ATOM      7  C   UNL     1      -3.517   2.255  25.420  0.00  0.00    +0.111 C 
ATOM      8  C   UNL     1      -4.433   3.467  25.579  0.00  0.00    +0.164 C 
ATOM      9  C   UNL     1      -5.759   1.790  24.494  0.00  0.00    +0.044 C 
ATOM     10  C   UNL     1      -5.826   2.851  25.590  0.00  0.00    +0.145 C 
ENDROOT
BRANCH   6  11
ATOM      5  N   UNL     1      -3.372  -1.908  26.095  0.00  0.00    -0.263 NA
ATOM     11  C   UNL     1      -4.026  -0.112  24.614  0.00  0.00    -0.024 A 
ATOM     13  C   UNL     1      -4.215  -1.024  23.581  0.00  0.00    +0.007 A 
ATOM     14  C   UNL     1      -3.608  -0.601  25.841  0.00  0.00    +0.114 A 
ATOM     16  C   UNL     1      -3.983  -2.377  23.803  0.00  0.00    +0.020 A 
ATOM     19  C   UNL     1      -3.566  -2.763  25.066  0.00  0.00    +0.111 A 
ENDBRANCH   6  11
BRANCH   7   4
ATOM      3  O   UNL     1      -1.020   0.989  26.083  0.00  0.00    -0.276 OA
ATOM      4  N   UNL     1      -2.208   2.627  24.948  0.00  0.00    -0.309 N 
ATOM     12  C   UNL     1      -1.051   1.954  25.323  0.00  0.00    +0.216 C 
ATOM     20  H   UNL     1      -2.140   3.388  24.278  0.00  0.00    +0.149 HD
BRANCH  12  15
ATOM     15  C   UNL     1       0.206   2.548  24.688  0.00  0.00    +0.069 C 
ATOM     17  C   UNL     1       0.869   1.520  23.775  0.00  0.00    +0.017 C 
ATOM     18  C   UNL     1      -0.121   3.821  23.911  0.00  0.00    +0.017 C 
ENDBRANCH  12  15
ENDBRANCH   7   4
BRANCH   8   1
ATOM      1  O   UNL     1      -4.179   4.178  26.776  0.00  0.00    -0.387 OA
ATOM     21  H   UNL     1      -3.503   4.849  26.580  0.00  0.00    +0.210 HD
ENDBRANCH   8   1
BRANCH  10   2
ATOM      2  O   UNL     1      -6.089   2.206  26.833  0.00  0.00    -0.389 OA
ATOM     22  H   UNL     1      -6.062   2.888  27.526  0.00  0.00    +0.210 HD
ENDBRANCH  10   2
TORSDOF 5
ENDMDL
MODEL 3
REMARK VINA RESULT:      -5.4      1.277      1.673
REMARK  Name = 75536067
REMARK  7 active torsions:
REMARK  status: ('A' for Active; 'I' for Inactive)
REMARK    1  A    between atoms: O_1  and  C_8
REMARK    2  A    between atoms: O_2  and  C_10
REMARK    3  A    between atoms: N_4  and  C_7
REMARK    4  A    between atoms: C_6  and  C_11
REMARK    5  A    between atoms: C_12  and  C_15
REMARK    6  A    between atoms: C_15  and  C_17
REMARK    7  A    between atoms: C_15  and  C_18
REMARK                            x       y       z     vdW  Elec       q    Type
REMARK                         _______ _______ _______ _____ _____    ______ ____
ROOT
ATOM      6  C   UNL     1      -2.459   2.136  24.142  0.00  0.00    +0.046 C 
ATOM      7  C   UNL     1      -1.473   1.548  25.177  0.00  0.00    +0.111 C 
ATOM      8  C   UNL     1      -0.125   2.128  24.753  0.00  0.00    +0.164 C 
ATOM      9  C   UNL     1      -1.781   3.419  23.595  0.00  0.00    +0.044 C 
ATOM     10  C   UNL     1      -0.471   3.561  24.367  0.00  0.00    +0.145 C 
ENDROOT
BRANCH   6  11
ATOM      5  N   UNL     1      -5.438   3.835  25.764  0.00  0.00    -0.263 NA
ATOM     11  C   UNL     1      -3.847   2.355  24.705  0.00  0.00    -0.024 A 
ATOM     13  C   UNL     1      -4.793   1.335  24.694  0.00  0.00    +0.007 A 
ATOM     14  C   UNL     1      -4.217   3.576  25.246  0.00  0.00    +0.114 A 
ATOM     16  C   UNL     1      -6.060   1.564  25.219  0.00  0.00    +0.020 A 
ATOM     19  C   UNL     1      -6.330   2.820  25.737  0.00  0.00    +0.111 A 
ENDBRANCH   6  11
BRANCH   7   4
ATOM      3  O   UNL     1       0.094  -0.152  23.463  0.00  0.00    -0.276 OA
ATOM      4  N   UNL     1      -1.467   0.108  25.160  0.00  0.00    -0.309 N 
ATOM     12  C   UNL     1      -0.674  -0.635  24.293  0.00  0.00    +0.216 C 
ATOM     20  H   UNL     1      -2.038  -0.381  25.844  0.00  0.00    +0.149 HD
BRANCH  12  15
ATOM     15  C   UNL     1      -0.856  -2.141  24.473  0.00  0.00    +0.069 C 
ATOM     17  C   UNL     1       0.007  -2.641  25.629  0.00  0.00    +0.017 C 
ATOM     18  C   UNL     1      -2.323  -2.492  24.712  0.00  0.00    +0.017 C 
ENDBRANCH  12  15
ENDBRANCH   7   4
BRANCH   8   1
ATOM      1  O   UNL     1       0.826   2.098  25.801  0.00  0.00    -0.387 OA
ATOM     21  H   UNL     1       0.765   1.224  26.225  0.00  0.00    +0.210 HD
ENDBRANCH   8   1
BRANCH  10   2
ATOM      2  O   UNL     1      -0.706   4.359  25.523  0.00  0.00    -0.389 OA
ATOM     22  H   UNL     1       0.151   4.717  25.809  0.00  0.00    +0.210 HD
ENDBRANCH  10   2
TORSDOF 5
ENDMDL
MODEL 4
REMARK VINA RESULT:      -5.2      1.980      4.714
REMARK  Name = 75536067
REMARK  7 active torsions:
REMARK  status: ('A' for Active; 'I' for Inactive)
REMARK    1  A    between atoms: O_1  and  C_8
REMARK    2  A    between atoms: O_2  and  C_10
REMARK    3  A    between atoms: N_4  and  C_7
REMARK    4  A    between atoms: C_6  and  C_11
REMARK    5  A    between atoms: C_12  and  C_15
REMARK    6  A    between atoms: C_15  and  C_17
REMARK    7  A    between atoms: C_15  and  C_18
REMARK                            x       y       z     vdW  Elec       q    Type
REMARK                         _______ _______ _______ _____ _____    ______ ____
ROOT
ATOM      6  C   UNL     1      -1.497   0.055  25.125  0.00  0.00    +0.046 C 
ATOM      7  C   UNL     1      -1.607   1.399  24.370  0.00  0.00    +0.111 C 
ATOM      8  C   UNL     1      -0.168   1.909  24.343  0.00  0.00    +0.164 C 
ATOM      9  C   UNL     1      -0.024  -0.403  24.961  0.00  0.00    +0.044 C 
ATOM     10  C   UNL     1       0.643   0.647  24.076  0.00  0.00    +0.145 C 
ENDROOT
BRANCH   6  11
ATOM      5  N   UNL     1      -4.720  -1.427  23.780  0.00  0.00    -0.263 NA
ATOM     11  C   UNL     1      -2.522  -0.965  24.674  0.00  0.00    -0.024 A 
ATOM     13  C   UNL     1      -2.248  -2.327  24.726  0.00  0.00    +0.007 A 
ATOM     14  C   UNL     1      -3.761  -0.570  24.197  0.00  0.00    +0.114 A 
ATOM     16  C   UNL     1      -3.209  -3.240  24.306  0.00  0.00    +0.020 A 
ATOM     19  C   UNL     1      -4.418  -2.743  23.846  0.00  0.00    +0.111 A 
ENDBRANCH   6  11
BRANCH   7   4
ATOM      3  O   UNL     1      -3.722   2.930  23.163  0.00  0.00    -0.276 OA
ATOM      4  N   UNL     1      -2.492   2.320  25.034  0.00  0.00    -0.309 N 
ATOM     12  C   UNL     1      -3.491   3.020  24.366  0.00  0.00    +0.216 C 
ATOM     20  H   UNL     1      -2.407   2.426  26.041  0.00  0.00    +0.149 HD
BRANCH  12  15
ATOM     15  C   UNL     1      -4.289   3.935  25.296  0.00  0.00    +0.069 C 
ATOM     17  C   UNL     1      -5.577   3.244  25.736  0.00  0.00    +0.017 C 
ATOM     18  C   UNL     1      -3.459   4.341  26.512  0.00  0.00    +0.017 C 
ENDBRANCH  12  15
ENDBRANCH   7   4
BRANCH   8   1
ATOM      1  O   UNL     1       0.040   2.873  23.328  0.00  0.00    -0.387 OA
ATOM     21  H   UNL     1      -0.076   2.426  22.472  0.00  0.00    +0.210 HD
ENDBRANCH   8   1
BRANCH  10   2
ATOM      2  O   UNL     1       0.523   0.241  22.716  0.00  0.00    -0.389 OA
ATOM     22  H   UNL     1       0.895  -0.655  22.646  0.00  0.00    +0.210 HD
ENDBRANCH  10   2
TORSDOF 5
ENDMDL
MODEL 5
REMARK VINA RESULT:      -5.0      1.588      4.654
REMARK  Name = 75536067
REMARK  7 active torsions:
REMARK  status: ('A' for Active; 'I' for Inactive)
REMARK    1  A    between atoms: O_1  and  C_8
REMARK    2  A    between atoms: O_2  and  C_10
REMARK    3  A    between atoms: N_4  and  C_7
REMARK    4  A    between atoms: C_6  and  C_11
REMARK    5  A    between atoms: C_12  and  C_15
REMARK    6  A    between atoms: C_15  and  C_17
REMARK    7  A    between atoms: C_15  and  C_18
REMARK                            x       y       z     vdW  Elec       q    Type
REMARK                         _______ _______ _______ _____ _____    ______ ____
ROOT
ATOM      6  C   UNL     1      -1.576   0.998  25.997  0.00  0.00    +0.046 C 
ATOM      7  C   UNL     1      -1.971   2.148  25.042  0.00  0.00    +0.111 C 
ATOM      8  C   UNL     1      -0.945   3.236  25.352  0.00  0.00    +0.164 C 
ATOM      9  C   UNL     1      -0.081   1.228  26.338  0.00  0.00    +0.044 C 
ATOM     10  C   UNL     1       0.349   2.451  25.531  0.00  0.00    +0.145 C 
ENDROOT
BRANCH   6  11
ATOM      5  N   UNL     1      -1.207  -2.241  24.057  0.00  0.00    -0.263 NA
ATOM     11  C   UNL     1      -1.885  -0.372  25.433  0.00  0.00    -0.024 A 
ATOM     13  C   UNL     1      -3.075  -1.022  25.742  0.00  0.00    +0.007 A 
ATOM     14  C   UNL     1      -0.992  -1.019  24.594  0.00  0.00    +0.114 A 
ATOM     16  C   UNL     1      -3.332  -2.280  25.209  0.00  0.00    +0.020 A 
ATOM     19  C   UNL     1      -2.375  -2.841  24.379  0.00  0.00    +0.111 A 
ENDBRANCH   6  11
BRANCH   7   4
ATOM      3  O   UNL     1      -4.355   1.181  23.755  0.00  0.00    -0.276 OA
ATOM      4  N   UNL     1      -3.319   2.600  25.270  0.00  0.00    -0.309 N 
ATOM     12  C   UNL     1      -4.416   2.072  24.598  0.00  0.00    +0.216 C 
ATOM     20  H   UNL     1      -3.474   3.305  25.986  0.00  0.00    +0.149 HD
BRANCH  12  15
ATOM     15  C   UNL     1      -5.732   2.725  25.018  0.00  0.00    +0.069 C 
ATOM     17  C   UNL     1      -6.419   1.883  26.091  0.00  0.00    +0.017 C 
ATOM     18  C   UNL     1      -5.503   4.149  25.522  0.00  0.00    +0.017 C 
ENDBRANCH  12  15
ENDBRANCH   7   4
BRANCH   8   1
ATOM      1  O   UNL     1      -0.829   4.179  24.303  0.00  0.00    -0.387 OA
ATOM     21  H   UNL     1      -0.618   5.039  24.706  0.00  0.00    +0.210 HD
ENDBRANCH   8   1
BRANCH  10   2
ATOM      2  O   UNL     1       0.858   2.013  24.275  0.00  0.00    -0.389 OA
ATOM     22  H   UNL     1       1.564   1.369  24.455  0.00  0.00    +0.210 HD
ENDBRANCH  10   2
TORSDOF 5
ENDMDL
MODEL 6
REMARK VINA RESULT:      -4.9      2.128      5.509
REMARK  Name = 75536067
REMARK  7 active torsions:
REMARK  status: ('A' for Active; 'I' for Inactive)
REMARK    1  A    between atoms: O_1  and  C_8
REMARK    2  A    between atoms: O_2  and  C_10
REMARK    3  A    between atoms: N_4  and  C_7
REMARK    4  A    between atoms: C_6  and  C_11
REMARK    5  A    between atoms: C_12  and  C_15
REMARK    6  A    between atoms: C_15  and  C_17
REMARK    7  A    between atoms: C_15  and  C_18
REMARK                            x       y       z     vdW  Elec       q    Type
REMARK                         _______ _______ _______ _____ _____    ______ ____
ROOT
ATOM      6  C   UNL     1      -4.337   1.155  24.173  0.00  0.00    +0.046 C 
ATOM      7  C   UNL     1      -3.890   2.119  25.296  0.00  0.00    +0.111 C 
ATOM      8  C   UNL     1      -5.102   3.028  25.487  0.00  0.00    +0.164 C 
ATOM      9  C   UNL     1      -5.888   1.160  24.205  0.00  0.00    +0.044 C 
ATOM     10  C   UNL     1      -6.278   2.067  25.369  0.00  0.00    +0.145 C 
ENDROOT
BRANCH   6  11
ATOM      5  N   UNL     1      -3.950  -2.618  24.090  0.00  0.00    -0.263 NA
ATOM     11  C   UNL     1      -3.715  -0.221  24.290  0.00  0.00    -0.024 A 
ATOM     13  C   UNL     1      -2.391  -0.377  24.687  0.00  0.00    +0.007 A 
ATOM     14  C   UNL     1      -4.445  -1.363  24.005  0.00  0.00    +0.114 A 
ATOM     16  C   UNL     1      -1.846  -1.652  24.786  0.00  0.00    +0.020 A 
ATOM     19  C   UNL     1      -2.661  -2.730  24.480  0.00  0.00    +0.111 A 
ENDBRANCH   6  11
BRANCH   7   4
ATOM      3  O   UNL     1      -2.370   3.880  26.989  0.00  0.00    -0.276 OA
ATOM      4  N   UNL     1      -2.711   2.862  24.932  0.00  0.00    -0.309 N 
ATOM     12  C   UNL     1      -2.039   3.693  25.820  0.00  0.00    +0.216 C 
ATOM     20  H   UNL     1      -2.335   2.734  23.996  0.00  0.00    +0.149 HD
BRANCH  12  15
ATOM     15  C   UNL     1      -0.823   4.369  25.187  0.00  0.00    +0.069 C 
ATOM     17  C   UNL     1      -0.245   3.485  24.085  0.00  0.00    +0.017 C 
ATOM     18  C   UNL     1      -1.186   5.744  24.632  0.00  0.00    +0.017 C 
ENDBRANCH  12  15
ENDBRANCH   7   4
BRANCH   8   1
ATOM      1  O   UNL     1      -5.094   3.674  26.746  0.00  0.00    -0.387 OA
ATOM     21  H   UNL     1      -4.413   4.368  26.714  0.00  0.00    +0.210 HD
ENDBRANCH   8   1
BRANCH  10   2
ATOM      2  O   UNL     1      -6.407   1.271  26.544  0.00  0.00    -0.389 OA
ATOM     22  H   UNL     1      -7.181   1.597  27.033  0.00  0.00    +0.210 HD
ENDBRANCH  10   2
TORSDOF 5
ENDMDL
MODEL 7
REMARK VINA RESULT:      -4.7      2.244      3.957
REMARK  Name = 75536067
REMARK  7 active torsions:
REMARK  status: ('A' for Active; 'I' for Inactive)
REMARK    1  A    between atoms: O_1  and  C_8
REMARK    2  A    between atoms: O_2  and  C_10
REMARK    3  A    between atoms: N_4  and  C_7
REMARK    4  A    between atoms: C_6  and  C_11
REMARK    5  A    between atoms: C_12  and  C_15
REMARK    6  A    between atoms: C_15  and  C_17
REMARK    7  A    between atoms: C_15  and  C_18
REMARK                            x       y       z     vdW  Elec       q    Type
REMARK                         _______ _______ _______ _____ _____    ______ ____
ROOT
ATOM      6  C   UNL     1      -2.807   1.441  23.743  0.00  0.00    +0.046 C 
ATOM      7  C   UNL     1      -1.454   1.968  24.274  0.00  0.00    +0.111 C 
ATOM      8  C   UNL     1      -1.660   3.480  24.330  0.00  0.00    +0.164 C 
ATOM      9  C   UNL     1      -3.851   2.536  24.084  0.00  0.00    +0.044 C 
ATOM     10  C   UNL     1      -3.087   3.617  24.845  0.00  0.00    +0.145 C 
ENDROOT
BRANCH   6  11
ATOM      5  N   UNL     1      -3.176  -1.500  26.111  0.00  0.00    -0.263 NA
ATOM     11  C   UNL     1      -3.153   0.063  24.267  0.00  0.00    -0.024 A 
ATOM     13  C   UNL     1      -3.743  -0.889  23.443  0.00  0.00    +0.007 A 
ATOM     14  C   UNL     1      -2.893  -0.289  25.581  0.00  0.00    +0.114 A 
ATOM     16  C   UNL     1      -4.049  -2.147  23.951  0.00  0.00    +0.020 A 
ATOM     19  C   UNL     1      -3.748  -2.400  25.279  0.00  0.00    +0.111 A 
ENDBRANCH   6  11
BRANCH   7   4
ATOM      3  O   UNL     1       0.077  -0.466  24.364  0.00  0.00    -0.276 OA
ATOM      4  N   UNL     1      -0.358   1.605  23.414  0.00  0.00    -0.309 N 
ATOM     12  C   UNL     1       0.328   0.401  23.531  0.00  0.00    +0.216 C 
ATOM     20  H   UNL     1      -0.108   2.242  22.662  0.00  0.00    +0.149 HD
BRANCH  12  15
ATOM     15  C   UNL     1       1.449   0.261  22.502  0.00  0.00    +0.069 C 
ATOM     17  C   UNL     1       2.744  -0.166  23.190  0.00  0.00    +0.017 C 
ATOM     18  C   UNL     1       1.071  -0.736  21.410  0.00  0.00    +0.017 C 
ENDBRANCH  12  15
ENDBRANCH   7   4
BRANCH   8   1
ATOM      1  O   UNL     1      -0.740   4.114  25.199  0.00  0.00    -0.387 OA
ATOM     21  H   UNL     1      -1.227   4.798  25.691  0.00  0.00    +0.210 HD
ENDBRANCH   8   1
BRANCH  10   2
ATOM      2  O   UNL     1      -3.156   3.329  26.239  0.00  0.00    -0.389 OA
ATOM     22  H   UNL     1      -2.599   3.979  26.699  0.00  0.00    +0.210 HD
ENDBRANCH  10   2
TORSDOF 5
ENDMDL
MODEL 8
REMARK VINA RESULT:      -4.6      2.313      4.228
REMARK  Name = 75536067
REMARK  7 active torsions:
REMARK  status: ('A' for Active; 'I' for Inactive)
REMARK    1  A    between atoms: O_1  and  C_8
REMARK    2  A    between atoms: O_2  and  C_10
REMARK    3  A    between atoms: N_4  and  C_7
REMARK    4  A    between atoms: C_6  and  C_11
REMARK    5  A    between atoms: C_12  and  C_15
REMARK    6  A    between atoms: C_15  and  C_17
REMARK    7  A    between atoms: C_15  and  C_18
REMARK                            x       y       z     vdW  Elec       q    Type
REMARK                         _______ _______ _______ _____ _____    ______ ____
ROOT
ATOM      6  C   UNL     1      -3.430   2.371  25.690  0.00  0.00    +0.046 C 
ATOM      7  C   UNL     1      -4.377   1.879  24.572  0.00  0.00    +0.111 C 
ATOM      8  C   UNL     1      -5.728   1.764  25.275  0.00  0.00    +0.164 C 
ATOM      9  C   UNL     1      -4.340   3.057  26.743  0.00  0.00    +0.044 C 
ATOM     10  C   UNL     1      -5.756   2.993  26.175  0.00  0.00    +0.145 C 
ENDROOT
BRANCH   6  11
ATOM      5  N   UNL     1      -0.244   3.432  23.924  0.00  0.00    -0.263 NA
ATOM     11  C   UNL     1      -2.305   3.243  25.174  0.00  0.00    -0.024 A 
ATOM     13  C   UNL     1      -2.272   4.606  25.448  0.00  0.00    +0.007 A 
ATOM     14  C   UNL     1      -1.277   2.709  24.414  0.00  0.00    +0.114 A 
ATOM     16  C   UNL     1      -1.226   5.382  24.962  0.00  0.00    +0.020 A 
ATOM     19  C   UNL     1      -0.246   4.752  24.212  0.00  0.00    +0.111 A 
ENDBRANCH   6  11
BRANCH   7   4
ATOM      3  O   UNL     1      -3.862  -0.557  26.015  0.00  0.00    -0.276 OA
ATOM      4  N   UNL     1      -3.950   0.620  24.017  0.00  0.00    -0.309 N 
ATOM     12  C   UNL     1      -3.724  -0.510  24.795  0.00  0.00    +0.216 C 
ATOM     20  H   UNL     1      -3.854   0.550  23.008  0.00  0.00    +0.149 HD
BRANCH  12  15
ATOM     15  C   UNL     1      -3.275  -1.713  23.966  0.00  0.00    +0.069 C 
ATOM     17  C   UNL     1      -2.007  -2.319  24.563  0.00  0.00    +0.017 C 
ATOM     18  C   UNL     1      -4.379  -2.764  23.880  0.00  0.00    +0.017 C 
ENDBRANCH  12  15
ENDBRANCH   7   4
BRANCH   8   1
ATOM      1  O   UNL     1      -6.810   1.774  24.363  0.00  0.00    -0.387 OA
ATOM     21  H   UNL     1      -7.604   1.492  24.849  0.00  0.00    +0.210 HD
ENDBRANCH   8   1
BRANCH  10   2
ATOM      2  O   UNL     1      -5.997   4.175  25.417  0.00  0.00    -0.389 OA
ATOM     22  H   UNL     1      -6.701   4.672  25.868  0.00  0.00    +0.210 HD
ENDBRANCH  10   2
TORSDOF 5
ENDMDL
MODEL 9
REMARK VINA RESULT:      -4.5      2.258      4.605
REMARK  Name = 75536067
REMARK  7 active torsions:
REMARK  status: ('A' for Active; 'I' for Inactive)
REMARK    1  A    between atoms: O_1  and  C_8
REMARK    2  A    between atoms: O_2  and  C_10
REMARK    3  A    between atoms: N_4  and  C_7
REMARK    4  A    between atoms: C_6  and  C_11
REMARK    5  A    between atoms: C_12  and  C_15
REMARK    6  A    between atoms: C_15  and  C_17
REMARK    7  A    between atoms: C_15  and  C_18
REMARK                            x       y       z     vdW  Elec       q    Type
REMARK                         _______ _______ _______ _____ _____    ______ ____
ROOT
ATOM      6  C   UNL     1      -0.590   1.378  25.109  0.00  0.00    +0.046 C 
ATOM      7  C   UNL     1      -1.945   1.725  24.452  0.00  0.00    +0.111 C 
ATOM      8  C   UNL     1      -2.506   2.823  25.354  0.00  0.00    +0.164 C 
ATOM      9  C   UNL     1      -0.187   2.628  25.934  0.00  0.00    +0.044 C 
ATOM     10  C   UNL     1      -1.279   3.665  25.678  0.00  0.00    +0.145 C 
ENDROOT
BRANCH   6  11
ATOM      5  N   UNL     1       2.628   1.252  23.104  0.00  0.00    -0.263 NA
ATOM     11  C   UNL     1       0.454   0.925  24.111  0.00  0.00    -0.024 A 
ATOM     13  C   UNL     1       0.238  -0.184  23.301  0.00  0.00    +0.007 A 
ATOM     14  C   UNL     1       1.656   1.602  23.975  0.00  0.00    +0.114 A 
ATOM     16  C   UNL     1       1.214  -0.576  22.392  0.00  0.00    +0.020 A 
ATOM     19  C   UNL     1       2.381   0.169  22.333  0.00  0.00    +0.111 A 
ENDBRANCH   6  11
BRANCH   7   4
ATOM      3  O   UNL     1      -1.919  -0.575  26.182  0.00  0.00    -0.276 OA
ATOM      4  N   UNL     1      -2.821   0.584  24.385  0.00  0.00    -0.309 N 
ATOM     12  C   UNL     1      -2.735  -0.487  25.267  0.00  0.00    +0.216 C 
ATOM     20  H   UNL     1      -3.560   0.588  23.687  0.00  0.00    +0.149 HD
BRANCH  12  15
ATOM     15  C   UNL     1      -3.775  -1.570  24.980  0.00  0.00    +0.069 C 
ATOM     17  C   UNL     1      -4.381  -1.362  23.594  0.00  0.00    +0.017 C 
ATOM     18  C   UNL     1      -3.162  -2.964  25.091  0.00  0.00    +0.017 C 
ENDBRANCH  12  15
ENDBRANCH   7   4
BRANCH   8   1
ATOM      1  O   UNL     1      -3.498   3.595  24.704  0.00  0.00    -0.387 OA
ATOM     21  H   UNL     1      -3.378   3.479  23.746  0.00  0.00    +0.210 HD
ENDBRANCH   8   1
BRANCH  10   2
ATOM      2  O   UNL     1      -0.898   4.464  24.562  0.00  0.00    -0.389 OA
ATOM     22  H   UNL     1      -0.089   4.943  24.810  0.00  0.00    +0.210 HD
ENDBRANCH  10   2
TORSDOF 5
ENDMDL
MODEL 10
REMARK VINA RESULT:      -4.1      2.219      4.384
REMARK  Name = 75536067
REMARK  7 active torsions:
REMARK  status: ('A' for Active; 'I' for Inactive)
REMARK    1  A    between atoms: O_1  and  C_8
REMARK    2  A    between atoms: O_2  and  C_10
REMARK    3  A    between atoms: N_4  and  C_7
REMARK    4  A    between atoms: C_6  and  C_11
REMARK    5  A    between atoms: C_12  and  C_15
REMARK    6  A    between atoms: C_15  and  C_17
REMARK    7  A    between atoms: C_15  and  C_18
REMARK                            x       y       z     vdW  Elec       q    Type
REMARK                         _______ _______ _______ _____ _____    ______ ____
ROOT
ATOM      6  C   UNL     1      -2.560  -0.187  25.540  0.00  0.00    +0.046 C 
ATOM      7  C   UNL     1      -1.715  -0.767  24.383  0.00  0.00    +0.111 C 
ATOM      8  C   UNL     1      -1.733  -2.271  24.651  0.00  0.00    +0.164 C 
ATOM      9  C   UNL     1      -3.468  -1.347  26.024  0.00  0.00    +0.044 C 
ATOM     10  C   UNL     1      -3.166  -2.526  25.102  0.00  0.00    +0.145 C 
ENDROOT
BRANCH   6  11
ATOM      5  N   UNL     1      -3.239   3.415  24.561  0.00  0.00    -0.263 NA
ATOM     11  C   UNL     1      -3.307   1.072  25.155  0.00  0.00    -0.024 A 
ATOM     13  C   UNL     1      -4.693   1.076  25.038  0.00  0.00    +0.007 A 
ATOM     14  C   UNL     1      -2.633   2.257  24.908  0.00  0.00    +0.114 A 
ATOM     16  C   UNL     1      -5.353   2.247  24.683  0.00  0.00    +0.020 A 
ATOM     19  C   UNL     1      -4.586   3.379  24.458  0.00  0.00    +0.111 A 
ENDBRANCH   6  11
BRANCH   7   4
ATOM      3  O   UNL     1       0.079  -0.653  22.136  0.00  0.00    -0.276 OA
ATOM      4  N   UNL     1      -0.376  -0.238  24.374  0.00  0.00    -0.309 N 
ATOM     12  C   UNL     1       0.422  -0.224  23.235  0.00  0.00    +0.216 C 
ATOM     20  H   UNL     1      -0.021   0.182  25.229  0.00  0.00    +0.149 HD
BRANCH  12  15
ATOM     15  C   UNL     1       1.800   0.386  23.491  0.00  0.00    +0.069 C 
ATOM     17  C   UNL     1       2.728   0.104  22.312  0.00  0.00    +0.017 C 
ATOM     18  C   UNL     1       1.697   1.889  23.742  0.00  0.00    +0.017 C 
ENDBRANCH  12  15
ENDBRANCH   7   4
BRANCH   8   1
ATOM      1  O   UNL     1      -1.420  -3.025  23.494  0.00  0.00    -0.387 OA
ATOM     21  H   UNL     1      -0.513  -2.794  23.232  0.00  0.00    +0.210 HD
ENDBRANCH   8   1
BRANCH  10   2
ATOM      2  O   UNL     1      -4.064  -2.483  23.997  0.00  0.00    -0.389 OA
ATOM     22  H   UNL     1      -4.361  -3.393  23.828  0.00  0.00    +0.210 HD
ENDBRANCH  10   2
TORSDOF 5
ENDMDL
