MODEL 1
REMARK VINA RESULT:       2.8      0.000      0.000
REMARK  Name = 38028154
REMARK  11 active torsions:
REMARK  status: ('A' for Active; 'I' for Inactive)
REMARK    1  A    between atoms: N_5  and  C_15
REMARK    2  A    between atoms: N_7  and  C_31
REMARK    3  A    between atoms: C_8  and  C_12
REMARK    4  A    between atoms: C_9  and  C_15
REMARK    5  A    between atoms: C_11  and  C_16
REMARK    6  A    between atoms: C_12  and  C_17
REMARK    7  A    between atoms: C_12  and  C_18
REMARK    8  A    between atoms: C_13  and  C_19
REMARK    9  A    between atoms: C_16  and  C_20
REMARK   10  A    between atoms: C_23  and  C_26
REMARK   11  A    between atoms: C_32  and  C_33
REMARK                            x       y       z     vdW  Elec       q    Type
REMARK                         _______ _______ _______ _____ _____    ______ ____
ROOT
ATOM      8  C   UNL     1      -1.643   0.328  24.950  0.00  0.00    +0.000 C 
ATOM      9  C   UNL     1      -1.041  -1.005  24.439  0.00  0.00    +0.032 C 
ATOM     10  C   UNL     1      -2.750   0.057  25.979  0.00  0.00    +0.012 C 
ATOM     11  C   UNL     1      -3.890  -0.802  25.398  0.00  0.00    +0.023 C 
ATOM     13  C   UNL     1      -3.360  -2.003  24.642  0.00  0.00    -0.073 C 
ATOM     14  C   UNL     1      -2.081  -2.082  24.233  0.00  0.00    -0.022 C 
ATOM     19  C   UNL     1      -4.323  -3.132  24.405  0.00  0.00    +0.039 C 
ENDROOT
BRANCH   8  12
ATOM     12  C   UNL     1      -0.573   1.236  25.565  0.00  0.00    -0.013 C 
ATOM     17  C   UNL     1       0.175   1.992  24.473  0.00  0.00    +0.007 C 
ATOM     18  C   UNL     1      -1.206   2.206  26.558  0.00  0.00    +0.007 C 
ENDBRANCH   8  12
BRANCH   9  15
ATOM     15  C   UNL     1      -0.258  -0.796  23.138  0.00  0.00    +0.112 C 
BRANCH  15   5
ATOM      3  O   UNL     1       1.802  -0.253  21.214  0.00  0.00    -0.270 OA
ATOM      5  N   UNL     1       1.133  -0.603  23.408  0.00  0.00    -0.311 N 
ATOM     23  C   UNL     1       2.070  -0.342  22.410  0.00  0.00    +0.244 C 
ATOM     34  H   UNL     1       1.415  -0.571  24.382  0.00  0.00    +0.149 HD
BRANCH  23  26
ATOM     26  C   UNL     1       3.481  -0.192  22.850  0.00  0.00    +0.037 A 
ATOM     27  C   UNL     1       4.138  -1.261  23.458  0.00  0.00    +0.015 A 
ATOM     28  C   UNL     1       4.148   1.017  22.655  0.00  0.00    +0.015 A 
ATOM     29  C   UNL     1       5.463  -1.122  23.871  0.00  0.00    +0.024 A 
ATOM     30  C   UNL     1       5.473   1.157  23.068  0.00  0.00    +0.024 A 
ATOM     31  C   UNL     1       6.131   0.088  23.676  0.00  0.00    +0.033 A 
BRANCH  31   7
ATOM      4  O   UNL     1       8.696  -0.653  22.285  0.00  0.00    -0.276 OA
ATOM      7  N   UNL     1       7.456   0.226  24.088  0.00  0.00    -0.286 N 
ATOM     32  C   UNL     1       8.620  -0.139  23.397  0.00  0.00    +0.214 C 
ATOM     33  C   UNL     1       9.863   0.179  24.188  0.00  0.00    +0.109 C 
ATOM     35  H   UNL     1       7.584   0.647  25.006  0.00  0.00    +0.155 HD
ENDBRANCH  31   7
ENDBRANCH  23  26
ENDBRANCH  15   5
ENDBRANCH   9  15
BRANCH  11  16
ATOM     16  C   UNL     1      -4.817   0.039  24.512  0.00  0.00    +0.103 C 
BRANCH  16  20
ATOM      1  O   UNL     1      -6.043   1.146  26.211  0.00  0.00    -0.276 OA
ATOM      2  O   UNL     1      -3.229   4.831  24.493  0.00  0.00    -0.377 OA
ATOM      6  N   UNL     1      -4.756   2.486  24.819  0.00  0.00    -0.297 N 
ATOM     20  C   UNL     1      -5.267   1.267  25.261  0.00  0.00    +0.216 C 
ATOM     21  C   UNL     1      -5.137   3.727  25.494  0.00  0.00    +0.136 C 
ATOM     22  C   UNL     1      -3.935   2.680  23.620  0.00  0.00    +0.136 C 
ATOM     24  C   UNL     1      -3.913   4.601  25.726  0.00  0.00    +0.179 C 
ATOM     25  C   UNL     1      -2.762   3.603  23.927  0.00  0.00    +0.179 C 
ENDBRANCH  16  20
ENDBRANCH  11  16
TORSDOF 7
ENDMDL
MODEL 2
REMARK VINA RESULT:       3.5      2.270      4.950
REMARK  Name = 38028154
REMARK  11 active torsions:
REMARK  status: ('A' for Active; 'I' for Inactive)
REMARK    1  A    between atoms: N_5  and  C_15
REMARK    2  A    between atoms: N_7  and  C_31
REMARK    3  A    between atoms: C_8  and  C_12
REMARK    4  A    between atoms: C_9  and  C_15
REMARK    5  A    between atoms: C_11  and  C_16
REMARK    6  A    between atoms: C_12  and  C_17
REMARK    7  A    between atoms: C_12  and  C_18
REMARK    8  A    between atoms: C_13  and  C_19
REMARK    9  A    between atoms: C_16  and  C_20
REMARK   10  A    between atoms: C_23  and  C_26
REMARK   11  A    between atoms: C_32  and  C_33
REMARK                            x       y       z     vdW  Elec       q    Type
REMARK                         _______ _______ _______ _____ _____    ______ ____
ROOT
ATOM      8  C   UNL     1      -3.485   2.417  23.679  0.00  0.00    +0.000 C 
ATOM      9  C   UNL     1      -3.775   3.777  24.365  0.00  0.00    +0.032 C 
ATOM     10  C   UNL     1      -4.771   1.584  23.576  0.00  0.00    +0.012 C 
ATOM     11  C   UNL     1      -5.401   1.310  24.956  0.00  0.00    +0.023 C 
ATOM     13  C   UNL     1      -5.474   2.566  25.800  0.00  0.00    -0.073 C 
ATOM     14  C   UNL     1      -4.751   3.663  25.513  0.00  0.00    -0.022 C 
ATOM     19  C   UNL     1      -6.433   2.549  26.957  0.00  0.00    +0.039 C 
ENDROOT
BRANCH   8  12
ATOM     12  C   UNL     1      -2.874   2.602  22.287  0.00  0.00    -0.013 C 
ATOM     17  C   UNL     1      -2.468   1.253  21.702  0.00  0.00    +0.007 C 
ATOM     18  C   UNL     1      -3.856   3.318  21.365  0.00  0.00    +0.007 C 
ENDBRANCH   8  12
BRANCH   9  15
ATOM     15  C   UNL     1      -2.481   4.434  24.857  0.00  0.00    +0.112 C 
BRANCH  15   5
ATOM      3  O   UNL     1      -1.651   1.814  25.687  0.00  0.00    -0.270 OA
ATOM      5  N   UNL     1      -1.337   3.714  24.392  0.00  0.00    -0.311 N 
ATOM     23  C   UNL     1      -1.005   2.440  24.849  0.00  0.00    +0.244 C 
ATOM     34  H   UNL     1      -0.807   4.129  23.633  0.00  0.00    +0.149 HD
BRANCH  23  26
ATOM     26  C   UNL     1       0.231   1.837  24.288  0.00  0.00    +0.037 A 
ATOM     27  C   UNL     1       1.352   2.633  24.055  0.00  0.00    +0.015 A 
ATOM     28  C   UNL     1       0.271   0.474  23.993  0.00  0.00    +0.015 A 
ATOM     29  C   UNL     1       2.513   2.068  23.529  0.00  0.00    +0.024 A 
ATOM     30  C   UNL     1       1.432  -0.092  23.467  0.00  0.00    +0.024 A 
ATOM     31  C   UNL     1       2.553   0.705  23.234  0.00  0.00    +0.033 A 
BRANCH  31   7
ATOM      4  O   UNL     1       5.360   0.642  24.322  0.00  0.00    -0.276 OA
ATOM      7  N   UNL     1       3.714   0.139  22.709  0.00  0.00    -0.286 N 
ATOM     32  C   UNL     1       5.004   0.140  23.261  0.00  0.00    +0.214 C 
ATOM     33  C   UNL     1       5.990  -0.582  22.379  0.00  0.00    +0.109 C 
ATOM     35  H   UNL     1       3.603  -0.332  21.814  0.00  0.00    +0.155 HD
ENDBRANCH  31   7
ENDBRANCH  23  26
ENDBRANCH  15   5
ENDBRANCH   9  15
BRANCH  11  16
ATOM     16  C   UNL     1      -4.650   0.196  25.694  0.00  0.00    +0.103 C 
BRANCH  16  20
ATOM      1  O   UNL     1      -5.006  -1.101  23.742  0.00  0.00    -0.276 OA
ATOM      2  O   UNL     1      -0.529  -2.668  25.139  0.00  0.00    -0.377 OA
ATOM      6  N   UNL     1      -3.154  -1.650  25.029  0.00  0.00    -0.297 N 
ATOM     20  C   UNL     1      -4.295  -0.908  24.731  0.00  0.00    +0.216 C 
ATOM     21  C   UNL     1      -2.735  -2.737  24.144  0.00  0.00    +0.136 C 
ATOM     22  C   UNL     1      -2.360  -1.533  26.256  0.00  0.00    +0.136 C 
ATOM     24  C   UNL     1      -1.236  -2.670  23.896  0.00  0.00    +0.179 C 
ATOM     25  C   UNL     1      -0.873  -1.522  25.923  0.00  0.00    +0.179 C 
ENDBRANCH  16  20
ENDBRANCH  11  16
TORSDOF 7
ENDMDL
MODEL 3
REMARK VINA RESULT:       4.5      2.184      4.258
REMARK  Name = 38028154
REMARK  11 active torsions:
REMARK  status: ('A' for Active; 'I' for Inactive)
REMARK    1  A    between atoms: N_5  and  C_15
REMARK    2  A    between atoms: N_7  and  C_31
REMARK    3  A    between atoms: C_8  and  C_12
REMARK    4  A    between atoms: C_9  and  C_15
REMARK    5  A    between atoms: C_11  and  C_16
REMARK    6  A    between atoms: C_12  and  C_17
REMARK    7  A    between atoms: C_12  and  C_18
REMARK    8  A    between atoms: C_13  and  C_19
REMARK    9  A    between atoms: C_16  and  C_20
REMARK   10  A    between atoms: C_23  and  C_26
REMARK   11  A    between atoms: C_32  and  C_33
REMARK                            x       y       z     vdW  Elec       q    Type
REMARK                         _______ _______ _______ _____ _____    ______ ____
ROOT
ATOM      8  C   UNL     1      -4.735   1.869  25.024  0.00  0.00    +0.000 C 
ATOM      9  C   UNL     1      -3.990   0.661  24.400  0.00  0.00    +0.032 C 
ATOM     10  C   UNL     1      -5.233   2.818  23.924  0.00  0.00    +0.012 C 
ATOM     11  C   UNL     1      -4.082   3.353  23.050  0.00  0.00    +0.023 C 
ATOM     13  C   UNL     1      -3.145   2.246  22.614  0.00  0.00    -0.073 C 
ATOM     14  C   UNL     1      -3.127   1.046  23.220  0.00  0.00    -0.022 C 
ATOM     19  C   UNL     1      -2.258   2.535  21.435  0.00  0.00    +0.039 C 
ENDROOT
BRANCH   8  12
ATOM     12  C   UNL     1      -5.912   1.421  25.896  0.00  0.00    -0.013 C 
ATOM     17  C   UNL     1      -6.138   2.412  27.033  0.00  0.00    +0.007 C 
ATOM     18  C   UNL     1      -7.173   1.270  25.050  0.00  0.00    +0.007 C 
ENDBRANCH   8  12
BRANCH   9  15
ATOM     15  C   UNL     1      -3.134  -0.061  25.445  0.00  0.00    +0.112 C 
BRANCH  15   5
ATOM      3  O   UNL     1      -1.844  -2.177  23.996  0.00  0.00    -0.270 OA
ATOM      5  N   UNL     1      -1.764  -0.105  25.038  0.00  0.00    -0.311 N 
ATOM     23  C   UNL     1      -1.216  -1.176  24.334  0.00  0.00    +0.244 C 
ATOM     34  H   UNL     1      -1.207   0.727  25.201  0.00  0.00    +0.149 HD
BRANCH  23  26
ATOM     26  C   UNL     1       0.230  -1.082  24.007  0.00  0.00    +0.037 A 
ATOM     27  C   UNL     1       1.149  -1.887  24.678  0.00  0.00    +0.015 A 
ATOM     28  C   UNL     1       0.668  -0.189  23.030  0.00  0.00    +0.015 A 
ATOM     29  C   UNL     1       2.507  -1.800  24.372  0.00  0.00    +0.024 A 
ATOM     30  C   UNL     1       2.026  -0.101  22.723  0.00  0.00    +0.024 A 
ATOM     31  C   UNL     1       2.946  -0.906  23.394  0.00  0.00    +0.033 A 
BRANCH  31   7
ATOM      4  O   UNL     1       5.144   0.695  24.686  0.00  0.00    -0.276 OA
ATOM      7  N   UNL     1       4.303  -0.820  23.087  0.00  0.00    -0.286 N 
ATOM     32  C   UNL     1       5.288  -0.053  23.725  0.00  0.00    +0.214 C 
ATOM     33  C   UNL     1       6.642  -0.239  23.087  0.00  0.00    +0.109 C 
ATOM     35  H   UNL     1       4.608  -1.390  22.301  0.00  0.00    +0.155 HD
ENDBRANCH  31   7
ENDBRANCH  23  26
ENDBRANCH  15   5
ENDBRANCH   9  15
BRANCH  11  16
ATOM     16  C   UNL     1      -3.316   4.470  23.770  0.00  0.00    +0.103 C 
BRANCH  16  20
ATOM      1  O   UNL     1      -3.746   3.930  26.038  0.00  0.00    -0.276 OA
ATOM      2  O   UNL     1       0.895   2.304  25.521  0.00  0.00    -0.377 OA
ATOM      6  N   UNL     1      -1.558   3.674  25.307  0.00  0.00    -0.297 N 
ATOM     20  C   UNL     1      -2.901   4.003  25.142  0.00  0.00    +0.216 C 
ATOM     21  C   UNL     1      -1.071   3.208  26.606  0.00  0.00    +0.136 C 
ATOM     22  C   UNL     1      -0.505   3.868  24.305  0.00  0.00    +0.136 C 
ATOM     24  C   UNL     1      -0.166   1.998  26.429  0.00  0.00    +0.179 C 
ATOM     25  C   UNL     1       0.383   2.633  24.226  0.00  0.00    +0.179 C 
ENDBRANCH  16  20
ENDBRANCH  11  16
TORSDOF 7
ENDMDL
MODEL 4
REMARK VINA RESULT:       5.6      0.997      1.615
REMARK  Name = 38028154
REMARK  11 active torsions:
REMARK  status: ('A' for Active; 'I' for Inactive)
REMARK    1  A    between atoms: N_5  and  C_15
REMARK    2  A    between atoms: N_7  and  C_31
REMARK    3  A    between atoms: C_8  and  C_12
REMARK    4  A    between atoms: C_9  and  C_15
REMARK    5  A    between atoms: C_11  and  C_16
REMARK    6  A    between atoms: C_12  and  C_17
REMARK    7  A    between atoms: C_12  and  C_18
REMARK    8  A    between atoms: C_13  and  C_19
REMARK    9  A    between atoms: C_16  and  C_20
REMARK   10  A    between atoms: C_23  and  C_26
REMARK   11  A    between atoms: C_32  and  C_33
REMARK                            x       y       z     vdW  Elec       q    Type
REMARK                         _______ _______ _______ _____ _____    ______ ____
ROOT
ATOM      8  C   UNL     1      -1.382   0.383  24.661  0.00  0.00    +0.000 C 
ATOM      9  C   UNL     1      -0.820  -1.040  24.411  0.00  0.00    +0.032 C 
ATOM     10  C   UNL     1      -2.525   0.335  25.685  0.00  0.00    +0.012 C 
ATOM     11  C   UNL     1      -3.683  -0.572  25.225  0.00  0.00    +0.023 C 
ATOM     13  C   UNL     1      -3.182  -1.905  24.708  0.00  0.00    -0.073 C 
ATOM     14  C   UNL     1      -1.897  -2.099  24.362  0.00  0.00    -0.022 C 
ATOM     19  C   UNL     1      -4.183  -3.024  24.641  0.00  0.00    +0.039 C 
ENDROOT
BRANCH   8  12
ATOM     12  C   UNL     1      -0.293   1.346  25.144  0.00  0.00    -0.013 C 
ATOM     17  C   UNL     1      -0.043   2.430  24.101  0.00  0.00    +0.007 C 
ATOM     18  C   UNL     1      -0.684   1.963  26.483  0.00  0.00    +0.007 C 
ENDBRANCH   8  12
BRANCH   9  15
ATOM     15  C   UNL     1       0.004  -1.090  23.120  0.00  0.00    +0.112 C 
BRANCH  15   5
ATOM      3  O   UNL     1       1.955  -0.075  21.275  0.00  0.00    -0.270 OA
ATOM      5  N   UNL     1       1.386  -0.841  23.390  0.00  0.00    -0.311 N 
ATOM     23  C   UNL     1       2.268  -0.344  22.432  0.00  0.00    +0.244 C 
ATOM     34  H   UNL     1       1.697  -0.953  24.349  0.00  0.00    +0.149 HD
BRANCH  23  26
ATOM     26  C   UNL     1       3.679  -0.165  22.863  0.00  0.00    +0.037 A 
ATOM     27  C   UNL     1       4.297   1.077  22.727  0.00  0.00    +0.015 A 
ATOM     28  C   UNL     1       4.385  -1.240  23.403  0.00  0.00    +0.015 A 
ATOM     29  C   UNL     1       5.620   1.246  23.132  0.00  0.00    +0.024 A 
ATOM     30  C   UNL     1       5.709  -1.072  23.808  0.00  0.00    +0.024 A 
ATOM     31  C   UNL     1       6.328   0.172  23.672  0.00  0.00    +0.033 A 
BRANCH  31   7
ATOM      4  O   UNL     1       8.899  -0.671  22.352  0.00  0.00    -0.276 OA
ATOM      7  N   UNL     1       7.651   0.341  24.078  0.00  0.00    -0.286 N 
ATOM     32  C   UNL     1       8.818  -0.074  23.421  0.00  0.00    +0.214 C 
ATOM     33  C   UNL     1      10.058   0.302  24.192  0.00  0.00    +0.109 C 
ATOM     35  H   UNL     1       7.775   0.830  24.962  0.00  0.00    +0.155 HD
ENDBRANCH  31   7
ENDBRANCH  23  26
ENDBRANCH  15   5
ENDBRANCH   9  15
BRANCH  11  16
ATOM     16  C   UNL     1      -4.552   0.132  24.176  0.00  0.00    +0.103 C 
BRANCH  16  20
ATOM      1  O   UNL     1      -3.221   1.654  22.938  0.00  0.00    -0.276 OA
ATOM      2  O   UNL     1      -5.745   4.737  25.868  0.00  0.00    -0.377 OA
ATOM      6  N   UNL     1      -4.410   2.532  24.728  0.00  0.00    -0.297 N 
ATOM     20  C   UNL     1      -3.996   1.503  23.886  0.00  0.00    +0.216 C 
ATOM     21  C   UNL     1      -3.922   3.895  24.515  0.00  0.00    +0.136 C 
ATOM     22  C   UNL     1      -5.226   2.368  25.936  0.00  0.00    +0.136 C 
ATOM     24  C   UNL     1      -5.068   4.890  24.618  0.00  0.00    +0.179 C 
ATOM     25  C   UNL     1      -6.316   3.430  25.986  0.00  0.00    +0.179 C 
ENDBRANCH  16  20
ENDBRANCH  11  16
TORSDOF 7
ENDMDL
MODEL 5
REMARK VINA RESULT:       6.0      1.598      3.679
REMARK  Name = 38028154
REMARK  11 active torsions:
REMARK  status: ('A' for Active; 'I' for Inactive)
REMARK    1  A    between atoms: N_5  and  C_15
REMARK    2  A    between atoms: N_7  and  C_31
REMARK    3  A    between atoms: C_8  and  C_12
REMARK    4  A    between atoms: C_9  and  C_15
REMARK    5  A    between atoms: C_11  and  C_16
REMARK    6  A    between atoms: C_12  and  C_17
REMARK    7  A    between atoms: C_12  and  C_18
REMARK    8  A    between atoms: C_13  and  C_19
REMARK    9  A    between atoms: C_16  and  C_20
REMARK   10  A    between atoms: C_23  and  C_26
REMARK   11  A    between atoms: C_32  and  C_33
REMARK                            x       y       z     vdW  Elec       q    Type
REMARK                         _______ _______ _______ _____ _____    ______ ____
ROOT
ATOM      8  C   UNL     1      -2.939   1.988  23.328  0.00  0.00    +0.000 C 
ATOM      9  C   UNL     1      -1.427   1.940  23.665  0.00  0.00    +0.032 C 
ATOM     10  C   UNL     1      -3.571   3.274  23.881  0.00  0.00    +0.012 C 
ATOM     11  C   UNL     1      -3.408   3.393  25.409  0.00  0.00    +0.023 C 
ATOM     13  C   UNL     1      -1.990   3.093  25.849  0.00  0.00    -0.073 C 
ATOM     14  C   UNL     1      -1.115   2.455  25.051  0.00  0.00    -0.022 C 
ATOM     19  C   UNL     1      -1.585   3.583  27.211  0.00  0.00    +0.039 C 
ENDROOT
BRANCH   8  12
ATOM     12  C   UNL     1      -3.188   1.896  21.819  0.00  0.00    -0.013 C 
ATOM     17  C   UNL     1      -3.692   3.231  21.281  0.00  0.00    +0.007 C 
ATOM     18  C   UNL     1      -1.916   1.466  21.095  0.00  0.00    +0.007 C 
ENDBRANCH   8  12
BRANCH   9  15
ATOM     15  C   UNL     1      -0.871   0.521  23.509  0.00  0.00    +0.112 C 
BRANCH  15   5
ATOM      3  O   UNL     1       1.011  -0.614  21.661  0.00  0.00    -0.270 OA
ATOM      5  N   UNL     1       0.554   0.517  23.635  0.00  0.00    -0.311 N 
ATOM     23  C   UNL     1       1.397  -0.058  22.687  0.00  0.00    +0.244 C 
ATOM     34  H   UNL     1       0.950   1.038  24.410  0.00  0.00    +0.149 HD
BRANCH  23  26
ATOM     26  C   UNL     1       2.853  -0.003  22.977  0.00  0.00    +0.037 A 
ATOM     27  C   UNL     1       3.582   1.145  22.670  0.00  0.00    +0.015 A 
ATOM     28  C   UNL     1       3.491  -1.100  23.557  0.00  0.00    +0.015 A 
ATOM     29  C   UNL     1       4.948   1.198  22.943  0.00  0.00    +0.024 A 
ATOM     30  C   UNL     1       4.858  -1.048  23.831  0.00  0.00    +0.024 A 
ATOM     31  C   UNL     1       5.587   0.101  23.523  0.00  0.00    +0.033 A 
BRANCH  31   7
ATOM      4  O   UNL     1       7.920  -1.135  22.076  0.00  0.00    -0.276 OA
ATOM      7  N   UNL     1       6.953   0.155  23.797  0.00  0.00    -0.286 N 
ATOM     32  C   UNL     1       8.003  -0.444  23.086  0.00  0.00    +0.214 C 
ATOM     33  C   UNL     1       9.343  -0.145  23.710  0.00  0.00    +0.109 C 
ATOM     35  H   UNL     1       7.211   0.700  24.617  0.00  0.00    +0.155 HD
ENDBRANCH  31   7
ENDBRANCH  23  26
ENDBRANCH  15   5
ENDBRANCH   9  15
BRANCH  11  16
ATOM     16  C   UNL     1      -4.411   2.495  26.143  0.00  0.00    +0.103 C 
BRANCH  16  20
ATOM      1  O   UNL     1      -5.910   1.897  24.407  0.00  0.00    -0.276 OA
ATOM      2  O   UNL     1      -3.113  -2.170  24.712  0.00  0.00    -0.377 OA
ATOM      6  N   UNL     1      -4.532   0.213  25.214  0.00  0.00    -0.297 N 
ATOM     20  C   UNL     1      -5.025   1.515  25.175  0.00  0.00    +0.216 C 
ATOM     21  C   UNL     1      -5.068  -0.801  24.306  0.00  0.00    +0.136 C 
ATOM     22  C   UNL     1      -3.574  -0.306  26.196  0.00  0.00    +0.136 C 
ATOM     24  C   UNL     1      -3.938  -1.610  23.687  0.00  0.00    +0.179 C 
ATOM     25  C   UNL     1      -2.506  -1.142  25.501  0.00  0.00    +0.179 C 
ENDBRANCH  16  20
ENDBRANCH  11  16
TORSDOF 7
ENDMDL
