MODEL 1
REMARK VINA RESULT:      -3.0      0.000      0.000
REMARK  Name = 51137020
REMARK  8 active torsions:
REMARK  status: ('A' for Active; 'I' for Inactive)
REMARK    1  A    between atoms: O_2  and  C_17
REMARK    2  A    between atoms: O_2  and  C_22
REMARK    3  A    between atoms: O_3  and  C_20
REMARK    4  A    between atoms: O_3  and  C_23
REMARK    5  A    between atoms: O_4  and  C_24
REMARK    6  A    between atoms: C_9  and  C_13
REMARK    7  A    between atoms: C_14  and  C_17
REMARK    8  A    between atoms: C_22  and  C_24
REMARK                            x       y       z     vdW  Elec       q    Type
REMARK                         _______ _______ _______ _____ _____    ______ ____
ROOT
ATOM      1  O   UNL     1      11.539  -6.625  31.577  0.00  0.00    -0.273 OA
ATOM      6  N   UNL     1      13.578  -7.713  31.574  0.00  0.00    -0.299 N 
ATOM      9  C   UNL     1      14.463  -9.505  30.287  0.00  0.00    +0.074 C 
ATOM     10  C   UNL     1      15.370  -9.246  31.501  0.00  0.00    +0.032 C 
ATOM     11  C   UNL     1      13.163  -8.810  30.708  0.00  0.00    +0.119 C 
ATOM     12  C   UNL     1      14.976  -7.849  31.964  0.00  0.00    +0.108 C 
ATOM     14  C   UNL     1      12.716  -6.694  31.936  0.00  0.00    +0.241 C 
ENDROOT
BRANCH   9  13
ATOM      7  N   UNL     1      15.272  -7.689  28.743  0.00  0.00    -0.341 N 
ATOM      8  N   UNL     1      15.557  -9.771  28.016  0.00  0.00    -0.232 NA
ATOM     13  C   UNL     1      15.104  -9.022  28.997  0.00  0.00    +0.113 A 
ATOM     15  C   UNL     1      15.872  -7.570  27.516  0.00  0.00    +0.070 A 
ATOM     16  C   UNL     1      16.040  -8.882  27.083  0.00  0.00    +0.089 A 
ATOM     18  C   UNL     1      16.271  -6.461  26.769  0.00  0.00    +0.073 A 
ATOM     19  C   UNL     1      16.638  -9.121  25.835  0.00  0.00    +0.033 A 
ATOM     20  C   UNL     1      16.865  -6.716  25.529  0.00  0.00    +0.122 A 
ATOM     21  C   UNL     1      17.046  -8.022  25.067  0.00  0.00    +0.048 A 
ATOM     25  H   UNL     1      15.001  -6.926  29.348  0.00  0.00    +0.167 HD
BRANCH  20   3
ATOM      3  O   UNL     1      17.274  -5.669  24.756  0.00  0.00    -0.495 OA
ATOM     23  C   UNL     1      17.056  -4.360  25.276  0.00  0.00    +0.277 C 
ENDBRANCH  20   3
ENDBRANCH   9  13
BRANCH  14  17
ATOM     17  C   UNL     1      13.304  -5.633  32.830  0.00  0.00    +0.256 C 
BRANCH  17   2
ATOM      2  O   UNL     1      13.586  -4.525  32.009  0.00  0.00    -0.359 OA
BRANCH   2  22
ATOM     22  C   UNL     1      14.908  -4.030  32.212  0.00  0.00    +0.280 C 
BRANCH  22  24
ATOM      5  O   UNL     1      16.039  -2.755  30.480  0.00  0.00    -0.248 OA
ATOM     24  C   UNL     1      15.580  -3.813  30.884  0.00  0.00    +0.331 C 
BRANCH  24   4
ATOM      4  O   UNL     1      15.609  -4.972  30.179  0.00  0.00    -0.479 OA
ATOM     26  H   UNL     1      16.493  -5.396  30.211  0.00  0.00    +0.295 HD
ENDBRANCH  24   4
ENDBRANCH  22  24
ENDBRANCH   2  22
ENDBRANCH  17   2
ENDBRANCH  14  17
TORSDOF 7
ENDMDL
MODEL 2
REMARK VINA RESULT:      -2.4      1.806      2.803
REMARK  Name = 51137020
REMARK  8 active torsions:
REMARK  status: ('A' for Active; 'I' for Inactive)
REMARK    1  A    between atoms: O_2  and  C_17
REMARK    2  A    between atoms: O_2  and  C_22
REMARK    3  A    between atoms: O_3  and  C_20
REMARK    4  A    between atoms: O_3  and  C_23
REMARK    5  A    between atoms: O_4  and  C_24
REMARK    6  A    between atoms: C_9  and  C_13
REMARK    7  A    between atoms: C_14  and  C_17
REMARK    8  A    between atoms: C_22  and  C_24
REMARK                            x       y       z     vdW  Elec       q    Type
REMARK                         _______ _______ _______ _____ _____    ______ ____
ROOT
ATOM      1  O   UNL     1      12.468  -9.942  30.624  0.00  0.00    -0.273 OA
ATOM      6  N   UNL     1      14.763  -9.963  30.354  0.00  0.00    -0.299 N 
ATOM      9  C   UNL     1      16.176 -10.272  28.467  0.00  0.00    +0.074 C 
ATOM     10  C   UNL     1      17.008 -10.375  29.756  0.00  0.00    +0.032 C 
ATOM     11  C   UNL     1      14.751 -10.483  28.992  0.00  0.00    +0.119 C 
ATOM     12  C   UNL     1      16.125  -9.730  30.817  0.00  0.00    +0.108 C 
ATOM     14  C   UNL     1      13.599  -9.728  31.063  0.00  0.00    +0.241 C 
ENDROOT
BRANCH   9  13
ATOM      7  N   UNL     1      16.553  -8.933  26.370  0.00  0.00    -0.341 N 
ATOM      8  N   UNL     1      16.597  -7.780  28.270  0.00  0.00    -0.232 NA
ATOM     13  C   UNL     1      16.444  -8.970  27.733  0.00  0.00    +0.113 A 
ATOM     15  C   UNL     1      16.792  -7.633  26.005  0.00  0.00    +0.070 A 
ATOM     16  C   UNL     1      16.815  -6.933  27.208  0.00  0.00    +0.089 A 
ATOM     18  C   UNL     1      16.985  -7.026  24.763  0.00  0.00    +0.073 A 
ATOM     19  C   UNL     1      17.043  -5.548  27.191  0.00  0.00    +0.033 A 
ATOM     20  C   UNL     1      17.210  -5.646  24.764  0.00  0.00    +0.122 A 
ATOM     21  C   UNL     1      17.239  -4.917  25.956  0.00  0.00    +0.048 A 
ATOM     25  H   UNL     1      16.474  -9.720  25.741  0.00  0.00    +0.167 HD
BRANCH  20   3
ATOM      3  O   UNL     1      17.405  -5.000  23.578  0.00  0.00    -0.495 OA
ATOM     23  C   UNL     1      17.009  -3.632  23.515  0.00  0.00    +0.277 C 
ENDBRANCH  20   3
ENDBRANCH   9  13
BRANCH  14  17
ATOM     17  C   UNL     1      13.786  -9.183  32.456  0.00  0.00    +0.256 C 
BRANCH  17   2
ATOM      2  O   UNL     1      13.144  -7.931  32.488  0.00  0.00    -0.359 OA
BRANCH   2  22
ATOM     22  C   UNL     1      14.038  -6.863  32.179  0.00  0.00    +0.280 C 
BRANCH  22  24
ATOM      5  O   UNL     1      12.539  -5.565  30.774  0.00  0.00    -0.248 OA
ATOM     24  C   UNL     1      13.589  -6.171  30.921  0.00  0.00    +0.331 C 
BRANCH  24   4
ATOM      4  O   UNL     1      14.527  -6.311  29.950  0.00  0.00    -0.479 OA
ATOM     26  H   UNL     1      14.655  -7.251  29.698  0.00  0.00    +0.295 HD
ENDBRANCH  24   4
ENDBRANCH  22  24
ENDBRANCH   2  22
ENDBRANCH  17   2
ENDBRANCH  14  17
TORSDOF 7
ENDMDL
MODEL 3
REMARK VINA RESULT:      -2.4     18.354     19.581
REMARK  Name = 51137020
REMARK  8 active torsions:
REMARK  status: ('A' for Active; 'I' for Inactive)
REMARK    1  A    between atoms: O_2  and  C_17
REMARK    2  A    between atoms: O_2  and  C_22
REMARK    3  A    between atoms: O_3  and  C_20
REMARK    4  A    between atoms: O_3  and  C_23
REMARK    5  A    between atoms: O_4  and  C_24
REMARK    6  A    between atoms: C_9  and  C_13
REMARK    7  A    between atoms: C_14  and  C_17
REMARK    8  A    between atoms: C_22  and  C_24
REMARK                            x       y       z     vdW  Elec       q    Type
REMARK                         _______ _______ _______ _____ _____    ______ ____
ROOT
ATOM      1  O   UNL     1      -6.205   1.627  23.986  0.00  0.00    -0.273 OA
ATOM      6  N   UNL     1      -4.698   0.310  25.142  0.00  0.00    -0.299 N 
ATOM      9  C   UNL     1      -3.051  -1.262  24.456  0.00  0.00    +0.074 C 
ATOM     10  C   UNL     1      -3.287  -1.391  25.970  0.00  0.00    +0.032 C 
ATOM     11  C   UNL     1      -4.309  -0.512  24.002  0.00  0.00    +0.119 C 
ATOM     12  C   UNL     1      -3.980  -0.088  26.347  0.00  0.00    +0.108 C 
ATOM     14  C   UNL     1      -5.625   1.330  25.032  0.00  0.00    +0.241 C 
ENDROOT
BRANCH   9  13
ATOM      7  N   UNL     1      -0.724  -1.273  23.499  0.00  0.00    -0.341 N 
ATOM      8  N   UNL     1      -1.363   0.628  24.457  0.00  0.00    -0.232 NA
ATOM     13  C   UNL     1      -1.718  -0.600  24.153  0.00  0.00    +0.113 A 
ATOM     15  C   UNL     1       0.344  -0.422  23.372  0.00  0.00    +0.070 A 
ATOM     16  C   UNL     1      -0.079   0.757  23.979  0.00  0.00    +0.089 A 
ATOM     18  C   UNL     1       1.606  -0.578  22.798  0.00  0.00    +0.073 A 
ATOM     19  C   UNL     1       0.795   1.856  24.024  0.00  0.00    +0.033 A 
ATOM     20  C   UNL     1       2.463   0.526  22.852  0.00  0.00    +0.122 A 
ATOM     21  C   UNL     1       2.067   1.723  23.454  0.00  0.00    +0.048 A 
ATOM     25  H   UNL     1      -0.764  -2.228  23.167  0.00  0.00    +0.167 HD
BRANCH  20   3
ATOM      3  O   UNL     1       3.710   0.430  22.307  0.00  0.00    -0.495 OA
ATOM     23  C   UNL     1       4.810   0.398  23.213  0.00  0.00    +0.277 C 
ENDBRANCH  20   3
ENDBRANCH   9  13
BRANCH  14  17
ATOM     17  C   UNL     1      -5.910   2.088  26.304  0.00  0.00    +0.256 C 
BRANCH  17   2
ATOM      2  O   UNL     1      -5.531   3.423  26.070  0.00  0.00    -0.359 OA
BRANCH   2  22
ATOM     22  C   UNL     1      -4.144   3.639  26.323  0.00  0.00    +0.280 C 
BRANCH  22  24
ATOM      5  O   UNL     1      -3.892   4.075  23.947  0.00  0.00    -0.248 OA
ATOM     24  C   UNL     1      -3.402   3.762  25.021  0.00  0.00    +0.331 C 
BRANCH  24   4
ATOM      4  O   UNL     1      -2.088   3.475  25.202  0.00  0.00    -0.479 OA
ATOM     26  H   UNL     1      -1.960   2.695  25.781  0.00  0.00    +0.295 HD
ENDBRANCH  24   4
ENDBRANCH  22  24
ENDBRANCH   2  22
ENDBRANCH  17   2
ENDBRANCH  14  17
TORSDOF 7
ENDMDL
MODEL 4
REMARK VINA RESULT:      -2.3      2.980      4.858
REMARK  Name = 51137020
REMARK  8 active torsions:
REMARK  status: ('A' for Active; 'I' for Inactive)
REMARK    1  A    between atoms: O_2  and  C_17
REMARK    2  A    between atoms: O_2  and  C_22
REMARK    3  A    between atoms: O_3  and  C_20
REMARK    4  A    between atoms: O_3  and  C_23
REMARK    5  A    between atoms: O_4  and  C_24
REMARK    6  A    between atoms: C_9  and  C_13
REMARK    7  A    between atoms: C_14  and  C_17
REMARK    8  A    between atoms: C_22  and  C_24
REMARK                            x       y       z     vdW  Elec       q    Type
REMARK                         _______ _______ _______ _____ _____    ______ ____
ROOT
ATOM      1  O   UNL     1      14.880  -9.635  29.586  0.00  0.00    -0.273 OA
ATOM      6  N   UNL     1      15.437  -7.570  30.459  0.00  0.00    -0.299 N 
ATOM      9  C   UNL     1      17.392  -6.223  30.330  0.00  0.00    +0.074 C 
ATOM     10  C   UNL     1      16.465  -5.681  31.431  0.00  0.00    +0.032 C 
ATOM     11  C   UNL     1      16.857  -7.646  30.138  0.00  0.00    +0.119 C 
ATOM     12  C   UNL     1      15.113  -6.309  31.117  0.00  0.00    +0.108 C 
ATOM     14  C   UNL     1      14.554  -8.587  30.146  0.00  0.00    +0.241 C 
ENDROOT
BRANCH   9  13
ATOM      7  N   UNL     1      17.366  -5.845  27.842  0.00  0.00    -0.341 N 
ATOM      8  N   UNL     1      17.405  -4.010  29.095  0.00  0.00    -0.232 NA
ATOM     13  C   UNL     1      17.389  -5.324  29.106  0.00  0.00    +0.113 A 
ATOM     15  C   UNL     1      17.368  -4.797  26.957  0.00  0.00    +0.070 A 
ATOM     16  C   UNL     1      17.393  -3.663  27.764  0.00  0.00    +0.089 A 
ATOM     18  C   UNL     1      17.352  -4.745  25.563  0.00  0.00    +0.073 A 
ATOM     19  C   UNL     1      17.403  -2.394  27.162  0.00  0.00    +0.033 A 
ATOM     20  C   UNL     1      17.361  -3.474  24.980  0.00  0.00    +0.122 A 
ATOM     21  C   UNL     1      17.387  -2.317  25.763  0.00  0.00    +0.048 A 
ATOM     25  H   UNL     1      17.352  -6.826  27.599  0.00  0.00    +0.167 HD
BRANCH  20   3
ATOM      3  O   UNL     1      17.347  -3.363  23.621  0.00  0.00    -0.495 OA
ATOM     23  C   UNL     1      16.264  -2.638  23.044  0.00  0.00    +0.277 C 
ENDBRANCH  20   3
ENDBRANCH   9  13
BRANCH  14  17
ATOM     17  C   UNL     1      13.119  -8.347  30.541  0.00  0.00    +0.256 C 
BRANCH  17   2
ATOM      2  O   UNL     1      12.745  -9.420  31.370  0.00  0.00    -0.359 OA
BRANCH   2  22
ATOM     22  C   UNL     1      11.958  -8.991  32.480  0.00  0.00    +0.280 C 
BRANCH  22  24
ATOM      5  O   UNL     1       9.848  -9.873  31.660  0.00  0.00    -0.248 OA
ATOM     24  C   UNL     1      10.508  -8.937  32.086  0.00  0.00    +0.331 C 
BRANCH  24   4
ATOM      4  O   UNL     1      10.018  -7.685  32.271  0.00  0.00    -0.479 OA
ATOM     26  H   UNL     1      10.017  -7.429  33.218  0.00  0.00    +0.295 HD
ENDBRANCH  24   4
ENDBRANCH  22  24
ENDBRANCH   2  22
ENDBRANCH  17   2
ENDBRANCH  14  17
TORSDOF 7
ENDMDL
MODEL 5
REMARK VINA RESULT:      -0.9     18.999     20.627
REMARK  Name = 51137020
REMARK  8 active torsions:
REMARK  status: ('A' for Active; 'I' for Inactive)
REMARK    1  A    between atoms: O_2  and  C_17
REMARK    2  A    between atoms: O_2  and  C_22
REMARK    3  A    between atoms: O_3  and  C_20
REMARK    4  A    between atoms: O_3  and  C_23
REMARK    5  A    between atoms: O_4  and  C_24
REMARK    6  A    between atoms: C_9  and  C_13
REMARK    7  A    between atoms: C_14  and  C_17
REMARK    8  A    between atoms: C_22  and  C_24
REMARK                            x       y       z     vdW  Elec       q    Type
REMARK                         _______ _______ _______ _____ _____    ______ ____
ROOT
ATOM      1  O   UNL     1      -2.888   5.247  23.140  0.00  0.00    -0.273 OA
ATOM      6  N   UNL     1      -3.876   4.004  24.819  0.00  0.00    -0.299 N 
ATOM      9  C   UNL     1      -5.389   2.170  24.809  0.00  0.00    +0.074 C 
ATOM     10  C   UNL     1      -5.299   2.756  26.228  0.00  0.00    +0.032 C 
ATOM     11  C   UNL     1      -4.829   3.315  23.957  0.00  0.00    +0.119 C 
ATOM     12  C   UNL     1      -4.017   3.579  26.206  0.00  0.00    +0.108 C 
ATOM     14  C   UNL     1      -2.968   4.923  24.326  0.00  0.00    +0.241 C 
ENDROOT
BRANCH   9  13
ATOM      7  N   UNL     1      -3.357   0.708  25.064  0.00  0.00    -0.341 N 
ATOM      8  N   UNL     1      -5.182  -0.304  24.299  0.00  0.00    -0.232 NA
ATOM     13  C   UNL     1      -4.671   0.835  24.710  0.00  0.00    +0.113 A 
ATOM     15  C   UNL     1      -2.996  -0.601  24.869  0.00  0.00    +0.070 A 
ATOM     16  C   UNL     1      -4.153  -1.211  24.391  0.00  0.00    +0.089 A 
ATOM     18  C   UNL     1      -1.794  -1.283  25.062  0.00  0.00    +0.073 A 
ATOM     19  C   UNL     1      -4.126  -2.581  24.082  0.00  0.00    +0.033 A 
ATOM     20  C   UNL     1      -1.786  -2.647  24.750  0.00  0.00    +0.122 A 
ATOM     21  C   UNL     1      -2.931  -3.287  24.268  0.00  0.00    +0.048 A 
ATOM     25  H   UNL     1      -2.755   1.443  25.408  0.00  0.00    +0.167 HD
BRANCH  20   3
ATOM      3  O   UNL     1      -0.638  -3.363  24.919  0.00  0.00    -0.495 OA
ATOM     23  C   UNL     1       0.486  -2.666  25.452  0.00  0.00    +0.277 C 
ENDBRANCH  20   3
ENDBRANCH   9  13
BRANCH  14  17
ATOM     17  C   UNL     1      -2.047   5.539  25.348  0.00  0.00    +0.256 C 
BRANCH  17   2
ATOM      2  O   UNL     1      -0.793   4.924  25.184  0.00  0.00    -0.359 OA
BRANCH   2  22
ATOM     22  C   UNL     1      -0.716   3.673  25.865  0.00  0.00    +0.280 C 
BRANCH  22  24
ATOM      5  O   UNL     1      -0.941   2.332  23.852  0.00  0.00    -0.248 OA
ATOM     24  C   UNL     1      -0.353   2.585  24.892  0.00  0.00    +0.331 C 
BRANCH  24   4
ATOM      4  O   UNL     1       0.737   1.908  25.332  0.00  0.00    -0.479 OA
ATOM     26  H   UNL     1       1.030   1.229  24.689  0.00  0.00    +0.295 HD
ENDBRANCH  24   4
ENDBRANCH  22  24
ENDBRANCH   2  22
ENDBRANCH  17   2
ENDBRANCH  14  17
TORSDOF 7
ENDMDL
MODEL 6
REMARK VINA RESULT:      -0.3     17.561     18.818
REMARK  Name = 51137020
REMARK  8 active torsions:
REMARK  status: ('A' for Active; 'I' for Inactive)
REMARK    1  A    between atoms: O_2  and  C_17
REMARK    2  A    between atoms: O_2  and  C_22
REMARK    3  A    between atoms: O_3  and  C_20
REMARK    4  A    between atoms: O_3  and  C_23
REMARK    5  A    between atoms: O_4  and  C_24
REMARK    6  A    between atoms: C_9  and  C_13
REMARK    7  A    between atoms: C_14  and  C_17
REMARK    8  A    between atoms: C_22  and  C_24
REMARK                            x       y       z     vdW  Elec       q    Type
REMARK                         _______ _______ _______ _____ _____    ______ ____
ROOT
ATOM      1  O   UNL     1      -3.225   3.902  23.432  0.00  0.00    -0.273 OA
ATOM      6  N   UNL     1      -2.422   2.055  24.566  0.00  0.00    -0.299 N 
ATOM      9  C   UNL     1      -1.470  -0.004  23.853  0.00  0.00    +0.074 C 
ATOM     10  C   UNL     1      -1.834  -0.094  25.345  0.00  0.00    +0.032 C 
ATOM     11  C   UNL     1      -2.308   1.195  23.394  0.00  0.00    +0.119 C 
ATOM     12  C   UNL     1      -1.993   1.360  25.773  0.00  0.00    +0.108 C 
ATOM     14  C   UNL     1      -2.874   3.359  24.481  0.00  0.00    +0.241 C 
ENDROOT
BRANCH   9  13
ATOM      7  N   UNL     1       0.858  -0.957  23.918  0.00  0.00    -0.341 N 
ATOM      8  N   UNL     1       0.697   1.146  23.219  0.00  0.00    -0.232 NA
ATOM     13  C   UNL     1       0.032   0.099  23.651  0.00  0.00    +0.113 A 
ATOM     15  C   UNL     1       2.142  -0.565  23.640  0.00  0.00    +0.070 A 
ATOM     16  C   UNL     1       2.015   0.752  23.205  0.00  0.00    +0.089 A 
ATOM     18  C   UNL     1       3.367  -1.227  23.729  0.00  0.00    +0.073 A 
ATOM     19  C   UNL     1       3.167   1.464  22.834  0.00  0.00    +0.033 A 
ATOM     20  C   UNL     1       4.504  -0.503  23.355  0.00  0.00    +0.122 A 
ATOM     21  C   UNL     1       4.408   0.820  22.915  0.00  0.00    +0.048 A 
ATOM     25  H   UNL     1       0.577  -1.866  24.261  0.00  0.00    +0.167 HD
BRANCH  20   3
ATOM      3  O   UNL     1       5.728  -1.100  23.422  0.00  0.00    -0.495 OA
ATOM     23  C   UNL     1       6.864  -0.271  23.188  0.00  0.00    +0.277 C 
ENDBRANCH  20   3
ENDBRANCH   9  13
BRANCH  14  17
ATOM     17  C   UNL     1      -2.925   4.115  25.785  0.00  0.00    +0.256 C 
BRANCH  17   2
ATOM      2  O   UNL     1      -4.039   3.625  26.491  0.00  0.00    -0.359 OA
BRANCH   2  22
ATOM     22  C   UNL     1      -5.239   3.707  25.723  0.00  0.00    +0.280 C 
BRANCH  22  24
ATOM      5  O   UNL     1      -5.934   1.599  24.734  0.00  0.00    -0.248 OA
ATOM     24  C   UNL     1      -5.913   2.363  25.687  0.00  0.00    +0.331 C 
BRANCH  24   4
ATOM      4  O   UNL     1      -6.507   2.106  26.879  0.00  0.00    -0.479 OA
ATOM     26  H   UNL     1      -6.122   2.643  27.604  0.00  0.00    +0.295 HD
ENDBRANCH  24   4
ENDBRANCH  22  24
ENDBRANCH   2  22
ENDBRANCH  17   2
ENDBRANCH  14  17
TORSDOF 7
ENDMDL
MODEL 7
REMARK VINA RESULT:      -0.2     17.638     18.750
REMARK  Name = 51137020
REMARK  8 active torsions:
REMARK  status: ('A' for Active; 'I' for Inactive)
REMARK    1  A    between atoms: O_2  and  C_17
REMARK    2  A    between atoms: O_2  and  C_22
REMARK    3  A    between atoms: O_3  and  C_20
REMARK    4  A    between atoms: O_3  and  C_23
REMARK    5  A    between atoms: O_4  and  C_24
REMARK    6  A    between atoms: C_9  and  C_13
REMARK    7  A    between atoms: C_14  and  C_17
REMARK    8  A    between atoms: C_22  and  C_24
REMARK                            x       y       z     vdW  Elec       q    Type
REMARK                         _______ _______ _______ _____ _____    ______ ____
ROOT
ATOM      1  O   UNL     1      -4.211   3.706  23.393  0.00  0.00    -0.273 OA
ATOM      6  N   UNL     1      -3.698   1.792  24.581  0.00  0.00    -0.299 N 
ATOM      9  C   UNL     1      -2.952  -0.371  23.937  0.00  0.00    +0.074 C 
ATOM     10  C   UNL     1      -3.413  -0.402  25.403  0.00  0.00    +0.032 C 
ATOM     11  C   UNL     1      -3.615   0.911  23.422  0.00  0.00    +0.119 C 
ATOM     12  C   UNL     1      -3.427   1.065  25.815  0.00  0.00    +0.108 C 
ATOM     14  C   UNL     1      -3.989   3.138  24.464  0.00  0.00    +0.241 C 
ENDROOT
BRANCH   9  13
ATOM      7  N   UNL     1      -0.719   0.561  23.244  0.00  0.00    -0.341 N 
ATOM      8  N   UNL     1      -0.667  -1.423  24.245  0.00  0.00    -0.232 NA
ATOM     13  C   UNL     1      -1.439  -0.446  23.825  0.00  0.00    +0.113 A 
ATOM     15  C   UNL     1       0.606   0.209  23.293  0.00  0.00    +0.070 A 
ATOM     16  C   UNL     1       0.612  -1.033  23.922  0.00  0.00    +0.089 A 
ATOM     18  C   UNL     1       1.764   0.851  22.854  0.00  0.00    +0.073 A 
ATOM     19  C   UNL     1       1.837  -1.687  24.133  0.00  0.00    +0.033 A 
ATOM     20  C   UNL     1       2.975   0.185  23.072  0.00  0.00    +0.122 A 
ATOM     21  C   UNL     1       3.013  -1.063  23.700  0.00  0.00    +0.048 A 
ATOM     25  H   UNL     1      -1.092   1.412  22.848  0.00  0.00    +0.167 HD
BRANCH  20   3
ATOM      3  O   UNL     1       4.139   0.765  22.663  0.00  0.00    -0.495 OA
ATOM     23  C   UNL     1       5.325   0.399  23.365  0.00  0.00    +0.277 C 
ENDBRANCH  20   3
ENDBRANCH   9  13
BRANCH  14  17
ATOM     17  C   UNL     1      -4.030   3.909  25.759  0.00  0.00    +0.256 C 
BRANCH  17   2
ATOM      2  O   UNL     1      -2.718   3.911  26.268  0.00  0.00    -0.359 OA
BRANCH   2  22
ATOM     22  C   UNL     1      -1.790   4.499  25.357  0.00  0.00    +0.280 C 
BRANCH  22  24
ATOM      5  O   UNL     1      -0.091   2.886  26.001  0.00  0.00    -0.248 OA
ATOM     24  C   UNL     1      -0.630   3.567  25.142  0.00  0.00    +0.331 C 
BRANCH  24   4
ATOM      4  O   UNL     1      -0.252   3.583  23.838  0.00  0.00    -0.479 OA
ATOM     26  H   UNL     1      -0.970   3.274  23.246  0.00  0.00    +0.295 HD
ENDBRANCH  24   4
ENDBRANCH  22  24
ENDBRANCH   2  22
ENDBRANCH  17   2
ENDBRANCH  14  17
TORSDOF 7
ENDMDL
MODEL 8
REMARK VINA RESULT:       0.7     18.017     19.830
REMARK  Name = 51137020
REMARK  8 active torsions:
REMARK  status: ('A' for Active; 'I' for Inactive)
REMARK    1  A    between atoms: O_2  and  C_17
REMARK    2  A    between atoms: O_2  and  C_22
REMARK    3  A    between atoms: O_3  and  C_20
REMARK    4  A    between atoms: O_3  and  C_23
REMARK    5  A    between atoms: O_4  and  C_24
REMARK    6  A    between atoms: C_9  and  C_13
REMARK    7  A    between atoms: C_14  and  C_17
REMARK    8  A    between atoms: C_22  and  C_24
REMARK                            x       y       z     vdW  Elec       q    Type
REMARK                         _______ _______ _______ _____ _____    ______ ____
ROOT
ATOM      1  O   UNL     1       1.858   0.979  24.175  0.00  0.00    -0.273 OA
ATOM      6  N   UNL     1       0.117  -0.525  23.959  0.00  0.00    -0.299 N 
ATOM      9  C   UNL     1      -1.621  -1.223  25.423  0.00  0.00    +0.074 C 
ATOM     10  C   UNL     1      -1.541  -2.183  24.224  0.00  0.00    +0.032 C 
ATOM     11  C   UNL     1      -0.252  -0.534  25.369  0.00  0.00    +0.119 C 
ATOM     12  C   UNL     1      -0.747  -1.405  23.182  0.00  0.00    +0.108 C 
ATOM     14  C   UNL     1       1.156   0.248  23.474  0.00  0.00    +0.241 C 
ENDROOT
BRANCH   9  13
ATOM      7  N   UNL     1      -2.774   0.998  25.688  0.00  0.00    -0.341 N 
ATOM      8  N   UNL     1      -4.044  -0.665  24.937  0.00  0.00    -0.232 NA
ATOM     13  C   UNL     1      -2.840  -0.322  25.336  0.00  0.00    +0.113 A 
ATOM     15  C   UNL     1      -4.020   1.543  25.503  0.00  0.00    +0.070 A 
ATOM     16  C   UNL     1      -4.794   0.485  25.034  0.00  0.00    +0.089 A 
ATOM     18  C   UNL     1      -4.520   2.830  25.700  0.00  0.00    +0.073 A 
ATOM     19  C   UNL     1      -6.149   0.707  24.740  0.00  0.00    +0.033 A 
ATOM     20  C   UNL     1      -5.872   3.033  25.401  0.00  0.00    +0.122 A 
ATOM     21  C   UNL     1      -6.674   1.991  24.930  0.00  0.00    +0.048 A 
ATOM     25  H   UNL     1      -1.957   1.488  26.026  0.00  0.00    +0.167 HD
BRANCH  20   3
ATOM      3  O   UNL     1      -6.415   4.272  25.576  0.00  0.00    -0.495 OA
ATOM     23  C   UNL     1      -5.591   5.389  25.252  0.00  0.00    +0.277 C 
ENDBRANCH  20   3
ENDBRANCH   9  13
BRANCH  14  17
ATOM     17  C   UNL     1       1.403   0.148  21.990  0.00  0.00    +0.256 C 
BRANCH  17   2
ATOM      2  O   UNL     1       2.730  -0.293  21.832  0.00  0.00    -0.359 OA
BRANCH   2  22
ATOM     22  C   UNL     1       3.669   0.618  22.401  0.00  0.00    +0.280 C 
BRANCH  22  24
ATOM      5  O   UNL     1       5.909   0.123  23.203  0.00  0.00    -0.248 OA
ATOM     24  C   UNL     1       4.717  -0.142  23.166  0.00  0.00    +0.331 C 
BRANCH  24   4
ATOM      4  O   UNL     1       4.150  -1.183  23.828  0.00  0.00    -0.479 OA
ATOM     26  H   UNL     1       3.243  -0.972  24.133  0.00  0.00    +0.295 HD
ENDBRANCH  24   4
ENDBRANCH  22  24
ENDBRANCH   2  22
ENDBRANCH  17   2
ENDBRANCH  14  17
TORSDOF 7
ENDMDL
