MODEL 1
REMARK VINA RESULT:      -4.8      0.000      0.000
REMARK  Name = 75536172
REMARK  14 active torsions:
REMARK  status: ('A' for Active; 'I' for Inactive)
REMARK    1  A    between atoms: O_2  and  C_31
REMARK    2  A    between atoms: N_4  and  C_14
REMARK    3  A    between atoms: C_7  and  C_11
REMARK    4  A    between atoms: C_8  and  C_14
REMARK    5  A    between atoms: C_10  and  C_15
REMARK    6  A    between atoms: C_11  and  C_16
REMARK    7  A    between atoms: C_11  and  C_17
REMARK    8  A    between atoms: C_12  and  C_18
REMARK    9  A    between atoms: C_15  and  C_19
REMARK   10  A    between atoms: C_20  and  C_23
REMARK   11  A    between atoms: C_23  and  C_26
REMARK   12  A    between atoms: C_24  and  C_29
REMARK   13  A    between atoms: C_26  and  C_30
REMARK   14  A    between atoms: C_30  and  C_31
REMARK                            x       y       z     vdW  Elec       q    Type
REMARK                         _______ _______ _______ _____ _____    ______ ____
ROOT
ATOM      7  C   UNL     1      -2.553   2.327  23.624  0.00  0.00    +0.000 C 
ATOM      8  C   UNL     1      -1.368   2.864  24.463  0.00  0.00    +0.032 C 
ATOM      9  C   UNL     1      -3.680   3.369  23.561  0.00  0.00    +0.012 C 
ATOM     10  C   UNL     1      -4.204   3.747  24.959  0.00  0.00    +0.022 C 
ATOM     12  C   UNL     1      -3.073   4.032  25.926  0.00  0.00    -0.073 C 
ATOM     13  C   UNL     1      -1.809   3.642  25.681  0.00  0.00    -0.022 C 
ATOM     18  C   UNL     1      -3.418   4.817  27.161  0.00  0.00    +0.039 C 
ENDROOT
BRANCH   7  11
ATOM     11  C   UNL     1      -2.119   1.947  22.205  0.00  0.00    -0.013 C 
ATOM     16  C   UNL     1      -2.867   2.788  21.176  0.00  0.00    +0.007 C 
ATOM     17  C   UNL     1      -2.352   0.459  21.959  0.00  0.00    +0.007 C 
ENDBRANCH   7  11
BRANCH   8  14
ATOM     14  C   UNL     1      -0.435   1.727  24.894  0.00  0.00    +0.112 C 
BRANCH  14   4
ATOM      1  O   UNL     1       0.276  -0.814  23.763  0.00  0.00    -0.276 OA
ATOM      4  N   UNL     1       0.564   1.487  23.901  0.00  0.00    -0.315 N 
ATOM     20  C   UNL     1       0.845   0.214  23.405  0.00  0.00    +0.213 C 
ATOM     32  H   UNL     1       1.011   2.283  23.456  0.00  0.00    +0.149 HD
BRANCH  20  23
ATOM     23  C   UNL     1       1.969   0.233  22.381  0.00  0.00    +0.096 C 
BRANCH  23  26
ATOM     26  C   UNL     1       3.178   1.062  22.810  0.00  0.00    +0.020 C 
BRANCH  26  30
ATOM     30  C   UNL     1       4.495   0.305  22.634  0.00  0.00    +0.121 C 
BRANCH  30  31
ATOM      3  O   UNL     1       5.642   0.683  24.749  0.00  0.00    -0.251 OA
ATOM     31  C   UNL     1       5.102  -0.083  23.962  0.00  0.00    +0.305 C 
BRANCH  31   2
ATOM      2  O   UNL     1       4.975  -1.416  24.194  0.00  0.00    -0.481 OA
ATOM     34  H   UNL     1       4.161  -1.623  24.702  0.00  0.00    +0.295 HD
ENDBRANCH  31   2
ENDBRANCH  30  31
ENDBRANCH  26  30
ENDBRANCH  23  26
ENDBRANCH  20  23
ENDBRANCH  14   4
ENDBRANCH   8  14
BRANCH  10  15
ATOM     15  C   UNL     1      -5.137   2.663  25.512  0.00  0.00    +0.082 C 
BRANCH  15  19
ATOM      5  N   UNL     1      -5.173   0.413  24.421  0.00  0.00    -0.342 N 
ATOM      6  N   UNL     1      -3.508   0.772  25.847  0.00  0.00    -0.232 NA
ATOM     19  C   UNL     1      -4.577   1.288  25.284  0.00  0.00    +0.109 A 
ATOM     21  C   UNL     1      -4.440  -0.747  24.427  0.00  0.00    +0.066 A 
ATOM     22  C   UNL     1      -3.406  -0.496  25.325  0.00  0.00    +0.092 A 
ATOM     24  C   UNL     1      -2.453  -1.500  25.569  0.00  0.00    -0.023 A 
ATOM     25  C   UNL     1      -4.588  -1.954  23.745  0.00  0.00    +0.028 A 
ATOM     27  C   UNL     1      -2.582  -2.721  24.895  0.00  0.00    +0.005 A 
ATOM     28  C   UNL     1      -3.631  -2.942  24.000  0.00  0.00    +0.002 A 
ATOM     29  C   UNL     1      -1.315  -1.312  26.517  0.00  0.00    +0.046 C 
ATOM     33  H   UNL     1      -6.008   0.584  23.875  0.00  0.00    +0.167 HD
ENDBRANCH  15  19
ENDBRANCH  10  15
TORSDOF 10
ENDMDL
MODEL 2
REMARK VINA RESULT:      -3.6      0.363      1.432
REMARK  Name = 75536172
REMARK  14 active torsions:
REMARK  status: ('A' for Active; 'I' for Inactive)
REMARK    1  A    between atoms: O_2  and  C_31
REMARK    2  A    between atoms: N_4  and  C_14
REMARK    3  A    between atoms: C_7  and  C_11
REMARK    4  A    between atoms: C_8  and  C_14
REMARK    5  A    between atoms: C_10  and  C_15
REMARK    6  A    between atoms: C_11  and  C_16
REMARK    7  A    between atoms: C_11  and  C_17
REMARK    8  A    between atoms: C_12  and  C_18
REMARK    9  A    between atoms: C_15  and  C_19
REMARK   10  A    between atoms: C_20  and  C_23
REMARK   11  A    between atoms: C_23  and  C_26
REMARK   12  A    between atoms: C_24  and  C_29
REMARK   13  A    between atoms: C_26  and  C_30
REMARK   14  A    between atoms: C_30  and  C_31
REMARK                            x       y       z     vdW  Elec       q    Type
REMARK                         _______ _______ _______ _____ _____    ______ ____
ROOT
ATOM      7  C   UNL     1      -2.505   2.240  23.626  0.00  0.00    +0.000 C 
ATOM      8  C   UNL     1      -1.349   2.868  24.443  0.00  0.00    +0.032 C 
ATOM      9  C   UNL     1      -3.692   3.211  23.543  0.00  0.00    +0.012 C 
ATOM     10  C   UNL     1      -4.230   3.595  24.934  0.00  0.00    +0.022 C 
ATOM     12  C   UNL     1      -3.113   3.973  25.885  0.00  0.00    -0.073 C 
ATOM     13  C   UNL     1      -1.829   3.651  25.642  0.00  0.00    -0.022 C 
ATOM     18  C   UNL     1      -3.497   4.769  27.101  0.00  0.00    +0.039 C 
ENDROOT
BRANCH   7  11
ATOM     11  C   UNL     1      -2.057   1.847  22.215  0.00  0.00    -0.013 C 
ATOM     16  C   UNL     1      -2.778   2.695  21.172  0.00  0.00    +0.007 C 
ATOM     17  C   UNL     1      -2.307   0.362  21.971  0.00  0.00    +0.007 C 
ENDBRANCH   7  11
BRANCH   8  14
ATOM     14  C   UNL     1      -0.348   1.800  24.898  0.00  0.00    +0.112 C 
BRANCH  14   4
ATOM      1  O   UNL     1       0.373  -0.753  23.801  0.00  0.00    -0.276 OA
ATOM      4  N   UNL     1       0.628   1.555  23.882  0.00  0.00    -0.315 N 
ATOM     20  C   UNL     1       0.916   0.276  23.406  0.00  0.00    +0.213 C 
ATOM     32  H   UNL     1       1.049   2.348  23.409  0.00  0.00    +0.149 HD
BRANCH  20  23
ATOM     23  C   UNL     1       2.011   0.291  22.352  0.00  0.00    +0.096 C 
BRANCH  23  26
ATOM     26  C   UNL     1       3.253   1.079  22.766  0.00  0.00    +0.020 C 
BRANCH  26  30
ATOM     30  C   UNL     1       4.537   0.262  22.618  0.00  0.00    +0.121 C 
BRANCH  30  31
ATOM      3  O   UNL     1       5.668   0.679  24.734  0.00  0.00    -0.251 OA
ATOM     31  C   UNL     1       5.131  -0.101  23.960  0.00  0.00    +0.305 C 
BRANCH  31   2
ATOM      2  O   UNL     1       4.993  -1.427  24.220  0.00  0.00    -0.481 OA
ATOM     34  H   UNL     1       4.990  -1.963  23.398  0.00  0.00    +0.295 HD
ENDBRANCH  31   2
ENDBRANCH  30  31
ENDBRANCH  26  30
ENDBRANCH  23  26
ENDBRANCH  20  23
ENDBRANCH  14   4
ENDBRANCH   8  14
BRANCH  10  15
ATOM     15  C   UNL     1      -5.095   2.474  25.521  0.00  0.00    +0.082 C 
BRANCH  15  19
ATOM      5  N   UNL     1      -3.294   0.793  25.953  0.00  0.00    -0.342 N 
ATOM      6  N   UNL     1      -4.906   0.152  24.564  0.00  0.00    -0.232 NA
ATOM     19  C   UNL     1      -4.458   1.128  25.322  0.00  0.00    +0.109 A 
ATOM     21  C   UNL     1      -2.966  -0.486  25.577  0.00  0.00    +0.066 A 
ATOM     22  C   UNL     1      -3.988  -0.862  24.709  0.00  0.00    +0.092 A 
ATOM     24  C   UNL     1      -3.957  -2.143  24.132  0.00  0.00    -0.023 A 
ATOM     25  C   UNL     1      -1.898  -1.317  25.911  0.00  0.00    +0.028 A 
ATOM     27  C   UNL     1      -2.893  -2.995  24.452  0.00  0.00    +0.005 A 
ATOM     28  C   UNL     1      -1.883  -2.588  25.327  0.00  0.00    +0.002 A 
ATOM     29  C   UNL     1      -5.013  -2.624  23.192  0.00  0.00    +0.046 C 
ATOM     33  H   UNL     1      -2.764   1.380  26.584  0.00  0.00    +0.167 HD
ENDBRANCH  15  19
ENDBRANCH  10  15
TORSDOF 10
ENDMDL
MODEL 3
REMARK VINA RESULT:      -3.1      1.511      4.380
REMARK  Name = 75536172
REMARK  14 active torsions:
REMARK  status: ('A' for Active; 'I' for Inactive)
REMARK    1  A    between atoms: O_2  and  C_31
REMARK    2  A    between atoms: N_4  and  C_14
REMARK    3  A    between atoms: C_7  and  C_11
REMARK    4  A    between atoms: C_8  and  C_14
REMARK    5  A    between atoms: C_10  and  C_15
REMARK    6  A    between atoms: C_11  and  C_16
REMARK    7  A    between atoms: C_11  and  C_17
REMARK    8  A    between atoms: C_12  and  C_18
REMARK    9  A    between atoms: C_15  and  C_19
REMARK   10  A    between atoms: C_20  and  C_23
REMARK   11  A    between atoms: C_23  and  C_26
REMARK   12  A    between atoms: C_24  and  C_29
REMARK   13  A    between atoms: C_26  and  C_30
REMARK   14  A    between atoms: C_30  and  C_31
REMARK                            x       y       z     vdW  Elec       q    Type
REMARK                         _______ _______ _______ _____ _____    ______ ____
ROOT
ATOM      7  C   UNL     1      -1.493   0.620  25.375  0.00  0.00    +0.000 C 
ATOM      8  C   UNL     1      -0.258   0.063  24.626  0.00  0.00    +0.032 C 
ATOM      9  C   UNL     1      -2.131  -0.473  26.245  0.00  0.00    +0.012 C 
ATOM     10  C   UNL     1      -2.572  -1.694  25.416  0.00  0.00    +0.022 C 
ATOM     12  C   UNL     1      -1.493  -2.141  24.452  0.00  0.00    -0.073 C 
ATOM     13  C   UNL     1      -0.458  -1.347  24.122  0.00  0.00    -0.022 C 
ATOM     18  C   UNL     1      -1.603  -3.539  23.912  0.00  0.00    +0.039 C 
ENDROOT
BRANCH   7  11
ATOM     11  C   UNL     1      -1.134   1.830  26.243  0.00  0.00    -0.013 C 
ATOM     16  C   UNL     1      -1.691   3.111  25.630  0.00  0.00    +0.007 C 
ATOM     17  C   UNL     1       0.378   1.928  26.419  0.00  0.00    +0.007 C 
ENDBRANCH   7  11
BRANCH   8  14
ATOM     14  C   UNL     1       0.137   0.972  23.457  0.00  0.00    +0.112 C 
BRANCH  14   4
ATOM      1  O   UNL     1       1.300  -0.531  21.304  0.00  0.00    -0.276 OA
ATOM      4  N   UNL     1       1.531   0.843  23.163  0.00  0.00    -0.315 N 
ATOM     20  C   UNL     1       2.010   0.090  22.092  0.00  0.00    +0.213 C 
ATOM     32  H   UNL     1       2.192   1.410  23.684  0.00  0.00    +0.149 HD
BRANCH  20  23
ATOM     23  C   UNL     1       3.529   0.096  22.022  0.00  0.00    +0.096 C 
BRANCH  23  26
ATOM     26  C   UNL     1       4.172   1.280  22.741  0.00  0.00    +0.020 C 
BRANCH  26  30
ATOM     30  C   UNL     1       5.052   0.841  23.913  0.00  0.00    +0.121 C 
BRANCH  30  31
ATOM      3  O   UNL     1       6.713  -0.671  22.972  0.00  0.00    -0.251 OA
ATOM     31  C   UNL     1       5.712  -0.493  23.652  0.00  0.00    +0.305 C 
BRANCH  31   2
ATOM      2  O   UNL     1       5.052  -1.503  24.278  0.00  0.00    -0.481 OA
ATOM     34  H   UNL     1       4.366  -1.904  23.702  0.00  0.00    +0.295 HD
ENDBRANCH  31   2
ENDBRANCH  30  31
ENDBRANCH  26  30
ENDBRANCH  23  26
ENDBRANCH  20  23
ENDBRANCH  14   4
ENDBRANCH   8  14
BRANCH  10  15
ATOM     15  C   UNL     1      -3.886  -1.414  24.677  0.00  0.00    +0.082 C 
BRANCH  15  19
ATOM      5  N   UNL     1      -4.977   0.601  25.678  0.00  0.00    -0.342 N 
ATOM      6  N   UNL     1      -3.852   0.944  23.793  0.00  0.00    -0.232 NA
ATOM     19  C   UNL     1      -4.219   0.050  24.684  0.00  0.00    +0.109 A 
ATOM     21  C   UNL     1      -5.108   1.940  25.413  0.00  0.00    +0.066 A 
ATOM     22  C   UNL     1      -4.397   2.128  24.230  0.00  0.00    +0.092 A 
ATOM     24  C   UNL     1      -4.329   3.416  23.671  0.00  0.00    -0.023 A 
ATOM     25  C   UNL     1      -5.767   2.971  26.084  0.00  0.00    +0.028 A 
ATOM     27  C   UNL     1      -4.983   4.466  24.327  0.00  0.00    +0.005 A 
ATOM     28  C   UNL     1      -5.689   4.245  25.512  0.00  0.00    +0.002 A 
ATOM     29  C   UNL     1      -3.587   3.702  22.406  0.00  0.00    +0.046 C 
ATOM     33  H   UNL     1      -5.374   0.111  26.469  0.00  0.00    +0.167 HD
ENDBRANCH  15  19
ENDBRANCH  10  15
TORSDOF 10
ENDMDL
MODEL 4
REMARK VINA RESULT:      -2.9      1.422      4.674
REMARK  Name = 75536172
REMARK  14 active torsions:
REMARK  status: ('A' for Active; 'I' for Inactive)
REMARK    1  A    between atoms: O_2  and  C_31
REMARK    2  A    between atoms: N_4  and  C_14
REMARK    3  A    between atoms: C_7  and  C_11
REMARK    4  A    between atoms: C_8  and  C_14
REMARK    5  A    between atoms: C_10  and  C_15
REMARK    6  A    between atoms: C_11  and  C_16
REMARK    7  A    between atoms: C_11  and  C_17
REMARK    8  A    between atoms: C_12  and  C_18
REMARK    9  A    between atoms: C_15  and  C_19
REMARK   10  A    between atoms: C_20  and  C_23
REMARK   11  A    between atoms: C_23  and  C_26
REMARK   12  A    between atoms: C_24  and  C_29
REMARK   13  A    between atoms: C_26  and  C_30
REMARK   14  A    between atoms: C_30  and  C_31
REMARK                            x       y       z     vdW  Elec       q    Type
REMARK                         _______ _______ _______ _____ _____    ______ ____
ROOT
ATOM      7  C   UNL     1      -1.678  -0.642  25.216  0.00  0.00    +0.000 C 
ATOM      8  C   UNL     1      -1.310  -2.028  24.633  0.00  0.00    +0.032 C 
ATOM      9  C   UNL     1      -3.056  -0.693  25.893  0.00  0.00    +0.012 C 
ATOM     10  C   UNL     1      -4.168  -1.124  24.918  0.00  0.00    +0.022 C 
ATOM     12  C   UNL     1      -3.768  -2.339  24.107  0.00  0.00    -0.073 C 
ATOM     13  C   UNL     1      -2.486  -2.736  24.002  0.00  0.00    -0.022 C 
ATOM     18  C   UNL     1      -4.878  -3.115  23.455  0.00  0.00    +0.039 C 
ENDROOT
BRANCH   7  11
ATOM     11  C   UNL     1      -0.628  -0.148  26.216  0.00  0.00    -0.013 C 
ATOM     16  C   UNL     1      -0.886  -0.743  27.597  0.00  0.00    +0.007 C 
ATOM     17  C   UNL     1      -0.625   1.377  26.276  0.00  0.00    +0.007 C 
ENDBRANCH   7  11
BRANCH   8  14
ATOM     14  C   UNL     1      -0.174  -1.915  23.610  0.00  0.00    +0.112 C 
BRANCH  14   4
ATOM      1  O   UNL     1       1.289  -0.424  21.641  0.00  0.00    -0.276 OA
ATOM      4  N   UNL     1       0.596  -0.732  23.837  0.00  0.00    -0.315 N 
ATOM     20  C   UNL     1       1.278  -0.069  22.817  0.00  0.00    +0.213 C 
ATOM     32  H   UNL     1       0.556  -0.293  24.751  0.00  0.00    +0.149 HD
BRANCH  20  23
ATOM     23  C   UNL     1       2.042   1.141  23.331  0.00  0.00    +0.096 C 
BRANCH  23  26
ATOM     26  C   UNL     1       3.413   1.323  22.685  0.00  0.00    +0.020 C 
BRANCH  26  30
ATOM     30  C   UNL     1       4.218   0.022  22.649  0.00  0.00    +0.121 C 
BRANCH  30  31
ATOM      3  O   UNL     1       5.615   0.719  24.519  0.00  0.00    -0.251 OA
ATOM     31  C   UNL     1       5.035  -0.168  23.906  0.00  0.00    +0.305 C 
BRANCH  31   2
ATOM      2  O   UNL     1       5.053  -1.470  24.294  0.00  0.00    -0.481 OA
ATOM     34  H   UNL     1       5.021  -2.080  23.526  0.00  0.00    +0.295 HD
ENDBRANCH  31   2
ENDBRANCH  30  31
ENDBRANCH  26  30
ENDBRANCH  23  26
ENDBRANCH  20  23
ENDBRANCH  14   4
ENDBRANCH   8  14
BRANCH  10  15
ATOM     15  C   UNL     1      -4.581   0.035  24.003  0.00  0.00    +0.082 C 
BRANCH  15  19
ATOM      5  N   UNL     1      -2.628   1.516  23.502  0.00  0.00    -0.342 N 
ATOM      6  N   UNL     1      -3.948   2.180  25.161  0.00  0.00    -0.232 NA
ATOM     19  C   UNL     1      -3.741   1.256  24.251  0.00  0.00    +0.109 A 
ATOM     21  C   UNL     1      -2.079   2.687  23.959  0.00  0.00    +0.066 A 
ATOM     22  C   UNL     1      -2.921   3.080  24.995  0.00  0.00    +0.092 A 
ATOM     24  C   UNL     1      -2.638   4.267  25.693  0.00  0.00    -0.023 A 
ATOM     25  C   UNL     1      -0.953   3.411  23.568  0.00  0.00    +0.028 A 
ATOM     27  C   UNL     1      -1.512   5.011  25.317  0.00  0.00    +0.005 A 
ATOM     28  C   UNL     1      -0.686   4.589  24.273  0.00  0.00    +0.002 A 
ATOM     29  C   UNL     1      -3.490   4.760  26.816  0.00  0.00    +0.046 C 
ATOM     33  H   UNL     1      -2.269   0.947  22.746  0.00  0.00    +0.167 HD
ENDBRANCH  15  19
ENDBRANCH  10  15
TORSDOF 10
ENDMDL
MODEL 5
REMARK VINA RESULT:      -2.9      1.351      2.284
REMARK  Name = 75536172
REMARK  14 active torsions:
REMARK  status: ('A' for Active; 'I' for Inactive)
REMARK    1  A    between atoms: O_2  and  C_31
REMARK    2  A    between atoms: N_4  and  C_14
REMARK    3  A    between atoms: C_7  and  C_11
REMARK    4  A    between atoms: C_8  and  C_14
REMARK    5  A    between atoms: C_10  and  C_15
REMARK    6  A    between atoms: C_11  and  C_16
REMARK    7  A    between atoms: C_11  and  C_17
REMARK    8  A    between atoms: C_12  and  C_18
REMARK    9  A    between atoms: C_15  and  C_19
REMARK   10  A    between atoms: C_20  and  C_23
REMARK   11  A    between atoms: C_23  and  C_26
REMARK   12  A    between atoms: C_24  and  C_29
REMARK   13  A    between atoms: C_26  and  C_30
REMARK   14  A    between atoms: C_30  and  C_31
REMARK                            x       y       z     vdW  Elec       q    Type
REMARK                         _______ _______ _______ _____ _____    ______ ____
ROOT
ATOM      7  C   UNL     1      -3.209   2.436  23.832  0.00  0.00    +0.000 C 
ATOM      8  C   UNL     1      -2.906   3.909  24.203  0.00  0.00    +0.032 C 
ATOM      9  C   UNL     1      -4.696   2.265  23.489  0.00  0.00    +0.012 C 
ATOM     10  C   UNL     1      -5.614   2.673  24.657  0.00  0.00    +0.022 C 
ATOM     12  C   UNL     1      -5.207   4.004  25.255  0.00  0.00    -0.073 C 
ATOM     13  C   UNL     1      -3.997   4.547  25.029  0.00  0.00    -0.022 C 
ATOM     18  C   UNL     1      -6.239   4.720  26.081  0.00  0.00    +0.039 C 
ENDROOT
BRANCH   7  11
ATOM     11  C   UNL     1      -2.348   1.956  22.659  0.00  0.00    -0.013 C 
ATOM     16  C   UNL     1      -2.717   2.708  21.385  0.00  0.00    +0.007 C 
ATOM     17  C   UNL     1      -2.507   0.451  22.464  0.00  0.00    +0.007 C 
ENDBRANCH   7  11
BRANCH   8  14
ATOM     14  C   UNL     1      -1.569   4.030  24.942  0.00  0.00    +0.112 C 
BRANCH  14   4
ATOM      1  O   UNL     1       0.089   1.957  26.037  0.00  0.00    -0.276 OA
ATOM      4  N   UNL     1      -0.543   3.308  24.256  0.00  0.00    -0.315 N 
ATOM     20  C   UNL     1       0.217   2.312  24.868  0.00  0.00    +0.213 C 
ATOM     32  H   UNL     1      -0.437   3.446  23.256  0.00  0.00    +0.149 HD
BRANCH  20  23
ATOM     23  C   UNL     1       1.257   1.725  23.926  0.00  0.00    +0.096 C 
BRANCH  23  26
ATOM     26  C   UNL     1       0.894   0.340  23.395  0.00  0.00    +0.020 C 
BRANCH  26  30
ATOM     30  C   UNL     1       1.871  -0.148  22.324  0.00  0.00    +0.121 C 
BRANCH  30  31
ATOM      3  O   UNL     1       4.051   0.923  22.501  0.00  0.00    -0.251 OA
ATOM     31  C   UNL     1       3.308  -0.011  22.771  0.00  0.00    +0.305 C 
BRANCH  31   2
ATOM      2  O   UNL     1       3.694  -1.070  23.530  0.00  0.00    -0.481 OA
ATOM     34  H   UNL     1       2.950  -1.686  23.703  0.00  0.00    +0.295 HD
ENDBRANCH  31   2
ENDBRANCH  30  31
ENDBRANCH  26  30
ENDBRANCH  23  26
ENDBRANCH  20  23
ENDBRANCH  14   4
ENDBRANCH   8  14
BRANCH  10  15
ATOM     15  C   UNL     1      -5.661   1.580  25.731  0.00  0.00    +0.082 C 
BRANCH  15  19
ATOM      5  N   UNL     1      -3.361   0.618  25.925  0.00  0.00    -0.342 N 
ATOM      6  N   UNL     1      -4.835  -0.612  24.806  0.00  0.00    -0.232 NA
ATOM     19  C   UNL     1      -4.643   0.507  25.468  0.00  0.00    +0.109 A 
ATOM     21  C   UNL     1      -2.677  -0.504  25.532  0.00  0.00    +0.066 A 
ATOM     22  C   UNL     1      -3.620  -1.255  24.835  0.00  0.00    +0.092 A 
ATOM     24  C   UNL     1      -3.239  -2.492  24.286  0.00  0.00    -0.023 A 
ATOM     25  C   UNL     1      -1.357  -0.914  25.720  0.00  0.00    +0.028 A 
ATOM     27  C   UNL     1      -1.918  -2.923  24.463  0.00  0.00    +0.005 A 
ATOM     28  C   UNL     1      -0.995  -2.147  25.168  0.00  0.00    +0.002 A 
ATOM     29  C   UNL     1      -4.188  -3.359  23.525  0.00  0.00    +0.046 C 
ATOM     33  H   UNL     1      -2.979   1.389  26.457  0.00  0.00    +0.167 HD
ENDBRANCH  15  19
ENDBRANCH  10  15
TORSDOF 10
ENDMDL
MODEL 6
REMARK VINA RESULT:      -2.2      2.530      3.291
REMARK  Name = 75536172
REMARK  14 active torsions:
REMARK  status: ('A' for Active; 'I' for Inactive)
REMARK    1  A    between atoms: O_2  and  C_31
REMARK    2  A    between atoms: N_4  and  C_14
REMARK    3  A    between atoms: C_7  and  C_11
REMARK    4  A    between atoms: C_8  and  C_14
REMARK    5  A    between atoms: C_10  and  C_15
REMARK    6  A    between atoms: C_11  and  C_16
REMARK    7  A    between atoms: C_11  and  C_17
REMARK    8  A    between atoms: C_12  and  C_18
REMARK    9  A    between atoms: C_15  and  C_19
REMARK   10  A    between atoms: C_20  and  C_23
REMARK   11  A    between atoms: C_23  and  C_26
REMARK   12  A    between atoms: C_24  and  C_29
REMARK   13  A    between atoms: C_26  and  C_30
REMARK   14  A    between atoms: C_30  and  C_31
REMARK                            x       y       z     vdW  Elec       q    Type
REMARK                         _______ _______ _______ _____ _____    ______ ____
ROOT
ATOM      7  C   UNL     1      -2.634   2.671  23.899  0.00  0.00    +0.000 C 
ATOM      8  C   UNL     1      -2.496   4.181  24.210  0.00  0.00    +0.032 C 
ATOM      9  C   UNL     1      -4.081   2.335  23.503  0.00  0.00    +0.012 C 
ATOM     10  C   UNL     1      -5.087   2.700  24.611  0.00  0.00    +0.022 C 
ATOM     12  C   UNL     1      -4.841   4.090  25.161  0.00  0.00    -0.073 C 
ATOM     13  C   UNL     1      -3.681   4.742  24.959  0.00  0.00    -0.022 C 
ATOM     18  C   UNL     1      -5.975   4.733  25.909  0.00  0.00    +0.039 C 
ENDROOT
BRANCH   7  11
ATOM     11  C   UNL     1      -1.678   2.229  22.786  0.00  0.00    -0.013 C 
ATOM     16  C   UNL     1      -2.460   1.807  21.547  0.00  0.00    +0.007 C 
ATOM     17  C   UNL     1      -0.784   1.093  23.274  0.00  0.00    +0.007 C 
ENDBRANCH   7  11
BRANCH   8  14
ATOM     14  C   UNL     1      -1.212   4.469  24.997  0.00  0.00    +0.112 C 
BRANCH  14   4
ATOM      1  O   UNL     1       0.940   2.651  25.553  0.00  0.00    -0.276 OA
ATOM      4  N   UNL     1      -1.104   3.598  26.125  0.00  0.00    -0.315 N 
ATOM     20  C   UNL     1      -0.018   2.744  26.318  0.00  0.00    +0.213 C 
ATOM     32  H   UNL     1      -1.785   3.682  26.873  0.00  0.00    +0.149 HD
BRANCH  20  23
ATOM     23  C   UNL     1      -0.164   1.907  27.578  0.00  0.00    +0.096 C 
BRANCH  23  26
ATOM     26  C   UNL     1       0.190   2.659  28.860  0.00  0.00    +0.020 C 
BRANCH  26  30
ATOM     30  C   UNL     1       1.514   2.188  29.465  0.00  0.00    +0.121 C 
BRANCH  30  31
ATOM      3  O   UNL     1       2.860   4.028  28.610  0.00  0.00    -0.251 OA
ATOM     31  C   UNL     1       2.702   2.828  28.785  0.00  0.00    +0.305 C 
BRANCH  31   2
ATOM      2  O   UNL     1       3.603   1.895  28.379  0.00  0.00    -0.481 OA
ATOM     34  H   UNL     1       3.834   1.272  29.102  0.00  0.00    +0.295 HD
ENDBRANCH  31   2
ENDBRANCH  30  31
ENDBRANCH  26  30
ENDBRANCH  23  26
ENDBRANCH  20  23
ENDBRANCH  14   4
ENDBRANCH   8  14
BRANCH  10  15
ATOM     15  C   UNL     1      -5.074   1.656  25.734  0.00  0.00    +0.082 C 
BRANCH  15  19
ATOM      5  N   UNL     1      -4.941  -0.559  24.580  0.00  0.00    -0.342 N 
ATOM      6  N   UNL     1      -3.086   0.115  25.601  0.00  0.00    -0.232 NA
ATOM     19  C   UNL     1      -4.335   0.415  25.322  0.00  0.00    +0.109 A 
ATOM     21  C   UNL     1      -4.022  -1.555  24.364  0.00  0.00    +0.066 A 
ATOM     22  C   UNL     1      -2.873  -1.109  25.013  0.00  0.00    +0.092 A 
ATOM     24  C   UNL     1      -1.719  -1.910  24.986  0.00  0.00    -0.023 A 
ATOM     25  C   UNL     1      -4.096  -2.768  23.680  0.00  0.00    +0.028 A 
ATOM     27  C   UNL     1      -1.770  -3.133  24.304  0.00  0.00    +0.005 A 
ATOM     28  C   UNL     1      -2.938  -3.552  23.663  0.00  0.00    +0.002 A 
ATOM     29  C   UNL     1      -0.446  -1.506  25.655  0.00  0.00    +0.046 C 
ATOM     33  H   UNL     1      -5.896  -0.551  24.248  0.00  0.00    +0.167 HD
ENDBRANCH  15  19
ENDBRANCH  10  15
TORSDOF 10
ENDMDL
MODEL 7
REMARK VINA RESULT:      -1.2      2.177      6.094
REMARK  Name = 75536172
REMARK  14 active torsions:
REMARK  status: ('A' for Active; 'I' for Inactive)
REMARK    1  A    between atoms: O_2  and  C_31
REMARK    2  A    between atoms: N_4  and  C_14
REMARK    3  A    between atoms: C_7  and  C_11
REMARK    4  A    between atoms: C_8  and  C_14
REMARK    5  A    between atoms: C_10  and  C_15
REMARK    6  A    between atoms: C_11  and  C_16
REMARK    7  A    between atoms: C_11  and  C_17
REMARK    8  A    between atoms: C_12  and  C_18
REMARK    9  A    between atoms: C_15  and  C_19
REMARK   10  A    between atoms: C_20  and  C_23
REMARK   11  A    between atoms: C_23  and  C_26
REMARK   12  A    between atoms: C_24  and  C_29
REMARK   13  A    between atoms: C_26  and  C_30
REMARK   14  A    between atoms: C_30  and  C_31
REMARK                            x       y       z     vdW  Elec       q    Type
REMARK                         _______ _______ _______ _____ _____    ______ ____
ROOT
ATOM      7  C   UNL     1      -2.970   1.121  23.783  0.00  0.00    +0.000 C 
ATOM      8  C   UNL     1      -4.383   0.553  24.065  0.00  0.00    +0.032 C 
ATOM      9  C   UNL     1      -2.127   0.098  23.007  0.00  0.00    +0.012 C 
ATOM     10  C   UNL     1      -1.975  -1.231  23.771  0.00  0.00    +0.022 C 
ATOM     12  C   UNL     1      -3.301  -1.722  24.316  0.00  0.00    -0.073 C 
ATOM     13  C   UNL     1      -4.370  -0.913  24.427  0.00  0.00    -0.022 C 
ATOM     18  C   UNL     1      -3.384  -3.176  24.688  0.00  0.00    +0.039 C 
ENDROOT
BRANCH   7  11
ATOM     11  C   UNL     1      -3.032   2.439  23.004  0.00  0.00    -0.013 C 
ATOM     16  C   UNL     1      -4.478   2.893  22.839  0.00  0.00    +0.007 C 
ATOM     17  C   UNL     1      -2.355   2.285  21.645  0.00  0.00    +0.007 C 
ENDBRANCH   7  11
BRANCH   8  14
ATOM     14  C   UNL     1      -5.087   1.346  25.172  0.00  0.00    +0.112 C 
BRANCH  14   4
ATOM      1  O   UNL     1      -5.775   4.072  25.755  0.00  0.00    -0.276 OA
ATOM      4  N   UNL     1      -4.219   2.347  25.709  0.00  0.00    -0.315 N 
ATOM     20  C   UNL     1      -4.639   3.653  25.963  0.00  0.00    +0.213 C 
ATOM     32  H   UNL     1      -3.294   2.072  26.023  0.00  0.00    +0.149 HD
BRANCH  20  23
ATOM     23  C   UNL     1      -3.514   4.521  26.504  0.00  0.00    +0.096 C 
BRANCH  23  26
ATOM     26  C   UNL     1      -2.197   4.362  25.748  0.00  0.00    +0.020 C 
BRANCH  26  30
ATOM     30  C   UNL     1      -1.322   3.251  26.330  0.00  0.00    +0.121 C 
BRANCH  30  31
ATOM      3  O   UNL     1      -0.006   3.291  24.281  0.00  0.00    -0.251 OA
ATOM     31  C   UNL     1      -0.126   2.959  25.452  0.00  0.00    +0.305 C 
BRANCH  31   2
ATOM      2  O   UNL     1       0.829   2.270  26.129  0.00  0.00    -0.481 OA
ATOM     34  H   UNL     1       0.460   1.482  26.582  0.00  0.00    +0.295 HD
ENDBRANCH  31   2
ENDBRANCH  30  31
ENDBRANCH  26  30
ENDBRANCH  23  26
ENDBRANCH  20  23
ENDBRANCH  14   4
ENDBRANCH   8  14
BRANCH  10  15
ATOM     15  C   UNL     1      -0.933  -1.110  24.889  0.00  0.00    +0.082 C 
BRANCH  15  19
ATOM      5  N   UNL     1       0.607   0.494  23.745  0.00  0.00    -0.342 N 
ATOM      6  N   UNL     1       1.511  -1.436  24.374  0.00  0.00    -0.232 NA
ATOM     19  C   UNL     1       0.411  -0.717  24.346  0.00  0.00    +0.109 A 
ATOM     21  C   UNL     1       1.922   0.563  23.358  0.00  0.00    +0.066 A 
ATOM     22  C   UNL     1       2.463  -0.655  23.762  0.00  0.00    +0.092 A 
ATOM     24  C   UNL     1       3.822  -0.916  23.512  0.00  0.00    -0.023 A 
ATOM     25  C   UNL     1       2.659   1.553  22.710  0.00  0.00    +0.028 A 
ATOM     27  C   UNL     1       4.582   0.065  22.862  0.00  0.00    +0.005 A 
ATOM     28  C   UNL     1       4.009   1.277  22.469  0.00  0.00    +0.002 A 
ATOM     29  C   UNL     1       4.480  -2.195  23.913  0.00  0.00    +0.046 C 
ATOM     33  H   UNL     1      -0.090   1.213  23.606  0.00  0.00    +0.167 HD
ENDBRANCH  15  19
ENDBRANCH  10  15
TORSDOF 10
ENDMDL
MODEL 8
REMARK VINA RESULT:      -0.9      1.364      2.097
REMARK  Name = 75536172
REMARK  14 active torsions:
REMARK  status: ('A' for Active; 'I' for Inactive)
REMARK    1  A    between atoms: O_2  and  C_31
REMARK    2  A    between atoms: N_4  and  C_14
REMARK    3  A    between atoms: C_7  and  C_11
REMARK    4  A    between atoms: C_8  and  C_14
REMARK    5  A    between atoms: C_10  and  C_15
REMARK    6  A    between atoms: C_11  and  C_16
REMARK    7  A    between atoms: C_11  and  C_17
REMARK    8  A    between atoms: C_12  and  C_18
REMARK    9  A    between atoms: C_15  and  C_19
REMARK   10  A    between atoms: C_20  and  C_23
REMARK   11  A    between atoms: C_23  and  C_26
REMARK   12  A    between atoms: C_24  and  C_29
REMARK   13  A    between atoms: C_26  and  C_30
REMARK   14  A    between atoms: C_30  and  C_31
REMARK                            x       y       z     vdW  Elec       q    Type
REMARK                         _______ _______ _______ _____ _____    ______ ____
ROOT
ATOM      7  C   UNL     1      -1.522   3.893  24.605  0.00  0.00    +0.000 C 
ATOM      8  C   UNL     1      -1.625   3.438  26.082  0.00  0.00    +0.032 C 
ATOM      9  C   UNL     1      -2.841   4.537  24.150  0.00  0.00    +0.012 C 
ATOM     10  C   UNL     1      -4.035   3.573  24.282  0.00  0.00    +0.022 C 
ATOM     12  C   UNL     1      -4.052   2.876  25.627  0.00  0.00    -0.073 C 
ATOM     13  C   UNL     1      -2.969   2.839  26.424  0.00  0.00    -0.022 C 
ATOM     18  C   UNL     1      -5.356   2.264  26.057  0.00  0.00    +0.039 C 
ENDROOT
BRANCH   7  11
ATOM     11  C   UNL     1      -0.366   4.875  24.392  0.00  0.00    -0.013 C 
ATOM     16  C   UNL     1      -0.759   6.271  24.863  0.00  0.00    +0.007 C 
ATOM     17  C   UNL     1       0.049   4.897  22.924  0.00  0.00    +0.007 C 
ENDBRANCH   7  11
BRANCH   8  14
ATOM     14  C   UNL     1      -0.517   2.438  26.431  0.00  0.00    +0.112 C 
BRANCH  14   4
ATOM      1  O   UNL     1      -0.150   0.585  24.269  0.00  0.00    -0.276 OA
ATOM      4  N   UNL     1       0.522   2.470  25.450  0.00  0.00    -0.315 N 
ATOM     20  C   UNL     1       0.625   1.525  24.429  0.00  0.00    +0.213 C 
ATOM     32  H   UNL     1       1.145   3.271  25.425  0.00  0.00    +0.149 HD
BRANCH  20  23
ATOM     23  C   UNL     1       1.834   1.771  23.541  0.00  0.00    +0.096 C 
BRANCH  23  26
ATOM     26  C   UNL     1       2.496   0.490  23.036  0.00  0.00    +0.020 C 
BRANCH  26  30
ATOM     30  C   UNL     1       3.961   0.705  22.649  0.00  0.00    +0.121 C 
BRANCH  30  31
ATOM      3  O   UNL     1       6.088  -0.087  23.531  0.00  0.00    -0.251 OA
ATOM     31  C   UNL     1       4.881  -0.236  23.391  0.00  0.00    +0.305 C 
BRANCH  31   2
ATOM      2  O   UNL     1       4.201  -1.294  23.904  0.00  0.00    -0.481 OA
ATOM     34  H   UNL     1       4.378  -1.413  24.862  0.00  0.00    +0.295 HD
ENDBRANCH  31   2
ENDBRANCH  30  31
ENDBRANCH  26  30
ENDBRANCH  23  26
ENDBRANCH  20  23
ENDBRANCH  14   4
ENDBRANCH   8  14
BRANCH  10  15
ATOM     15  C   UNL     1      -4.052   2.554  23.136  0.00  0.00    +0.082 C 
BRANCH  15  19
ATOM      5  N   UNL     1      -4.523   0.098  23.196  0.00  0.00    -0.342 N 
ATOM      6  N   UNL     1      -2.871   0.801  24.505  0.00  0.00    -0.232 NA
ATOM     19  C   UNL     1      -3.787   1.162  23.635  0.00  0.00    +0.109 A 
ATOM     21  C   UNL     1      -4.051  -1.026  23.824  0.00  0.00    +0.066 A 
ATOM     22  C   UNL     1      -3.020  -0.560  24.637  0.00  0.00    +0.092 A 
ATOM     24  C   UNL     1      -2.310  -1.475  25.433  0.00  0.00    -0.023 A 
ATOM     25  C   UNL     1      -4.425  -2.368  23.754  0.00  0.00    +0.028 A 
ATOM     27  C   UNL     1      -2.669  -2.828  25.379  0.00  0.00    +0.005 A 
ATOM     28  C   UNL     1      -3.708  -3.264  24.553  0.00  0.00    +0.002 A 
ATOM     29  C   UNL     1      -1.192  -1.057  26.330  0.00  0.00    +0.046 C 
ATOM     33  H   UNL     1      -5.282   0.130  22.529  0.00  0.00    +0.167 HD
ENDBRANCH  15  19
ENDBRANCH  10  15
TORSDOF 10
ENDMDL
