MODEL 1
REMARK VINA RESULT:       6.8      0.000      0.000
REMARK  Name = 75536089
REMARK  8 active torsions:
REMARK  status: ('A' for Active; 'I' for Inactive)
REMARK    1  A    between atoms: O_1  and  C_12
REMARK    2  A    between atoms: O_2  and  C_14
REMARK    3  A    between atoms: N_5  and  C_11
REMARK    4  A    between atoms: N_7  and  C_20
REMARK    5  A    between atoms: N_8  and  C_28
REMARK    6  A    between atoms: C_10  and  C_15
REMARK    7  A    between atoms: C_18  and  C_21
REMARK    8  A    between atoms: C_27  and  C_29
REMARK                            x       y       z     vdW  Elec       q    Type
REMARK                         _______ _______ _______ _____ _____    ______ ____
ROOT
ATOM     10  C   UNL     1      -2.144  -1.123  24.027  0.00  0.00    +0.046 C 
ATOM     11  C   UNL     1      -2.674  -0.728  25.424  0.00  0.00    +0.112 C 
ATOM     12  C   UNL     1      -3.839  -1.691  25.649  0.00  0.00    +0.164 C 
ATOM     13  C   UNL     1      -2.598  -2.589  23.803  0.00  0.00    +0.044 C 
ATOM     14  C   UNL     1      -3.313  -3.006  25.086  0.00  0.00    +0.145 C 
ENDROOT
BRANCH  10  15
ATOM      6  N   UNL     1       1.599  -1.503  24.510  0.00  0.00    -0.240 NA
ATOM     15  C   UNL     1      -0.655  -0.901  23.875  0.00  0.00    -0.024 A 
ATOM     16  C   UNL     1      -0.160   0.065  23.005  0.00  0.00    +0.009 A 
ATOM     17  C   UNL     1       0.258  -1.651  24.598  0.00  0.00    +0.116 A 
ATOM     19  C   UNL     1       1.214   0.248  22.887  0.00  0.00    +0.044 A 
ATOM     20  C   UNL     1       2.043  -0.555  23.655  0.00  0.00    +0.121 A 
BRANCH  20   7
ATOM      4  O   UNL     1       6.169  -0.066  23.007  0.00  0.00    -0.377 OA
ATOM      7  N   UNL     1       3.422  -0.360  23.526  0.00  0.00    -0.311 N 
ATOM     22  C   UNL     1       3.893   0.653  22.571  0.00  0.00    +0.134 C 
ATOM     23  C   UNL     1       4.344  -1.478  23.757  0.00  0.00    +0.134 C 
ATOM     24  C   UNL     1       5.314   1.075  22.929  0.00  0.00    +0.178 C 
ATOM     25  C   UNL     1       5.741  -0.942  24.050  0.00  0.00    +0.178 C 
ENDBRANCH  20   7
ENDBRANCH  10  15
BRANCH  11   5
ATOM      3  O   UNL     1      -5.087   0.363  24.313  0.00  0.00    -0.269 OA
ATOM      5  N   UNL     1      -3.098   0.648  25.472  0.00  0.00    -0.304 N 
ATOM     18  C   UNL     1      -4.288   1.084  24.903  0.00  0.00    +0.262 C 
ATOM     30  H   UNL     1      -2.522   1.308  25.985  0.00  0.00    +0.149 HD
BRANCH  18  21
ATOM      8  N   UNL     1      -3.671   3.538  24.782  0.00  0.00    -0.262 N 
ATOM      9  N   UNL     1      -4.175   4.772  24.954  0.00  0.00    -0.176 NA
ATOM     21  C   UNL     1      -4.569   2.539  25.016  0.00  0.00    +0.123 A 
ATOM     26  C   UNL     1      -5.742   3.162  25.366  0.00  0.00    +0.057 A 
ATOM     27  C   UNL     1      -5.440   4.536  25.310  0.00  0.00    +0.061 A 
ATOM     28  C   UNL     1      -2.291   3.388  24.385  0.00  0.00    +0.173 C 
ATOM     29  C   UNL     1      -6.343   5.664  25.593  0.00  0.00    +0.067 C 
ENDBRANCH  18  21
ENDBRANCH  11   5
BRANCH  12   1
ATOM      1  O   UNL     1      -4.174  -1.819  27.018  0.00  0.00    -0.387 OA
ATOM     31  H   UNL     1      -4.490  -2.728  27.158  0.00  0.00    +0.210 HD
ENDBRANCH  12   1
BRANCH  14   2
ATOM      2  O   UNL     1      -2.363  -3.595  25.968  0.00  0.00    -0.389 OA
ATOM     32  H   UNL     1      -2.583  -4.539  26.048  0.00  0.00    +0.210 HD
ENDBRANCH  14   2
TORSDOF 6
ENDMDL
MODEL 2
REMARK VINA RESULT:       7.2      1.462      2.049
REMARK  Name = 75536089
REMARK  8 active torsions:
REMARK  status: ('A' for Active; 'I' for Inactive)
REMARK    1  A    between atoms: O_1  and  C_12
REMARK    2  A    between atoms: O_2  and  C_14
REMARK    3  A    between atoms: N_5  and  C_11
REMARK    4  A    between atoms: N_7  and  C_20
REMARK    5  A    between atoms: N_8  and  C_28
REMARK    6  A    between atoms: C_10  and  C_15
REMARK    7  A    between atoms: C_18  and  C_21
REMARK    8  A    between atoms: C_27  and  C_29
REMARK                            x       y       z     vdW  Elec       q    Type
REMARK                         _______ _______ _______ _____ _____    ______ ____
ROOT
ATOM     10  C   UNL     1      -1.982  -0.869  23.824  0.00  0.00    +0.046 C 
ATOM     11  C   UNL     1      -2.562  -0.331  25.151  0.00  0.00    +0.112 C 
ATOM     12  C   UNL     1      -3.843  -1.144  25.336  0.00  0.00    +0.164 C 
ATOM     13  C   UNL     1      -2.584  -2.288  23.645  0.00  0.00    +0.044 C 
ATOM     14  C   UNL     1      -3.432  -2.542  24.889  0.00  0.00    +0.145 C 
ENDROOT
BRANCH  10  15
ATOM      6  N   UNL     1       1.538   0.159  22.855  0.00  0.00    -0.240 NA
ATOM     15  C   UNL     1      -0.470  -0.822  23.777  0.00  0.00    -0.024 A 
ATOM     16  C   UNL     1       0.299  -1.671  24.567  0.00  0.00    +0.009 A 
ATOM     17  C   UNL     1       0.192   0.066  22.946  0.00  0.00    +0.116 A 
ATOM     19  C   UNL     1       1.687  -1.605  24.501  0.00  0.00    +0.044 A 
ATOM     20  C   UNL     1       2.252  -0.682  23.636  0.00  0.00    +0.121 A 
BRANCH  20   7
ATOM      4  O   UNL     1       6.433  -0.582  23.200  0.00  0.00    -0.377 OA
ATOM      7  N   UNL     1       3.648  -0.627  23.581  0.00  0.00    -0.311 N 
ATOM     22  C   UNL     1       4.270   0.431  22.774  0.00  0.00    +0.134 C 
ATOM     23  C   UNL     1       4.434  -1.860  23.706  0.00  0.00    +0.134 C 
ATOM     24  C   UNL     1       5.709   0.647  23.230  0.00  0.00    +0.178 C 
ATOM     25  C   UNL     1       5.864  -1.522  24.112  0.00  0.00    +0.178 C 
ENDBRANCH  20   7
ENDBRANCH  10  15
BRANCH  11   5
ATOM      3  O   UNL     1      -0.764   1.785  25.884  0.00  0.00    -0.269 OA
ATOM      5  N   UNL     1      -2.828   1.084  25.090  0.00  0.00    -0.304 N 
ATOM     18  C   UNL     1      -1.891   2.038  25.468  0.00  0.00    +0.262 C 
ATOM     30  H   UNL     1      -3.720   1.387  24.710  0.00  0.00    +0.149 HD
BRANCH  18  21
ATOM      8  N   UNL     1      -3.609   3.899  25.523  0.00  0.00    -0.262 N 
ATOM      9  N   UNL     1      -3.742   5.229  25.388  0.00  0.00    -0.176 NA
ATOM     21  C   UNL     1      -2.329   3.454  25.370  0.00  0.00    +0.123 A 
ATOM     26  C   UNL     1      -1.571   4.572  25.115  0.00  0.00    +0.057 A 
ATOM     27  C   UNL     1      -2.494   5.635  25.138  0.00  0.00    +0.061 A 
ATOM     28  C   UNL     1      -4.777   3.098  25.806  0.00  0.00    +0.173 C 
ATOM     29  C   UNL     1      -2.219   7.065  24.925  0.00  0.00    +0.067 C 
ENDBRANCH  18  21
ENDBRANCH  11   5
BRANCH  12   1
ATOM      1  O   UNL     1      -4.287  -1.147  26.680  0.00  0.00    -0.387 OA
ATOM     31  H   UNL     1      -4.175  -2.050  27.023  0.00  0.00    +0.210 HD
ENDBRANCH  12   1
BRANCH  14   2
ATOM      2  O   UNL     1      -2.621  -3.175  25.874  0.00  0.00    -0.389 OA
ATOM     32  H   UNL     1      -2.236  -2.476  26.430  0.00  0.00    +0.210 HD
ENDBRANCH  14   2
TORSDOF 6
ENDMDL
MODEL 3
REMARK VINA RESULT:       7.6      2.098      7.745
REMARK  Name = 75536089
REMARK  8 active torsions:
REMARK  status: ('A' for Active; 'I' for Inactive)
REMARK    1  A    between atoms: O_1  and  C_12
REMARK    2  A    between atoms: O_2  and  C_14
REMARK    3  A    between atoms: N_5  and  C_11
REMARK    4  A    between atoms: N_7  and  C_20
REMARK    5  A    between atoms: N_8  and  C_28
REMARK    6  A    between atoms: C_10  and  C_15
REMARK    7  A    between atoms: C_18  and  C_21
REMARK    8  A    between atoms: C_27  and  C_29
REMARK                            x       y       z     vdW  Elec       q    Type
REMARK                         _______ _______ _______ _____ _____    ______ ____
ROOT
ATOM     10  C   UNL     1      -2.006  -1.180  25.444  0.00  0.00    +0.046 C 
ATOM     11  C   UNL     1      -1.265  -1.599  24.155  0.00  0.00    +0.112 C 
ATOM     12  C   UNL     1      -1.303  -3.126  24.202  0.00  0.00    +0.164 C 
ATOM     13  C   UNL     1      -2.908  -2.384  25.823  0.00  0.00    +0.044 C 
ATOM     14  C   UNL     1      -2.706  -3.420  24.720  0.00  0.00    +0.145 C 
ENDROOT
BRANCH  10  15
ATOM      6  N   UNL     1      -2.659   2.542  25.120  0.00  0.00    -0.240 NA
ATOM     15  C   UNL     1      -2.746   0.133  25.302  0.00  0.00    -0.024 A 
ATOM     16  C   UNL     1      -4.134   0.170  25.224  0.00  0.00    +0.009 A 
ATOM     17  C   UNL     1      -2.061   1.336  25.245  0.00  0.00    +0.116 A 
ATOM     19  C   UNL     1      -4.786   1.392  25.095  0.00  0.00    +0.044 A 
ATOM     20  C   UNL     1      -4.009   2.539  25.048  0.00  0.00    +0.121 A 
BRANCH  20   7
ATOM      4  O   UNL     1      -6.218   6.076  24.514  0.00  0.00    -0.377 OA
ATOM      7  N   UNL     1      -4.678   3.760  24.918  0.00  0.00    -0.311 N 
ATOM     22  C   UNL     1      -5.978   3.914  25.587  0.00  0.00    +0.134 C 
ATOM     23  C   UNL     1      -4.501   4.566  23.705  0.00  0.00    +0.134 C 
ATOM     24  C   UNL     1      -6.291   5.395  25.766  0.00  0.00    +0.178 C 
ATOM     25  C   UNL     1      -4.894   6.012  23.984  0.00  0.00    +0.178 C 
ENDBRANCH  20   7
ENDBRANCH  10  15
BRANCH  11   5
ATOM      3  O   UNL     1       0.089  -0.473  21.886  0.00  0.00    -0.269 OA
ATOM      5  N   UNL     1       0.085  -1.096  24.120  0.00  0.00    -0.304 N 
ATOM     18  C   UNL     1       0.657  -0.567  22.970  0.00  0.00    +0.262 C 
ATOM     30  H   UNL     1       0.615  -1.088  24.987  0.00  0.00    +0.149 HD
BRANCH  18  21
ATOM      8  N   UNL     1       2.470   1.173  23.289  0.00  0.00    -0.262 N 
ATOM      9  N   UNL     1       3.804   1.319  23.365  0.00  0.00    -0.176 NA
ATOM     21  C   UNL     1       2.067  -0.115  23.092  0.00  0.00    +0.123 A 
ATOM     26  C   UNL     1       3.217  -0.864  23.034  0.00  0.00    +0.057 A 
ATOM     27  C   UNL     1       4.255   0.071  23.209  0.00  0.00    +0.061 A 
ATOM     28  C   UNL     1       1.624   2.337  23.417  0.00  0.00    +0.173 C 
ATOM     29  C   UNL     1       5.703  -0.191  23.233  0.00  0.00    +0.067 C 
ENDBRANCH  18  21
ENDBRANCH  11   5
BRANCH  12   1
ATOM      1  O   UNL     1      -1.095  -3.707  22.928  0.00  0.00    -0.387 OA
ATOM     31  H   UNL     1      -1.705  -3.274  22.307  0.00  0.00    +0.210 HD
ENDBRANCH  12   1
BRANCH  14   2
ATOM      2  O   UNL     1      -3.680  -3.203  23.704  0.00  0.00    -0.389 OA
ATOM     32  H   UNL     1      -3.213  -3.173  22.852  0.00  0.00    +0.210 HD
ENDBRANCH  14   2
TORSDOF 6
ENDMDL
