MODEL 1
REMARK VINA RESULT:       1.4      0.000      0.000
REMARK  Name = 71693893
REMARK  7 active torsions:
REMARK  status: ('A' for Active; 'I' for Inactive)
REMARK    1  A    between atoms: O_2  and  C_9
REMARK    2  A    between atoms: O_3  and  C_11
REMARK    3  A    between atoms: O_5  and  C_19
REMARK    4  A    between atoms: O_5  and  C_25
REMARK    5  A    between atoms: N_6  and  C_8
REMARK    6  A    between atoms: C_7  and  C_12
REMARK    7  A    between atoms: C_15  and  C_18
REMARK                            x       y       z     vdW  Elec       q    Type
REMARK                         _______ _______ _______ _____ _____    ______ ____
ROOT
ATOM      7  C   UNL     1      -2.467  -0.784  25.493  0.00  0.00    +0.044 C 
ATOM      8  C   UNL     1      -1.831  -1.459  24.257  0.00  0.00    +0.112 C 
ATOM      9  C   UNL     1      -2.201  -2.932  24.425  0.00  0.00    +0.164 C 
ATOM     10  C   UNL     1      -3.611  -1.728  25.947  0.00  0.00    +0.044 C 
ATOM     11  C   UNL     1      -3.636  -2.871  24.934  0.00  0.00    +0.145 C 
ENDROOT
BRANCH   7  12
ATOM     12  C   UNL     1      -2.902   0.642  25.231  0.00  0.00    -0.042 A 
ATOM     13  C   UNL     1      -4.219   0.912  24.857  0.00  0.00    +0.007 A 
ATOM     14  C   UNL     1      -1.986   1.687  25.364  0.00  0.00    +0.007 A 
ATOM     16  C   UNL     1      -4.620   2.226  24.615  0.00  0.00    +0.046 A 
ATOM     17  C   UNL     1      -2.387   3.000  25.122  0.00  0.00    +0.046 A 
ATOM     19  C   UNL     1      -3.704   3.270  24.748  0.00  0.00    +0.120 A 
BRANCH  19   5
ATOM      5  O   UNL     1      -4.095   4.552  24.512  0.00  0.00    -0.495 OA
ATOM     25  C   UNL     1      -5.316   4.979  25.113  0.00  0.00    +0.277 C 
ENDBRANCH  19   5
ENDBRANCH   7  12
BRANCH   8   6
ATOM      4  O   UNL     1      -0.398   0.338  22.535  0.00  0.00    -0.270 OA
ATOM      6  N   UNL     1      -0.403  -1.265  24.211  0.00  0.00    -0.305 N 
ATOM     15  C   UNL     1       0.203  -0.369  23.340  0.00  0.00    +0.251 C 
ATOM     28  H   UNL     1       0.158  -1.783  24.879  0.00  0.00    +0.149 HD
BRANCH  15  18
ATOM      1  S   UNL     1       2.469   1.168  23.048  0.00  0.00    -0.084 S 
ATOM     18  C   UNL     1       1.685  -0.305  23.398  0.00  0.00    +0.075 A 
ATOM     20  C   UNL     1       2.578  -1.304  23.708  0.00  0.00    +0.029 A 
ATOM     21  C   UNL     1       3.944  -0.865  23.663  0.00  0.00    -0.010 A 
ATOM     22  C   UNL     1       4.031   0.485  23.309  0.00  0.00    +0.020 A 
ATOM     23  C   UNL     1       5.146  -1.571  23.912  0.00  0.00    +0.009 A 
ATOM     24  C   UNL     1       5.274   1.139  23.201  0.00  0.00    +0.015 A 
ATOM     26  C   UNL     1       6.381  -0.924  23.805  0.00  0.00    +0.001 A 
ATOM     27  C   UNL     1       6.441   0.417  23.453  0.00  0.00    +0.001 A 
ENDBRANCH  15  18
ENDBRANCH   8   6
BRANCH   9   2
ATOM      2  O   UNL     1      -2.121  -3.647  23.207  0.00  0.00    -0.387 OA
ATOM     29  H   UNL     1      -1.617  -3.101  22.580  0.00  0.00    +0.210 HD
ENDBRANCH   9   2
BRANCH  11   3
ATOM      3  O   UNL     1      -4.537  -2.532  23.884  0.00  0.00    -0.389 OA
ATOM     30  H   UNL     1      -4.196  -1.729  23.455  0.00  0.00    +0.210 HD
ENDBRANCH  11   3
TORSDOF 6
ENDMDL
MODEL 2
REMARK VINA RESULT:       2.2      0.646      1.171
REMARK  Name = 71693893
REMARK  7 active torsions:
REMARK  status: ('A' for Active; 'I' for Inactive)
REMARK    1  A    between atoms: O_2  and  C_9
REMARK    2  A    between atoms: O_3  and  C_11
REMARK    3  A    between atoms: O_5  and  C_19
REMARK    4  A    between atoms: O_5  and  C_25
REMARK    5  A    between atoms: N_6  and  C_8
REMARK    6  A    between atoms: C_7  and  C_12
REMARK    7  A    between atoms: C_15  and  C_18
REMARK                            x       y       z     vdW  Elec       q    Type
REMARK                         _______ _______ _______ _____ _____    ______ ____
ROOT
ATOM      7  C   UNL     1      -2.509  -0.787  25.489  0.00  0.00    +0.044 C 
ATOM      8  C   UNL     1      -1.882  -1.460  24.246  0.00  0.00    +0.112 C 
ATOM      9  C   UNL     1      -2.264  -2.930  24.406  0.00  0.00    +0.164 C 
ATOM     10  C   UNL     1      -3.660  -1.725  25.940  0.00  0.00    +0.044 C 
ATOM     11  C   UNL     1      -3.697  -2.861  24.920  0.00  0.00    +0.145 C 
ENDROOT
BRANCH   7  12
ATOM     12  C   UNL     1      -2.932   0.644  25.237  0.00  0.00    -0.042 A 
ATOM     13  C   UNL     1      -4.240   0.924  24.838  0.00  0.00    +0.007 A 
ATOM     14  C   UNL     1      -2.016   1.683  25.403  0.00  0.00    +0.007 A 
ATOM     16  C   UNL     1      -4.631   2.243  24.605  0.00  0.00    +0.046 A 
ATOM     17  C   UNL     1      -2.407   3.001  25.171  0.00  0.00    +0.046 A 
ATOM     19  C   UNL     1      -3.715   3.282  24.772  0.00  0.00    +0.120 A 
BRANCH  19   5
ATOM      5  O   UNL     1      -4.095   4.568  24.545  0.00  0.00    -0.495 OA
ATOM     25  C   UNL     1      -5.327   4.992  25.126  0.00  0.00    +0.277 C 
ENDBRANCH  19   5
ENDBRANCH   7  12
BRANCH   8   6
ATOM      4  O   UNL     1      -0.449   0.437  22.635  0.00  0.00    -0.270 OA
ATOM      6  N   UNL     1      -0.452  -1.278  24.197  0.00  0.00    -0.305 N 
ATOM     15  C   UNL     1       0.153  -0.330  23.383  0.00  0.00    +0.251 C 
ATOM     28  H   UNL     1       0.110  -1.846  24.821  0.00  0.00    +0.149 HD
BRANCH  15  18
ATOM      1  S   UNL     1       2.496  -1.671  23.925  0.00  0.00    -0.084 S 
ATOM     18  C   UNL     1       1.636  -0.285  23.428  0.00  0.00    +0.075 A 
ATOM     20  C   UNL     1       2.476   0.756  23.113  0.00  0.00    +0.029 A 
ATOM     21  C   UNL     1       3.864   0.425  23.276  0.00  0.00    -0.010 A 
ATOM     22  C   UNL     1       4.020  -0.890  23.723  0.00  0.00    +0.020 A 
ATOM     23  C   UNL     1       5.028   1.202  23.062  0.00  0.00    +0.009 A 
ATOM     24  C   UNL     1       5.295  -1.442  23.956  0.00  0.00    +0.015 A 
ATOM     26  C   UNL     1       6.294   0.658  23.292  0.00  0.00    +0.001 A 
ATOM     27  C   UNL     1       6.424  -0.651  23.735  0.00  0.00    +0.001 A 
ENDBRANCH  15  18
ENDBRANCH   8   6
BRANCH   9   2
ATOM      2  O   UNL     1      -2.193  -3.639  23.184  0.00  0.00    -0.387 OA
ATOM     29  H   UNL     1      -2.504  -3.042  22.481  0.00  0.00    +0.210 HD
ENDBRANCH   9   2
BRANCH  11   3
ATOM      3  O   UNL     1      -4.598  -2.508  23.875  0.00  0.00    -0.389 OA
ATOM     30  H   UNL     1      -4.312  -2.977  23.073  0.00  0.00    +0.210 HD
ENDBRANCH  11   3
TORSDOF 6
ENDMDL
