MODEL 1
REMARK VINA RESULT:      -0.5      0.000      0.000
REMARK  Name = 51136907
REMARK  5 active torsions:
REMARK  status: ('A' for Active; 'I' for Inactive)
REMARK    1  A    between atoms: N_2  and  C_9
REMARK    2  A    between atoms: C_8  and  C_9
REMARK    3  A    between atoms: C_10  and  C_19
REMARK    4  A    between atoms: C_20  and  C_21
REMARK    5  A    between atoms: C_25  and  C_26
REMARK                            x       y       z     vdW  Elec       q    Type
REMARK                         _______ _______ _______ _____ _____    ______ ____
ROOT
ATOM      1  O   UNL     1      -3.330   2.366  22.168  0.00  0.00    -0.336 OA
ATOM      3  N   UNL     1      -2.294   1.687  24.034  0.00  0.00    -0.190 NA
ATOM      4  N   UNL     1      -2.039   1.986  21.781  0.00  0.00    -0.056 NA
ATOM     19  C   UNL     1      -3.397   2.159  23.510  0.00  0.00    +0.245 A 
ATOM     20  C   UNL     1      -1.490   1.597  22.936  0.00  0.00    +0.204 A 
ENDROOT
BRANCH  20  21
ATOM      5  N   UNL     1       2.106   1.417  23.862  0.00  0.00    -0.254 NA
ATOM     21  C   UNL     1      -0.142   1.116  23.026  0.00  0.00    +0.041 A 
ATOM     22  C   UNL     1       0.239  -0.067  22.404  0.00  0.00    +0.015 A 
ATOM     23  C   UNL     1       0.821   1.814  23.738  0.00  0.00    +0.123 A 
ATOM     24  C   UNL     1       1.554  -0.509  22.509  0.00  0.00    +0.029 A 
ATOM     25  C   UNL     1       2.440   0.262  23.243  0.00  0.00    +0.074 A 
BRANCH  25  26
ATOM      6  N   UNL     1       5.454  -1.794  24.003  0.00  0.00    -0.243 NA
ATOM      7  N   UNL     1       6.166   0.380  23.246  0.00  0.00    -0.243 NA
ATOM     26  C   UNL     1       3.820  -0.135  23.397  0.00  0.00    +0.037 A 
ATOM     27  C   UNL     1       4.176  -1.390  23.845  0.00  0.00    +0.124 A 
ATOM     28  C   UNL     1       4.867   0.717  23.110  0.00  0.00    +0.124 A 
ATOM     29  C   UNL     1       6.385  -0.873  23.690  0.00  0.00    +0.221 A 
ENDBRANCH  25  26
ENDBRANCH  20  21
BRANCH  19  10
ATOM      2  N   UNL     1      -4.966   1.676  25.380  0.00  0.00    -0.291 NA
ATOM     10  C   UNL     1      -4.712   2.498  24.180  0.00  0.00    +0.146 C 
ATOM     13  C   UNL     1      -5.782   2.493  26.277  0.00  0.00    +0.085 C 
ATOM     14  C   UNL     1      -4.763   3.952  24.685  0.00  0.00    +0.030 C 
ATOM     15  C   UNL     1      -5.113   3.848  26.162  0.00  0.00    +0.017 C 
BRANCH   2   9
ATOM      9  C   UNL     1      -5.597   0.397  25.077  0.00  0.00    +0.088 C 
BRANCH   9   8
ATOM      8  C   UNL     1      -4.607  -0.753  25.248  0.00  0.00    +0.003 C 
ATOM     11  C   UNL     1      -3.304  -0.255  25.888  0.00  0.00    +0.005 C 
ATOM     12  C   UNL     1      -4.328  -1.433  23.901  0.00  0.00    +0.005 C 
ATOM     16  C   UNL     1      -2.276  -1.377  26.022  0.00  0.00    +0.000 C 
ATOM     17  C   UNL     1      -3.299  -2.553  24.037  0.00  0.00    +0.000 C 
ATOM     18  C   UNL     1      -2.008  -2.056  24.682  0.00  0.00    +0.000 C 
ENDBRANCH   9   8
ENDBRANCH   2   9
ENDBRANCH  19  10
TORSDOF 5
ENDMDL
MODEL 2
REMARK VINA RESULT:       3.1      1.603      3.143
REMARK  Name = 51136907
REMARK  5 active torsions:
REMARK  status: ('A' for Active; 'I' for Inactive)
REMARK    1  A    between atoms: N_2  and  C_9
REMARK    2  A    between atoms: C_8  and  C_9
REMARK    3  A    between atoms: C_10  and  C_19
REMARK    4  A    between atoms: C_20  and  C_21
REMARK    5  A    between atoms: C_25  and  C_26
REMARK                            x       y       z     vdW  Elec       q    Type
REMARK                         _______ _______ _______ _____ _____    ______ ____
ROOT
ATOM      1  O   UNL     1      -3.596   1.686  23.147  0.00  0.00    -0.336 OA
ATOM      3  N   UNL     1      -2.297   0.981  24.831  0.00  0.00    -0.190 NA
ATOM      4  N   UNL     1      -2.334   1.443  22.590  0.00  0.00    -0.056 NA
ATOM     19  C   UNL     1      -3.488   1.390  24.469  0.00  0.00    +0.245 A 
ATOM     20  C   UNL     1      -1.624   1.031  23.645  0.00  0.00    +0.204 A 
ENDROOT
BRANCH  20  21
ATOM      5  N   UNL     1       2.077   1.225  23.933  0.00  0.00    -0.254 NA
ATOM     21  C   UNL     1      -0.242   0.662  23.548  0.00  0.00    +0.041 A 
ATOM     22  C   UNL     1       0.138  -0.559  23.002  0.00  0.00    +0.015 A 
ATOM     23  C   UNL     1       0.758   1.511  23.995  0.00  0.00    +0.123 A 
ATOM     24  C   UNL     1       1.486  -0.889  22.922  0.00  0.00    +0.029 A 
ATOM     25  C   UNL     1       2.408   0.029  23.397  0.00  0.00    +0.074 A 
BRANCH  25  26
ATOM      6  N   UNL     1       5.674  -1.728  23.765  0.00  0.00    -0.243 NA
ATOM      7  N   UNL     1       6.064   0.442  22.794  0.00  0.00    -0.243 NA
ATOM     26  C   UNL     1       3.825  -0.246  23.347  0.00  0.00    +0.037 A 
ATOM     27  C   UNL     1       4.357  -1.438  23.795  0.00  0.00    +0.124 A 
ATOM     28  C   UNL     1       4.735   0.666  22.852  0.00  0.00    +0.124 A 
ATOM     29  C   UNL     1       6.459  -0.758  23.260  0.00  0.00    +0.221 A 
ENDBRANCH  25  26
ENDBRANCH  20  21
BRANCH  19  10
ATOM      2  N   UNL     1      -5.049   2.993  25.557  0.00  0.00    -0.291 NA
ATOM     10  C   UNL     1      -4.736   1.572  25.306  0.00  0.00    +0.146 C 
ATOM     13  C   UNL     1      -6.503   3.077  25.704  0.00  0.00    +0.085 C 
ATOM     14  C   UNL     1      -5.996   1.009  24.624  0.00  0.00    +0.030 C 
ATOM     15  C   UNL     1      -6.983   2.167  24.591  0.00  0.00    +0.017 C 
BRANCH   2   9
ATOM      9  C   UNL     1      -4.349   3.540  26.712  0.00  0.00    +0.088 C 
BRANCH   9   8
ATOM      8  C   UNL     1      -3.074   4.263  26.284  0.00  0.00    +0.003 C 
ATOM     11  C   UNL     1      -3.215   4.812  24.858  0.00  0.00    +0.005 C 
ATOM     12  C   UNL     1      -1.860   3.330  26.392  0.00  0.00    +0.005 C 
ATOM     16  C   UNL     1      -1.933   5.494  24.385  0.00  0.00    +0.000 C 
ATOM     17  C   UNL     1      -0.580   4.015  25.918  0.00  0.00    +0.000 C 
ATOM     18  C   UNL     1      -0.727   4.566  24.503  0.00  0.00    +0.000 C 
ENDBRANCH   9   8
ENDBRANCH   2   9
ENDBRANCH  19  10
TORSDOF 5
ENDMDL
