MODEL 1
REMARK VINA RESULT:      -4.3      0.000      0.000
REMARK  Name = 75367682
REMARK  3 active torsions:
REMARK  status: ('A' for Active; 'I' for Inactive)
REMARK    1  A    between atoms: O_2  and  C_7
REMARK    2  A    between atoms: O_2  and  C_13
REMARK    3  A    between atoms: N_5  and  C_14
REMARK                            x       y       z     vdW  Elec       q    Type
REMARK                         _______ _______ _______ _____ _____    ______ ____
ROOT
ATOM      1  O   UNL     1      -4.742   3.110  26.062  0.00  0.00    -0.375 OA
ATOM      3  O   UNL     1      -0.214   2.901  25.798  0.00  0.00    -0.252 OA
ATOM      4  N   UNL     1      -2.171   3.522  24.733  0.00  0.00    -0.280 N 
ATOM      5  N   UNL     1      -0.622   2.108  23.652  0.00  0.00    -0.268 N 
ATOM      7  C   UNL     1      -4.148   2.287  23.818  0.00  0.00    +0.216 C 
ATOM      8  C   UNL     1      -3.145   3.428  23.636  0.00  0.00    +0.156 C 
ATOM      9  C   UNL     1      -2.614   4.310  25.886  0.00  0.00    +0.137 C 
ATOM     10  C   UNL     1      -4.524   1.952  25.262  0.00  0.00    +0.206 C 
ATOM     11  C   UNL     1      -3.573   3.525  26.772  0.00  0.00    +0.179 C 
ATOM     12  C   UNL     1      -0.931   2.845  24.796  0.00  0.00    +0.307 C 
ATOM     24  H   UNL     1      -1.291   2.081  22.892  0.00  0.00    +0.156 HD
ENDROOT
BRANCH   5  14
ATOM      6  N   UNL     1       2.942   1.218  23.194  0.00  0.00    -0.261 NA
ATOM     14  C   UNL     1       0.536   1.329  23.410  0.00  0.00    +0.053 A 
ATOM     19  C   UNL     1       0.443  -0.035  23.160  0.00  0.00    +0.026 A 
ATOM     21  C   UNL     1       1.798   1.903  23.416  0.00  0.00    +0.134 A 
ATOM     22  C   UNL     1       1.599  -0.774  22.927  0.00  0.00    +0.021 A 
ATOM     23  C   UNL     1       2.812  -0.106  22.955  0.00  0.00    +0.111 A 
ENDBRANCH   5  14
BRANCH   7   2
ATOM      2  O   UNL     1      -3.635   1.112  23.193  0.00  0.00    -0.485 OA
BRANCH   2  13
ATOM     13  C   UNL     1      -3.533  -0.005  23.977  0.00  0.00    +0.121 A 
ATOM     15  C   UNL     1      -4.168  -1.186  23.594  0.00  0.00    +0.045 A 
ATOM     16  C   UNL     1      -2.794   0.037  25.158  0.00  0.00    +0.045 A 
ATOM     17  C   UNL     1      -4.065  -2.325  24.392  0.00  0.00    +0.004 A 
ATOM     18  C   UNL     1      -2.689  -1.102  25.957  0.00  0.00    +0.004 A 
ATOM     20  C   UNL     1      -3.325  -2.283  25.575  0.00  0.00    +0.000 A 
ENDBRANCH   2  13
ENDBRANCH   7   2
TORSDOF 3
ENDMDL
MODEL 2
REMARK VINA RESULT:      -4.3      1.866      4.366
REMARK  Name = 75367682
REMARK  3 active torsions:
REMARK  status: ('A' for Active; 'I' for Inactive)
REMARK    1  A    between atoms: O_2  and  C_7
REMARK    2  A    between atoms: O_2  and  C_13
REMARK    3  A    between atoms: N_5  and  C_14
REMARK                            x       y       z     vdW  Elec       q    Type
REMARK                         _______ _______ _______ _____ _____    ______ ____
ROOT
ATOM      1  O   UNL     1      -4.760  -1.418  24.336  0.00  0.00    -0.375 OA
ATOM      3  O   UNL     1      -0.351  -2.358  23.792  0.00  0.00    -0.252 OA
ATOM      4  N   UNL     1      -1.923  -1.158  24.992  0.00  0.00    -0.280 N 
ATOM      5  N   UNL     1      -0.089  -0.057  23.996  0.00  0.00    -0.268 N 
ATOM      7  C   UNL     1      -3.511   0.701  24.451  0.00  0.00    +0.216 C 
ATOM      8  C   UNL     1      -2.528   0.099  25.457  0.00  0.00    +0.156 C 
ATOM      9  C   UNL     1      -2.706  -2.363  25.278  0.00  0.00    +0.137 C 
ATOM     10  C   UNL     1      -4.287  -0.299  23.594  0.00  0.00    +0.206 C 
ATOM     11  C   UNL     1      -3.863  -2.530  24.302  0.00  0.00    +0.179 C 
ATOM     12  C   UNL     1      -0.740  -1.270  24.226  0.00  0.00    +0.307 C 
ATOM     24  H   UNL     1      -0.503   0.795  24.352  0.00  0.00    +0.156 HD
ENDROOT
BRANCH   5  14
ATOM      6  N   UNL     1       2.455  -0.315  21.319  0.00  0.00    -0.261 NA
ATOM     14  C   UNL     1       1.109   0.159  23.271  0.00  0.00    +0.053 A 
ATOM     19  C   UNL     1       2.093   1.016  23.751  0.00  0.00    +0.026 A 
ATOM     21  C   UNL     1       1.337  -0.477  22.061  0.00  0.00    +0.134 A 
ATOM     22  C   UNL     1       3.258   1.208  23.016  0.00  0.00    +0.021 A 
ATOM     23  C   UNL     1       3.389   0.526  21.818  0.00  0.00    +0.111 A 
ENDBRANCH   5  14
BRANCH   7   2
ATOM      2  O   UNL     1      -2.807   1.595  23.590  0.00  0.00    -0.485 OA
BRANCH   2  13
ATOM     13  C   UNL     1      -2.349   2.755  24.152  0.00  0.00    +0.121 A 
ATOM     15  C   UNL     1      -3.215   3.564  24.886  0.00  0.00    +0.045 A 
ATOM     16  C   UNL     1      -1.015   3.128  23.992  0.00  0.00    +0.045 A 
ATOM     17  C   UNL     1      -2.749   4.747  25.459  0.00  0.00    +0.004 A 
ATOM     18  C   UNL     1      -0.547   4.311  24.565  0.00  0.00    +0.004 A 
ATOM     20  C   UNL     1      -1.415   5.121  25.298  0.00  0.00    +0.000 A 
ENDBRANCH   2  13
ENDBRANCH   7   2
TORSDOF 3
ENDMDL
MODEL 3
REMARK VINA RESULT:      -3.6      1.989      5.280
REMARK  Name = 75367682
REMARK  3 active torsions:
REMARK  status: ('A' for Active; 'I' for Inactive)
REMARK    1  A    between atoms: O_2  and  C_7
REMARK    2  A    between atoms: O_2  and  C_13
REMARK    3  A    between atoms: N_5  and  C_14
REMARK                            x       y       z     vdW  Elec       q    Type
REMARK                         _______ _______ _______ _____ _____    ______ ____
ROOT
ATOM      1  O   UNL     1       0.766  -0.723  23.793  0.00  0.00    -0.375 OA
ATOM      3  O   UNL     1      -1.850   2.966  23.383  0.00  0.00    -0.252 OA
ATOM      4  N   UNL     1      -0.464   1.742  24.773  0.00  0.00    -0.280 N 
ATOM      5  N   UNL     1      -2.633   2.341  25.480  0.00  0.00    -0.268 N 
ATOM      7  C   UNL     1      -0.589  -0.520  25.840  0.00  0.00    +0.216 C 
ATOM      8  C   UNL     1      -0.199   0.953  25.984  0.00  0.00    +0.156 C 
ATOM      9  C   UNL     1       0.610   1.721  23.775  0.00  0.00    +0.137 C 
ATOM     10  C   UNL     1      -0.441  -1.116  24.440  0.00  0.00    +0.206 C 
ATOM     11  C   UNL     1       0.604   0.431  22.966  0.00  0.00    +0.179 C 
ATOM     12  C   UNL     1      -1.675   2.405  24.468  0.00  0.00    +0.307 C 
ATOM     24  H   UNL     1      -2.421   1.820  26.322  0.00  0.00    +0.156 HD
ENDROOT
BRANCH   5  14
ATOM      6  N   UNL     1      -5.334   4.872  25.530  0.00  0.00    -0.261 NA
ATOM     14  C   UNL     1      -3.934   2.901  25.478  0.00  0.00    +0.053 A 
ATOM     19  C   UNL     1      -5.063   2.092  25.422  0.00  0.00    +0.026 A 
ATOM     21  C   UNL     1      -4.122   4.274  25.531  0.00  0.00    +0.134 A 
ATOM     22  C   UNL     1      -6.328   2.672  25.420  0.00  0.00    +0.021 A 
ATOM     23  C   UNL     1      -6.408   4.053  25.475  0.00  0.00    +0.111 A 
ENDBRANCH   5  14
BRANCH   7   2
ATOM      2  O   UNL     1      -1.939  -0.688  26.270  0.00  0.00    -0.485 OA
BRANCH   2  13
ATOM     13  C   UNL     1      -2.788  -1.308  25.395  0.00  0.00    +0.121 A 
ATOM     15  C   UNL     1      -3.574  -0.549  24.529  0.00  0.00    +0.045 A 
ATOM     16  C   UNL     1      -2.868  -2.700  25.369  0.00  0.00    +0.045 A 
ATOM     17  C   UNL     1      -4.440  -1.180  23.637  0.00  0.00    +0.004 A 
ATOM     18  C   UNL     1      -3.734  -3.333  24.476  0.00  0.00    +0.004 A 
ATOM     20  C   UNL     1      -4.521  -2.572  23.610  0.00  0.00    +0.000 A 
ENDBRANCH   2  13
ENDBRANCH   7   2
TORSDOF 3
ENDMDL
MODEL 4
REMARK VINA RESULT:      -3.3      2.315      4.692
REMARK  Name = 75367682
REMARK  3 active torsions:
REMARK  status: ('A' for Active; 'I' for Inactive)
REMARK    1  A    between atoms: O_2  and  C_7
REMARK    2  A    between atoms: O_2  and  C_13
REMARK    3  A    between atoms: N_5  and  C_14
REMARK                            x       y       z     vdW  Elec       q    Type
REMARK                         _______ _______ _______ _____ _____    ______ ____
ROOT
ATOM      1  O   UNL     1      -3.120  -3.013  24.087  0.00  0.00    -0.375 OA
ATOM      3  O   UNL     1      -0.094   0.243  25.013  0.00  0.00    -0.252 OA
ATOM      4  N   UNL     1      -2.105  -0.733  25.609  0.00  0.00    -0.280 N 
ATOM      5  N   UNL     1      -1.977   1.591  25.219  0.00  0.00    -0.268 N 
ATOM      7  C   UNL     1      -4.357  -0.930  24.530  0.00  0.00    +0.216 C 
ATOM      8  C   UNL     1      -3.560  -0.699  25.816  0.00  0.00    +0.156 C 
ATOM      9  C   UNL     1      -1.504  -2.068  25.666  0.00  0.00    +0.137 C 
ATOM     10  C   UNL     1      -3.710  -1.857  23.501  0.00  0.00    +0.206 C 
ATOM     11  C   UNL     1      -1.732  -2.846  24.376  0.00  0.00    +0.179 C 
ATOM     12  C   UNL     1      -1.295   0.374  25.265  0.00  0.00    +0.307 C 
ATOM     24  H   UNL     1      -2.973   1.600  25.397  0.00  0.00    +0.156 HD
ENDROOT
BRANCH   5  14
ATOM      6  N   UNL     1       0.083   4.208  23.603  0.00  0.00    -0.261 NA
ATOM     14  C   UNL     1      -1.448   2.868  24.909  0.00  0.00    +0.053 A 
ATOM     19  C   UNL     1      -1.902   4.009  25.560  0.00  0.00    +0.026 A 
ATOM     21  C   UNL     1      -0.462   3.020  23.947  0.00  0.00    +0.134 A 
ATOM     22  C   UNL     1      -1.365   5.250  25.234  0.00  0.00    +0.021 A 
ATOM     23  C   UNL     1      -0.383   5.294  24.258  0.00  0.00    +0.111 A 
ENDBRANCH   5  14
BRANCH   7   2
ATOM      2  O   UNL     1      -4.619   0.329  23.912  0.00  0.00    -0.485 OA
BRANCH   2  13
ATOM     13  C   UNL     1      -5.102   1.320  24.722  0.00  0.00    +0.121 A 
ATOM     15  C   UNL     1      -5.876   0.996  25.836  0.00  0.00    +0.045 A 
ATOM     16  C   UNL     1      -4.821   2.655  24.434  0.00  0.00    +0.045 A 
ATOM     17  C   UNL     1      -6.368   2.006  26.662  0.00  0.00    +0.004 A 
ATOM     18  C   UNL     1      -5.313   3.666  25.260  0.00  0.00    +0.004 A 
ATOM     20  C   UNL     1      -6.087   3.342  26.373  0.00  0.00    +0.000 A 
ENDBRANCH   2  13
ENDBRANCH   7   2
TORSDOF 3
ENDMDL
MODEL 5
REMARK VINA RESULT:      -3.0      2.184      4.467
REMARK  Name = 75367682
REMARK  3 active torsions:
REMARK  status: ('A' for Active; 'I' for Inactive)
REMARK    1  A    between atoms: O_2  and  C_7
REMARK    2  A    between atoms: O_2  and  C_13
REMARK    3  A    between atoms: N_5  and  C_14
REMARK                            x       y       z     vdW  Elec       q    Type
REMARK                         _______ _______ _______ _____ _____    ______ ____
ROOT
ATOM      1  O   UNL     1      -0.887   4.435  25.717  0.00  0.00    -0.375 OA
ATOM      3  O   UNL     1      -0.867  -0.082  26.184  0.00  0.00    -0.252 OA
ATOM      4  N   UNL     1      -0.454   1.703  24.771  0.00  0.00    -0.280 N 
ATOM      5  N   UNL     1      -1.871  -0.055  24.087  0.00  0.00    -0.268 N 
ATOM      7  C   UNL     1      -1.873   3.456  23.684  0.00  0.00    +0.216 C 
ATOM      8  C   UNL     1      -0.699   2.484  23.550  0.00  0.00    +0.156 C 
ATOM      9  C   UNL     1       0.408   2.357  25.759  0.00  0.00    +0.137 C 
ATOM     10  C   UNL     1      -2.098   4.045  25.077  0.00  0.00    +0.206 C 
ATOM     11  C   UNL     1      -0.346   3.413  26.556  0.00  0.00    +0.179 C 
ATOM     12  C   UNL     1      -1.053   0.463  25.092  0.00  0.00    +0.307 C 
ATOM     24  H   UNL     1      -2.002   0.481  23.239  0.00  0.00    +0.156 HD
ENDROOT
BRANCH   5  14
ATOM      6  N   UNL     1      -2.643  -3.649  24.523  0.00  0.00    -0.261 NA
ATOM     14  C   UNL     1      -2.602  -1.268  24.106  0.00  0.00    +0.053 A 
ATOM     19  C   UNL     1      -3.945  -1.301  23.748  0.00  0.00    +0.026 A 
ATOM     21  C   UNL     1      -2.003  -2.460  24.483  0.00  0.00    +0.134 A 
ATOM     22  C   UNL     1      -4.638  -2.507  23.777  0.00  0.00    +0.021 A 
ATOM     23  C   UNL     1      -3.947  -3.642  24.168  0.00  0.00    +0.111 A 
ENDBRANCH   5  14
BRANCH   7   2
ATOM      2  O   UNL     1      -3.070   2.802  23.264  0.00  0.00    -0.485 OA
BRANCH   2  13
ATOM     13  C   UNL     1      -4.092   2.750  24.171  0.00  0.00    +0.121 A 
ATOM     15  C   UNL     1      -4.618   3.930  24.697  0.00  0.00    +0.045 A 
ATOM     16  C   UNL     1      -4.608   1.518  24.571  0.00  0.00    +0.045 A 
ATOM     17  C   UNL     1      -5.660   3.878  25.622  0.00  0.00    +0.004 A 
ATOM     18  C   UNL     1      -5.651   1.465  25.496  0.00  0.00    +0.004 A 
ATOM     20  C   UNL     1      -6.177   2.645  26.022  0.00  0.00    +0.000 A 
ENDBRANCH   2  13
ENDBRANCH   7   2
TORSDOF 3
ENDMDL
MODEL 6
REMARK VINA RESULT:      -2.3      1.956      5.406
REMARK  Name = 75367682
REMARK  3 active torsions:
REMARK  status: ('A' for Active; 'I' for Inactive)
REMARK    1  A    between atoms: O_2  and  C_7
REMARK    2  A    between atoms: O_2  and  C_13
REMARK    3  A    between atoms: N_5  and  C_14
REMARK                            x       y       z     vdW  Elec       q    Type
REMARK                         _______ _______ _______ _____ _____    ______ ____
ROOT
ATOM      1  O   UNL     1      -0.494   4.858  24.501  0.00  0.00    -0.375 OA
ATOM      3  O   UNL     1      -3.710   1.769  25.356  0.00  0.00    -0.252 OA
ATOM      4  N   UNL     1      -1.542   2.450  25.786  0.00  0.00    -0.280 N 
ATOM      5  N   UNL     1      -1.978   0.247  25.064  0.00  0.00    -0.268 N 
ATOM      7  C   UNL     1       0.552   2.630  24.424  0.00  0.00    +0.216 C 
ATOM      8  C   UNL     1      -0.085   2.255  25.764  0.00  0.00    +0.156 C 
ATOM      9  C   UNL     1      -1.978   3.804  26.139  0.00  0.00    +0.137 C 
ATOM     10  C   UNL     1      -0.120   3.771  23.660  0.00  0.00    +0.206 C 
ATOM     11  C   UNL     1      -1.841   4.766  24.966  0.00  0.00    +0.179 C 
ATOM     12  C   UNL     1      -2.508   1.493  25.401  0.00  0.00    +0.307 C 
ATOM     24  H   UNL     1      -0.974   0.121  25.086  0.00  0.00    +0.156 HD
ENDROOT
BRANCH   5  14
ATOM      6  N   UNL     1      -2.732  -3.310  24.368  0.00  0.00    -0.261 NA
ATOM     14  C   UNL     1      -2.682  -0.908  24.643  0.00  0.00    +0.053 A 
ATOM     19  C   UNL     1      -3.963  -0.813  24.111  0.00  0.00    +0.026 A 
ATOM     21  C   UNL     1      -2.116  -2.169  24.749  0.00  0.00    +0.134 A 
ATOM     22  C   UNL     1      -4.629  -1.966  23.707  0.00  0.00    +0.021 A 
ATOM     23  C   UNL     1      -3.975  -3.178  23.855  0.00  0.00    +0.111 A 
ENDBRANCH   5  14
BRANCH   7   2
ATOM      2  O   UNL     1       0.588   1.476  23.586  0.00  0.00    -0.485 OA
BRANCH   2  13
ATOM     13  C   UNL     1       1.815   0.908  23.376  0.00  0.00    +0.121 A 
ATOM     15  C   UNL     1       2.904   1.708  23.031  0.00  0.00    +0.045 A 
ATOM     16  C   UNL     1       1.977  -0.471  23.507  0.00  0.00    +0.045 A 
ATOM     17  C   UNL     1       4.155   1.131  22.817  0.00  0.00    +0.004 A 
ATOM     18  C   UNL     1       3.228  -1.049  23.293  0.00  0.00    +0.004 A 
ATOM     20  C   UNL     1       4.317  -0.249  22.948  0.00  0.00    +0.000 A 
ENDBRANCH   2  13
ENDBRANCH   7   2
TORSDOF 3
ENDMDL
MODEL 7
REMARK VINA RESULT:      -2.3      1.384      1.705
REMARK  Name = 75367682
REMARK  3 active torsions:
REMARK  status: ('A' for Active; 'I' for Inactive)
REMARK    1  A    between atoms: O_2  and  C_7
REMARK    2  A    between atoms: O_2  and  C_13
REMARK    3  A    between atoms: N_5  and  C_14
REMARK                            x       y       z     vdW  Elec       q    Type
REMARK                         _______ _______ _______ _____ _____    ______ ____
ROOT
ATOM      1  O   UNL     1      -5.109   3.615  25.660  0.00  0.00    -0.375 OA
ATOM      3  O   UNL     1      -1.323   3.638  23.153  0.00  0.00    -0.252 OA
ATOM      4  N   UNL     1      -3.386   2.652  23.503  0.00  0.00    -0.280 N 
ATOM      5  N   UNL     1      -1.433   1.331  23.411  0.00  0.00    -0.268 N 
ATOM      7  C   UNL     1      -4.395   1.280  25.340  0.00  0.00    +0.216 C 
ATOM      8  C   UNL     1      -4.244   1.504  23.834  0.00  0.00    +0.156 C 
ATOM      9  C   UNL     1      -4.073   3.946  23.466  0.00  0.00    +0.137 C 
ATOM     10  C   UNL     1      -4.358   2.537  26.210  0.00  0.00    +0.206 C 
ATOM     11  C   UNL     1      -4.316   4.497  24.864  0.00  0.00    +0.179 C 
ATOM     12  C   UNL     1      -1.983   2.611  23.333  0.00  0.00    +0.307 C 
ATOM     24  H   UNL     1      -2.044   0.548  23.607  0.00  0.00    +0.156 HD
ENDROOT
BRANCH   5  14
ATOM      6  N   UNL     1       2.249   1.431  23.778  0.00  0.00    -0.261 NA
ATOM     14  C   UNL     1      -0.071   0.964  23.282  0.00  0.00    +0.053 A 
ATOM     19  C   UNL     1       0.302  -0.170  22.570  0.00  0.00    +0.026 A 
ATOM     21  C   UNL     1       0.933   1.725  23.862  0.00  0.00    +0.134 A 
ATOM     22  C   UNL     1       1.648  -0.505  22.461  0.00  0.00    +0.021 A 
ATOM     23  C   UNL     1       2.573   0.321  23.077  0.00  0.00    +0.111 A 
ENDBRANCH   5  14
BRANCH   7   2
ATOM      2  O   UNL     1      -3.374   0.386  25.782  0.00  0.00    -0.485 OA
BRANCH   2  13
ATOM     13  C   UNL     1      -3.287  -0.815  25.132  0.00  0.00    +0.121 A 
ATOM     15  C   UNL     1      -4.387  -1.311  24.433  0.00  0.00    +0.045 A 
ATOM     16  C   UNL     1      -2.098  -1.542  25.168  0.00  0.00    +0.045 A 
ATOM     17  C   UNL     1      -4.298  -2.535  23.771  0.00  0.00    +0.004 A 
ATOM     18  C   UNL     1      -2.008  -2.766  24.505  0.00  0.00    +0.004 A 
ATOM     20  C   UNL     1      -3.109  -3.263  23.807  0.00  0.00    +0.000 A 
ENDBRANCH   2  13
ENDBRANCH   7   2
TORSDOF 3
ENDMDL
MODEL 8
REMARK VINA RESULT:      -2.0      2.315      4.770
REMARK  Name = 75367682
REMARK  3 active torsions:
REMARK  status: ('A' for Active; 'I' for Inactive)
REMARK    1  A    between atoms: O_2  and  C_7
REMARK    2  A    between atoms: O_2  and  C_13
REMARK    3  A    between atoms: N_5  and  C_14
REMARK                            x       y       z     vdW  Elec       q    Type
REMARK                         _______ _______ _______ _____ _____    ______ ____
ROOT
ATOM      1  O   UNL     1      -2.662  -2.908  24.335  0.00  0.00    -0.375 OA
ATOM      3  O   UNL     1       0.046   0.734  24.484  0.00  0.00    -0.252 OA
ATOM      4  N   UNL     1      -1.342  -0.674  25.684  0.00  0.00    -0.280 N 
ATOM      5  N   UNL     1      -1.681   1.660  25.735  0.00  0.00    -0.268 N 
ATOM      7  C   UNL     1      -3.797  -1.170  25.660  0.00  0.00    +0.216 C 
ATOM      8  C   UNL     1      -2.536  -0.946  26.498  0.00  0.00    +0.156 C 
ATOM      9  C   UNL     1      -0.629  -1.866  25.217  0.00  0.00    +0.137 C 
ATOM     10  C   UNL     1      -3.586  -1.824  24.295  0.00  0.00    +0.206 C 
ATOM     11  C   UNL     1      -1.325  -2.512  24.026  0.00  0.00    +0.179 C 
ATOM     12  C   UNL     1      -0.914   0.601  25.247  0.00  0.00    +0.307 C 
ATOM     24  H   UNL     1      -2.480   1.456  26.321  0.00  0.00    +0.156 HD
ENDROOT
BRANCH   5  14
ATOM      6  N   UNL     1      -0.225   4.805  24.432  0.00  0.00    -0.261 NA
ATOM     14  C   UNL     1      -1.506   3.043  25.482  0.00  0.00    +0.053 A 
ATOM     19  C   UNL     1      -2.390   3.983  25.998  0.00  0.00    +0.026 A 
ATOM     21  C   UNL     1      -0.448   3.502  24.712  0.00  0.00    +0.134 A 
ATOM     22  C   UNL     1      -2.193   5.334  25.732  0.00  0.00    +0.021 A 
ATOM     23  C   UNL     1      -1.106   5.690  24.952  0.00  0.00    +0.111 A 
ENDBRANCH   5  14
BRANCH   7   2
ATOM      2  O   UNL     1      -4.459   0.081  25.472  0.00  0.00    -0.485 OA
BRANCH   2  13
ATOM     13  C   UNL     1      -4.061   0.830  24.399  0.00  0.00    +0.121 A 
ATOM     15  C   UNL     1      -4.486   2.152  24.275  0.00  0.00    +0.045 A 
ATOM     16  C   UNL     1      -3.230   0.271  23.429  0.00  0.00    +0.045 A 
ATOM     17  C   UNL     1      -4.080   2.916  23.182  0.00  0.00    +0.004 A 
ATOM     18  C   UNL     1      -2.823   1.035  22.334  0.00  0.00    +0.004 A 
ATOM     20  C   UNL     1      -3.249   2.357  22.210  0.00  0.00    +0.000 A 
ENDBRANCH   2  13
ENDBRANCH   7   2
TORSDOF 3
ENDMDL
MODEL 9
REMARK VINA RESULT:      -1.6      2.430      6.368
REMARK  Name = 75367682
REMARK  3 active torsions:
REMARK  status: ('A' for Active; 'I' for Inactive)
REMARK    1  A    between atoms: O_2  and  C_7
REMARK    2  A    between atoms: O_2  and  C_13
REMARK    3  A    between atoms: N_5  and  C_14
REMARK                            x       y       z     vdW  Elec       q    Type
REMARK                         _______ _______ _______ _____ _____    ______ ____
ROOT
ATOM      1  O   UNL     1      -1.175  -2.729  25.212  0.00  0.00    -0.375 OA
ATOM      3  O   UNL     1      -4.977  -0.387  24.387  0.00  0.00    -0.252 OA
ATOM      4  N   UNL     1      -2.722  -0.611  23.920  0.00  0.00    -0.280 N 
ATOM      5  N   UNL     1      -3.593   1.465  24.624  0.00  0.00    -0.268 N 
ATOM      7  C   UNL     1      -0.612  -0.331  25.240  0.00  0.00    +0.216 C 
ATOM      8  C   UNL     1      -1.337  -0.118  23.909  0.00  0.00    +0.156 C 
ATOM      9  C   UNL     1      -2.874  -2.031  23.592  0.00  0.00    +0.137 C 
ATOM     10  C   UNL     1      -1.020  -1.574  26.031  0.00  0.00    +0.206 C 
ATOM     11  C   UNL     1      -2.520  -2.925  24.773  0.00  0.00    +0.179 C 
ATOM     12  C   UNL     1      -3.859   0.131  24.314  0.00  0.00    +0.307 C 
ATOM     24  H   UNL     1      -2.638   1.796  24.580  0.00  0.00    +0.156 HD
ENDROOT
BRANCH   5  14
ATOM      6  N   UNL     1      -6.490   3.033  26.313  0.00  0.00    -0.261 NA
ATOM     14  C   UNL     1      -4.514   2.456  25.046  0.00  0.00    +0.053 A 
ATOM     19  C   UNL     1      -4.377   3.780  24.642  0.00  0.00    +0.026 A 
ATOM     21  C   UNL     1      -5.579   2.138  25.874  0.00  0.00    +0.134 A 
ATOM     22  C   UNL     1      -5.297   4.730  25.072  0.00  0.00    +0.021 A 
ATOM     23  C   UNL     1      -6.326   4.310  25.899  0.00  0.00    +0.111 A 
ENDBRANCH   5  14
BRANCH   7   2
ATOM      2  O   UNL     1      -0.802   0.819  26.063  0.00  0.00    -0.485 OA
BRANCH   2  13
ATOM     13  C   UNL     1      -0.650   2.037  25.459  0.00  0.00    +0.121 A 
ATOM     15  C   UNL     1      -1.230   3.173  26.024  0.00  0.00    +0.045 A 
ATOM     16  C   UNL     1       0.086   2.143  24.279  0.00  0.00    +0.045 A 
ATOM     17  C   UNL     1      -1.075   4.415  25.409  0.00  0.00    +0.004 A 
ATOM     18  C   UNL     1       0.241   3.385  23.664  0.00  0.00    +0.004 A 
ATOM     20  C   UNL     1      -0.339   4.521  24.228  0.00  0.00    +0.000 A 
ENDBRANCH   2  13
ENDBRANCH   7   2
TORSDOF 3
ENDMDL
MODEL 10
REMARK VINA RESULT:      -1.4      2.012      4.790
REMARK  Name = 75367682
REMARK  3 active torsions:
REMARK  status: ('A' for Active; 'I' for Inactive)
REMARK    1  A    between atoms: O_2  and  C_7
REMARK    2  A    between atoms: O_2  and  C_13
REMARK    3  A    between atoms: N_5  and  C_14
REMARK                            x       y       z     vdW  Elec       q    Type
REMARK                         _______ _______ _______ _____ _____    ______ ____
ROOT
ATOM      1  O   UNL     1      -1.611   5.283  24.728  0.00  0.00    -0.375 OA
ATOM      3  O   UNL     1      -4.296   1.856  23.440  0.00  0.00    -0.252 OA
ATOM      4  N   UNL     1      -3.602   3.194  25.195  0.00  0.00    -0.280 N 
ATOM      5  N   UNL     1      -3.520   0.843  25.383  0.00  0.00    -0.268 N 
ATOM      7  C   UNL     1      -1.443   3.507  26.426  0.00  0.00    +0.216 C 
ATOM      8  C   UNL     1      -2.968   3.402  26.505  0.00  0.00    +0.156 C 
ATOM      9  C   UNL     1      -3.885   4.421  24.445  0.00  0.00    +0.137 C 
ATOM     10  C   UNL     1      -0.882   4.134  25.150  0.00  0.00    +0.206 C 
ATOM     11  C   UNL     1      -2.633   4.977  23.779  0.00  0.00    +0.179 C 
ATOM     12  C   UNL     1      -3.848   1.941  24.587  0.00  0.00    +0.307 C 
ATOM     24  H   UNL     1      -3.115   1.006  26.297  0.00  0.00    +0.156 HD
ENDROOT
BRANCH   5  14
ATOM      6  N   UNL     1      -3.350  -2.840  25.707  0.00  0.00    -0.261 NA
ATOM     14  C   UNL     1      -3.651  -0.530  25.061  0.00  0.00    +0.053 A 
ATOM     19  C   UNL     1      -4.183  -0.932  23.841  0.00  0.00    +0.026 A 
ATOM     21  C   UNL     1      -3.252  -1.515  25.951  0.00  0.00    +0.134 A 
ATOM     22  C   UNL     1      -4.299  -2.288  23.554  0.00  0.00    +0.021 A 
ATOM     23  C   UNL     1      -3.872  -3.193  24.511  0.00  0.00    +0.111 A 
ENDBRANCH   5  14
BRANCH   7   2
ATOM      2  O   UNL     1      -0.878   2.206  26.585  0.00  0.00    -0.485 OA
BRANCH   2  13
ATOM     13  C   UNL     1      -0.352   1.625  25.464  0.00  0.00    +0.121 A 
ATOM     15  C   UNL     1       0.513   2.347  24.644  0.00  0.00    +0.045 A 
ATOM     16  C   UNL     1      -0.681   0.308  25.142  0.00  0.00    +0.045 A 
ATOM     17  C   UNL     1       1.050   1.755  23.501  0.00  0.00    +0.004 A 
ATOM     18  C   UNL     1      -0.144  -0.285  23.999  0.00  0.00    +0.004 A 
ATOM     20  C   UNL     1       0.721   0.439  23.178  0.00  0.00    +0.000 A 
ENDBRANCH   2  13
ENDBRANCH   7   2
TORSDOF 3
ENDMDL
