MODEL 1
REMARK VINA RESULT:      -6.4      0.000      0.000
REMARK  Name = 45360831
REMARK  6 active torsions:
REMARK  status: ('A' for Active; 'I' for Inactive)
REMARK    1  A    between atoms: N_4  and  C_16
REMARK    2  A    between atoms: N_7  and  C_19
REMARK    3  A    between atoms: C_11  and  C_15
REMARK    4  A    between atoms: C_15  and  C_17
REMARK    5  A    between atoms: C_17  and  C_18
REMARK    6  A    between atoms: C_19  and  C_20
REMARK                            x       y       z     vdW  Elec       q    Type
REMARK                         _______ _______ _______ _____ _____    ______ ____
ROOT
ATOM      1  O   UNL     1      -4.336  -0.417  24.820  0.00  0.00    -0.274 OA
ATOM      4  N   UNL     1      -2.758   3.137  25.137  0.00  0.00    -0.296 NA
ATOM      5  N   UNL     1      -6.078   1.610  25.096  0.00  0.00    -0.304 NA
ATOM      6  N   UNL     1      -2.876   0.751  23.500  0.00  0.00    -0.312 N 
ATOM      8  C   UNL     1      -4.217   3.157  24.895  0.00  0.00    +0.084 C 
ATOM      9  C   UNL     1      -4.882   1.891  24.289  0.00  0.00    +0.158 C 
ATOM     10  C   UNL     1      -5.057   3.379  26.166  0.00  0.00    +0.036 C 
ATOM     11  C   UNL     1      -1.930   3.005  23.906  0.00  0.00    +0.074 C 
ATOM     12  C   UNL     1      -6.419   2.843  25.788  0.00  0.00    +0.083 C 
ATOM     13  C   UNL     1      -2.455   1.989  22.873  0.00  0.00    +0.123 C 
ATOM     14  C   UNL     1      -4.025   0.633  24.258  0.00  0.00    +0.232 C 
ATOM     16  C   UNL     1      -2.339   4.320  25.908  0.00  0.00    +0.105 C 
ATOM     24  H   UNL     1      -5.849   0.907  25.801  0.00  0.00    +0.123 HD
ATOM     25  H   UNL     1      -2.269  -0.060  23.419  0.00  0.00    +0.149 HD
ENDROOT
BRANCH  11  15
ATOM     15  C   UNL     1      -0.488   2.595  24.271  0.00  0.00    +0.029 C 
BRANCH  15  17
ATOM     17  C   UNL     1      -0.477   1.276  25.022  0.00  0.00    +0.097 C 
BRANCH  17  18
ATOM      2  O   UNL     1      -0.158  -0.995  24.247  0.00  0.00    -0.276 OA
ATOM      7  N   UNL     1       1.251   0.676  23.462  0.00  0.00    -0.308 N 
ATOM     18  C   UNL     1       0.198   0.180  24.218  0.00  0.00    +0.213 C 
ATOM     26  H   UNL     1       1.462   1.669  23.488  0.00  0.00    +0.149 HD
BRANCH   7  19
ATOM     19  C   UNL     1       2.054  -0.171  22.611  0.00  0.00    +0.178 C 
BRANCH  19  20
ATOM      3  O   UNL     1       3.928  -1.349  23.615  0.00  0.00    -0.466 OA
ATOM     20  C   UNL     1       3.492  -0.197  23.041  0.00  0.00    +0.122 A 
ATOM     21  C   UNL     1       4.510   0.726  22.979  0.00  0.00    +0.046 A 
ATOM     22  C   UNL     1       5.644   0.101  23.552  0.00  0.00    +0.041 A 
ATOM     23  C   UNL     1       5.237  -1.159  23.923  0.00  0.00    +0.195 A 
ENDBRANCH  19  20
ENDBRANCH   7  19
ENDBRANCH  17  18
ENDBRANCH  15  17
ENDBRANCH  11  15
TORSDOF 5
ENDMDL
MODEL 2
REMARK VINA RESULT:      -6.0      2.615      6.010
REMARK  Name = 45360831
REMARK  6 active torsions:
REMARK  status: ('A' for Active; 'I' for Inactive)
REMARK    1  A    between atoms: N_4  and  C_16
REMARK    2  A    between atoms: N_7  and  C_19
REMARK    3  A    between atoms: C_11  and  C_15
REMARK    4  A    between atoms: C_15  and  C_17
REMARK    5  A    between atoms: C_17  and  C_18
REMARK    6  A    between atoms: C_19  and  C_20
REMARK                            x       y       z     vdW  Elec       q    Type
REMARK                         _______ _______ _______ _____ _____    ______ ____
ROOT
ATOM      1  O   UNL     1      -1.784  -2.959  24.073  0.00  0.00    -0.274 OA
ATOM      4  N   UNL     1      -2.931   0.759  23.803  0.00  0.00    -0.296 NA
ATOM      5  N   UNL     1       0.182  -1.128  24.127  0.00  0.00    -0.304 NA
ATOM      6  N   UNL     1      -3.261  -1.704  25.289  0.00  0.00    -0.312 N 
ATOM      8  C   UNL     1      -1.517   0.605  24.211  0.00  0.00    +0.084 C 
ATOM      9  C   UNL     1      -1.067  -0.756  24.808  0.00  0.00    +0.158 C 
ATOM     10  C   UNL     1      -0.512   0.795  23.061  0.00  0.00    +0.036 C 
ATOM     11  C   UNL     1      -3.910   0.659  24.921  0.00  0.00    +0.074 C 
ATOM     12  C   UNL     1       0.732   0.093  23.558  0.00  0.00    +0.083 C 
ATOM     13  C   UNL     1      -3.623  -0.460  25.940  0.00  0.00    +0.123 C 
ATOM     14  C   UNL     1      -2.049  -1.911  24.661  0.00  0.00    +0.232 C 
ATOM     16  C   UNL     1      -3.127   2.019  23.066  0.00  0.00    +0.105 C 
ATOM     24  H   UNL     1      -0.033  -1.765  23.357  0.00  0.00    +0.123 HD
ATOM     25  H   UNL     1      -3.955  -2.445  25.249  0.00  0.00    +0.149 HD
ENDROOT
BRANCH  11  15
ATOM     15  C   UNL     1      -5.333   0.432  24.369  0.00  0.00    +0.029 C 
BRANCH  15  17
ATOM     17  C   UNL     1      -6.248   1.580  24.754  0.00  0.00    +0.097 C 
BRANCH  17  18
ATOM      2  O   UNL     1      -5.973   2.450  26.997  0.00  0.00    -0.276 OA
ATOM      7  N   UNL     1      -4.619   3.264  25.295  0.00  0.00    -0.308 N 
ATOM     18  C   UNL     1      -5.621   2.460  25.820  0.00  0.00    +0.213 C 
ATOM     26  H   UNL     1      -4.383   3.192  24.310  0.00  0.00    +0.149 HD
BRANCH   7  19
ATOM     19  C   UNL     1      -3.870   4.192  26.110  0.00  0.00    +0.178 C 
BRANCH  19  20
ATOM      3  O   UNL     1      -1.648   3.207  26.102  0.00  0.00    -0.466 OA
ATOM     20  C   UNL     1      -2.425   4.251  25.709  0.00  0.00    +0.122 A 
ATOM     21  C   UNL     1      -1.680   5.167  25.003  0.00  0.00    +0.046 A 
ATOM     22  C   UNL     1      -0.362   4.653  24.959  0.00  0.00    +0.041 A 
ATOM     23  C   UNL     1      -0.395   3.459  25.641  0.00  0.00    +0.195 A 
ENDBRANCH  19  20
ENDBRANCH   7  19
ENDBRANCH  17  18
ENDBRANCH  15  17
ENDBRANCH  11  15
TORSDOF 5
ENDMDL
MODEL 3
REMARK VINA RESULT:      -5.8      2.161      3.874
REMARK  Name = 45360831
REMARK  6 active torsions:
REMARK  status: ('A' for Active; 'I' for Inactive)
REMARK    1  A    between atoms: N_4  and  C_16
REMARK    2  A    between atoms: N_7  and  C_19
REMARK    3  A    between atoms: C_11  and  C_15
REMARK    4  A    between atoms: C_15  and  C_17
REMARK    5  A    between atoms: C_17  and  C_18
REMARK    6  A    between atoms: C_19  and  C_20
REMARK                            x       y       z     vdW  Elec       q    Type
REMARK                         _______ _______ _______ _____ _____    ______ ____
ROOT
ATOM      1  O   UNL     1      -4.756   0.344  25.503  0.00  0.00    -0.274 OA
ATOM      4  N   UNL     1      -2.446   3.472  25.193  0.00  0.00    -0.296 NA
ATOM      5  N   UNL     1      -6.014   2.686  25.108  0.00  0.00    -0.304 NA
ATOM      6  N   UNL     1      -2.989   0.832  24.134  0.00  0.00    -0.312 N 
ATOM      8  C   UNL     1      -3.844   3.727  24.783  0.00  0.00    +0.084 C 
ATOM      9  C   UNL     1      -4.735   2.512  24.404  0.00  0.00    +0.158 C 
ATOM     10  C   UNL     1      -4.695   4.419  25.864  0.00  0.00    +0.036 C 
ATOM     11  C   UNL     1      -1.590   2.877  24.129  0.00  0.00    +0.074 C 
ATOM     12  C   UNL     1      -6.115   4.094  25.459  0.00  0.00    +0.083 C 
ATOM     13  C   UNL     1      -2.261   1.767  23.298  0.00  0.00    +0.123 C 
ATOM     14  C   UNL     1      -4.182   1.138  24.759  0.00  0.00    +0.232 C 
ATOM     16  C   UNL     1      -1.824   4.698  25.721  0.00  0.00    +0.105 C 
ATOM     24  H   UNL     1      -5.996   2.146  25.975  0.00  0.00    +0.123 HD
ATOM     25  H   UNL     1      -2.575  -0.079  24.309  0.00  0.00    +0.149 HD
ENDROOT
BRANCH  11  15
ATOM     15  C   UNL     1      -0.303   2.287  24.744  0.00  0.00    +0.029 C 
BRANCH  15  17
ATOM     17  C   UNL     1       0.608   1.742  23.659  0.00  0.00    +0.097 C 
BRANCH  17  18
ATOM      2  O   UNL     1       0.953  -0.428  22.641  0.00  0.00    -0.276 OA
ATOM      7  N   UNL     1       0.054  -0.313  24.779  0.00  0.00    -0.308 N 
ATOM     18  C   UNL     1       0.571   0.225  23.608  0.00  0.00    +0.213 C 
ATOM     26  H   UNL     1      -0.221   0.306  25.536  0.00  0.00    +0.149 HD
BRANCH   7  19
ATOM     19  C   UNL     1      -0.085  -1.736  24.977  0.00  0.00    +0.178 C 
BRANCH  19  20
ATOM      3  O   UNL     1      -2.364  -1.786  25.821  0.00  0.00    -0.466 OA
ATOM     20  C   UNL     1      -1.511  -2.185  24.841  0.00  0.00    +0.122 A 
ATOM     21  C   UNL     1      -2.175  -2.943  23.903  0.00  0.00    +0.046 A 
ATOM     22  C   UNL     1      -3.521  -3.014  24.336  0.00  0.00    +0.041 A 
ATOM     23  C   UNL     1      -3.584  -2.294  25.506  0.00  0.00    +0.195 A 
ENDBRANCH  19  20
ENDBRANCH   7  19
ENDBRANCH  17  18
ENDBRANCH  15  17
ENDBRANCH  11  15
TORSDOF 5
ENDMDL
MODEL 4
REMARK VINA RESULT:      -5.4      2.844      3.987
REMARK  Name = 45360831
REMARK  6 active torsions:
REMARK  status: ('A' for Active; 'I' for Inactive)
REMARK    1  A    between atoms: N_4  and  C_16
REMARK    2  A    between atoms: N_7  and  C_19
REMARK    3  A    between atoms: C_11  and  C_15
REMARK    4  A    between atoms: C_15  and  C_17
REMARK    5  A    between atoms: C_17  and  C_18
REMARK    6  A    between atoms: C_19  and  C_20
REMARK                            x       y       z     vdW  Elec       q    Type
REMARK                         _______ _______ _______ _____ _____    ______ ____
ROOT
ATOM      1  O   UNL     1      -3.472   0.405  23.494  0.00  0.00    -0.274 OA
ATOM      4  N   UNL     1      -3.050   3.561  25.747  0.00  0.00    -0.296 NA
ATOM      5  N   UNL     1      -5.752   1.510  24.387  0.00  0.00    -0.304 NA
ATOM      6  N   UNL     1      -2.392   2.398  23.178  0.00  0.00    -0.312 N 
ATOM      8  C   UNL     1      -4.439   3.344  25.287  0.00  0.00    +0.084 C 
ATOM      9  C   UNL     1      -4.672   2.446  24.042  0.00  0.00    +0.158 C 
ATOM     10  C   UNL     1      -5.346   2.675  26.336  0.00  0.00    +0.036 C 
ATOM     11  C   UNL     1      -2.183   4.282  24.774  0.00  0.00    +0.074 C 
ATOM     12  C   UNL     1      -6.471   2.092  25.510  0.00  0.00    +0.083 C 
ATOM     13  C   UNL     1      -2.345   3.841  23.306  0.00  0.00    +0.123 C 
ATOM     14  C   UNL     1      -3.474   1.633  23.568  0.00  0.00    +0.232 C 
ATOM     16  C   UNL     1      -3.031   4.247  27.050  0.00  0.00    +0.105 C 
ATOM     24  H   UNL     1      -5.344   0.627  24.698  0.00  0.00    +0.123 HD
ATOM     25  H   UNL     1      -1.567   1.918  22.830  0.00  0.00    +0.149 HD
ENDROOT
BRANCH  11  15
ATOM     15  C   UNL     1      -0.696   4.111  25.150  0.00  0.00    +0.029 C 
BRANCH  15  17
ATOM     17  C   UNL     1      -0.496   2.865  25.994  0.00  0.00    +0.097 C 
BRANCH  17  18
ATOM      2  O   UNL     1       0.570   1.763  24.120  0.00  0.00    -0.276 OA
ATOM      7  N   UNL     1      -0.601   0.485  25.666  0.00  0.00    -0.308 N 
ATOM     18  C   UNL     1      -0.104   1.671  25.143  0.00  0.00    +0.213 C 
ATOM     26  H   UNL     1      -1.135   0.504  26.530  0.00  0.00    +0.149 HD
BRANCH   7  19
ATOM     19  C   UNL     1      -0.365  -0.793  25.037  0.00  0.00    +0.178 C 
BRANCH  19  20
ATOM      3  O   UNL     1      -2.624  -1.269  25.800  0.00  0.00    -0.466 OA
ATOM     20  C   UNL     1      -1.616  -1.619  24.958  0.00  0.00    +0.122 A 
ATOM     21  C   UNL     1      -1.983  -2.699  24.189  0.00  0.00    +0.046 A 
ATOM     22  C   UNL     1      -3.302  -3.033  24.585  0.00  0.00    +0.041 A 
ATOM     23  C   UNL     1      -3.645  -2.133  25.566  0.00  0.00    +0.195 A 
ENDBRANCH  19  20
ENDBRANCH   7  19
ENDBRANCH  17  18
ENDBRANCH  15  17
ENDBRANCH  11  15
TORSDOF 5
ENDMDL
MODEL 5
REMARK VINA RESULT:      -5.4      2.300      4.518
REMARK  Name = 45360831
REMARK  6 active torsions:
REMARK  status: ('A' for Active; 'I' for Inactive)
REMARK    1  A    between atoms: N_4  and  C_16
REMARK    2  A    between atoms: N_7  and  C_19
REMARK    3  A    between atoms: C_11  and  C_15
REMARK    4  A    between atoms: C_15  and  C_17
REMARK    5  A    between atoms: C_17  and  C_18
REMARK    6  A    between atoms: C_19  and  C_20
REMARK                            x       y       z     vdW  Elec       q    Type
REMARK                         _______ _______ _______ _____ _____    ______ ____
ROOT
ATOM      1  O   UNL     1      -3.726   5.360  26.004  0.00  0.00    -0.274 OA
ATOM      4  N   UNL     1      -2.749   2.108  24.084  0.00  0.00    -0.296 NA
ATOM      5  N   UNL     1      -5.503   3.348  26.141  0.00  0.00    -0.304 NA
ATOM      6  N   UNL     1      -1.883   4.006  26.093  0.00  0.00    -0.312 N 
ATOM      8  C   UNL     1      -3.893   1.930  25.005  0.00  0.00    +0.084 C 
ATOM      9  C   UNL     1      -4.085   2.960  26.151  0.00  0.00    +0.158 C 
ATOM     10  C   UNL     1      -5.265   1.969  24.309  0.00  0.00    +0.036 C 
ATOM     11  C   UNL     1      -1.412   1.991  24.731  0.00  0.00    +0.074 C 
ATOM     12  C   UNL     1      -6.222   2.302  25.432  0.00  0.00    +0.083 C 
ATOM     13  C   UNL     1      -1.288   2.685  26.101  0.00  0.00    +0.123 C 
ATOM     14  C   UNL     1      -3.246   4.228  26.060  0.00  0.00    +0.232 C 
ATOM     16  C   UNL     1      -2.846   1.181  22.944  0.00  0.00    +0.105 C 
ATOM     24  H   UNL     1      -5.609   4.216  25.614  0.00  0.00    +0.123 HD
ATOM     25  H   UNL     1      -1.265   4.812  26.058  0.00  0.00    +0.149 HD
ENDROOT
BRANCH  11  15
ATOM     15  C   UNL     1      -0.318   2.574  23.813  0.00  0.00    +0.029 C 
BRANCH  15  17
ATOM     17  C   UNL     1       0.923   1.700  23.834  0.00  0.00    +0.097 C 
BRANCH  17  18
ATOM      2  O   UNL     1       0.665  -0.335  22.548  0.00  0.00    -0.276 OA
ATOM      7  N   UNL     1       0.161  -0.359  24.815  0.00  0.00    -0.308 N 
ATOM     18  C   UNL     1       0.580   0.236  23.632  0.00  0.00    +0.213 C 
ATOM     26  H   UNL     1       0.139   0.189  25.670  0.00  0.00    +0.149 HD
BRANCH   7  19
ATOM     19  C   UNL     1      -0.223  -1.749  24.884  0.00  0.00    +0.178 C 
BRANCH  19  20
ATOM      3  O   UNL     1      -2.446  -1.166  25.678  0.00  0.00    -0.466 OA
ATOM     20  C   UNL     1      -1.713  -1.923  24.819  0.00  0.00    +0.122 A 
ATOM     21  C   UNL     1      -2.536  -2.714  24.051  0.00  0.00    +0.046 A 
ATOM     22  C   UNL     1      -3.859  -2.423  24.464  0.00  0.00    +0.041 A 
ATOM     23  C   UNL     1      -3.749  -1.476  25.454  0.00  0.00    +0.195 A 
ENDBRANCH  19  20
ENDBRANCH   7  19
ENDBRANCH  17  18
ENDBRANCH  15  17
ENDBRANCH  11  15
TORSDOF 5
ENDMDL
MODEL 6
REMARK VINA RESULT:      -5.4      2.581      5.686
REMARK  Name = 45360831
REMARK  6 active torsions:
REMARK  status: ('A' for Active; 'I' for Inactive)
REMARK    1  A    between atoms: N_4  and  C_16
REMARK    2  A    between atoms: N_7  and  C_19
REMARK    3  A    between atoms: C_11  and  C_15
REMARK    4  A    between atoms: C_15  and  C_17
REMARK    5  A    between atoms: C_17  and  C_18
REMARK    6  A    between atoms: C_19  and  C_20
REMARK                            x       y       z     vdW  Elec       q    Type
REMARK                         _______ _______ _______ _____ _____    ______ ____
ROOT
ATOM      1  O   UNL     1      -0.587   2.033  27.027  0.00  0.00    -0.274 OA
ATOM      4  N   UNL     1      -2.439   2.681  23.656  0.00  0.00    -0.296 NA
ATOM      5  N   UNL     1       0.793   1.419  24.804  0.00  0.00    -0.304 NA
ATOM      6  N   UNL     1      -1.579   3.896  26.140  0.00  0.00    -0.312 N 
ATOM      8  C   UNL     1      -0.993   2.415  23.494  0.00  0.00    +0.084 C 
ATOM      9  C   UNL     1      -0.066   2.610  24.724  0.00  0.00    +0.158 C 
ATOM     10  C   UNL     1      -0.668   0.970  23.077  0.00  0.00    +0.036 C 
ATOM     11  C   UNL     1      -2.774   4.096  23.979  0.00  0.00    +0.074 C 
ATOM     12  C   UNL     1       0.777   0.799  23.488  0.00  0.00    +0.083 C 
ATOM     13  C   UNL     1      -1.847   4.765  25.012  0.00  0.00    +0.123 C 
ATOM     14  C   UNL     1      -0.761   2.785  26.068  0.00  0.00    +0.232 C 
ATOM     16  C   UNL     1      -3.188   2.240  22.467  0.00  0.00    +0.105 C 
ATOM     24  H   UNL     1       0.386   0.757  25.468  0.00  0.00    +0.123 HD
ATOM     25  H   UNL     1      -2.056   4.083  27.017  0.00  0.00    +0.149 HD
ENDROOT
BRANCH  11  15
ATOM     15  C   UNL     1      -4.218   4.198  24.514  0.00  0.00    +0.029 C 
BRANCH  15  17
ATOM     17  C   UNL     1      -4.401   3.315  25.735  0.00  0.00    +0.097 C 
BRANCH  17  18
ATOM      2  O   UNL     1      -6.255   1.879  25.133  0.00  0.00    -0.276 OA
ATOM      7  N   UNL     1      -4.138   0.954  25.366  0.00  0.00    -0.308 N 
ATOM     18  C   UNL     1      -5.057   1.994  25.377  0.00  0.00    +0.213 C 
ATOM     26  H   UNL     1      -3.161   1.146  25.565  0.00  0.00    +0.149 HD
BRANCH   7  19
ATOM     19  C   UNL     1      -4.516  -0.405  25.055  0.00  0.00    +0.178 C 
BRANCH  19  20
ATOM      3  O   UNL     1      -2.158  -0.851  25.443  0.00  0.00    -0.466 OA
ATOM     20  C   UNL     1      -3.321  -1.299  24.899  0.00  0.00    +0.122 A 
ATOM     21  C   UNL     1      -3.133  -2.524  24.301  0.00  0.00    +0.046 A 
ATOM     22  C   UNL     1      -1.768  -2.849  24.491  0.00  0.00    +0.041 A 
ATOM     23  C   UNL     1      -1.220  -1.799  25.190  0.00  0.00    +0.195 A 
ENDBRANCH  19  20
ENDBRANCH   7  19
ENDBRANCH  17  18
ENDBRANCH  15  17
ENDBRANCH  11  15
TORSDOF 5
ENDMDL
MODEL 7
REMARK VINA RESULT:      -5.1      1.532      2.300
REMARK  Name = 45360831
REMARK  6 active torsions:
REMARK  status: ('A' for Active; 'I' for Inactive)
REMARK    1  A    between atoms: N_4  and  C_16
REMARK    2  A    between atoms: N_7  and  C_19
REMARK    3  A    between atoms: C_11  and  C_15
REMARK    4  A    between atoms: C_15  and  C_17
REMARK    5  A    between atoms: C_17  and  C_18
REMARK    6  A    between atoms: C_19  and  C_20
REMARK                            x       y       z     vdW  Elec       q    Type
REMARK                         _______ _______ _______ _____ _____    ______ ____
ROOT
ATOM      1  O   UNL     1      -5.876   2.394  25.836  0.00  0.00    -0.274 OA
ATOM      4  N   UNL     1      -2.065   1.652  25.459  0.00  0.00    -0.296 NA
ATOM      5  N   UNL     1      -4.407   4.367  24.753  0.00  0.00    -0.304 NA
ATOM      6  N   UNL     1      -4.723   0.701  24.814  0.00  0.00    -0.312 N 
ATOM      8  C   UNL     1      -2.510   2.852  24.718  0.00  0.00    +0.084 C 
ATOM      9  C   UNL     1      -4.020   2.997  24.387  0.00  0.00    +0.158 C 
ATOM     10  C   UNL     1      -2.215   4.178  25.442  0.00  0.00    +0.036 C 
ATOM     11  C   UNL     1      -2.269   0.368  24.734  0.00  0.00    +0.074 C 
ATOM     12  C   UNL     1      -3.183   5.151  24.808  0.00  0.00    +0.083 C 
ATOM     13  C   UNL     1      -3.616   0.242  23.997  0.00  0.00    +0.123 C 
ATOM     14  C   UNL     1      -4.958   2.032  25.100  0.00  0.00    +0.232 C 
ATOM     16  C   UNL     1      -0.657   1.785  25.873  0.00  0.00    +0.105 C 
ATOM     24  H   UNL     1      -4.818   4.360  25.688  0.00  0.00    +0.123 HD
ATOM     25  H   UNL     1      -5.327   0.005  25.240  0.00  0.00    +0.149 HD
ENDROOT
BRANCH  11  15
ATOM     15  C   UNL     1      -2.158  -0.823  25.709  0.00  0.00    +0.029 C 
BRANCH  15  17
ATOM     17  C   UNL     1      -0.825  -1.530  25.544  0.00  0.00    +0.097 C 
BRANCH  17  18
ATOM      2  O   UNL     1      -0.807  -2.003  23.170  0.00  0.00    -0.276 OA
ATOM      7  N   UNL     1       0.799  -0.576  24.050  0.00  0.00    -0.308 N 
ATOM     18  C   UNL     1      -0.303  -1.415  24.124  0.00  0.00    +0.213 C 
ATOM     26  H   UNL     1       1.137  -0.118  24.891  0.00  0.00    +0.149 HD
BRANCH   7  19
ATOM     19  C   UNL     1       1.479  -0.304  22.806  0.00  0.00    +0.178 C 
BRANCH  19  20
ATOM      3  O   UNL     1       3.629  -1.148  23.564  0.00  0.00    -0.466 OA
ATOM     20  C   UNL     1       2.954  -0.110  23.002  0.00  0.00    +0.122 A 
ATOM     21  C   UNL     1       3.813   0.930  22.728  0.00  0.00    +0.046 A 
ATOM     22  C   UNL     1       5.096   0.503  23.148  0.00  0.00    +0.041 A 
ATOM     23  C   UNL     1       4.930  -0.767  23.649  0.00  0.00    +0.195 A 
ENDBRANCH  19  20
ENDBRANCH   7  19
ENDBRANCH  17  18
ENDBRANCH  15  17
ENDBRANCH  11  15
TORSDOF 5
ENDMDL
MODEL 8
REMARK VINA RESULT:      -5.0      1.685      2.468
REMARK  Name = 45360831
REMARK  6 active torsions:
REMARK  status: ('A' for Active; 'I' for Inactive)
REMARK    1  A    between atoms: N_4  and  C_16
REMARK    2  A    between atoms: N_7  and  C_19
REMARK    3  A    between atoms: C_11  and  C_15
REMARK    4  A    between atoms: C_15  and  C_17
REMARK    5  A    between atoms: C_17  and  C_18
REMARK    6  A    between atoms: C_19  and  C_20
REMARK                            x       y       z     vdW  Elec       q    Type
REMARK                         _______ _______ _______ _____ _____    ______ ____
ROOT
ATOM      1  O   UNL     1      -4.019   4.813  24.103  0.00  0.00    -0.274 OA
ATOM      4  N   UNL     1      -3.486   0.953  24.298  0.00  0.00    -0.296 NA
ATOM      5  N   UNL     1      -5.689   3.488  25.739  0.00  0.00    -0.304 NA
ATOM      6  N   UNL     1      -2.191   3.527  24.597  0.00  0.00    -0.312 N 
ATOM      8  C   UNL     1      -4.377   1.481  25.354  0.00  0.00    +0.084 C 
ATOM      9  C   UNL     1      -4.304   2.995  25.691  0.00  0.00    +0.158 C 
ATOM     10  C   UNL     1      -5.876   1.294  25.056  0.00  0.00    +0.036 C 
ATOM     11  C   UNL     1      -2.033   1.054  24.610  0.00  0.00    +0.074 C 
ATOM     12  C   UNL     1      -6.543   2.328  25.935  0.00  0.00    +0.083 C 
ATOM     13  C   UNL     1      -1.596   2.382  25.257  0.00  0.00    +0.123 C 
ATOM     14  C   UNL     1      -3.526   3.864  24.712  0.00  0.00    +0.232 C 
ATOM     16  C   UNL     1      -3.839  -0.436  23.961  0.00  0.00    +0.105 C 
ATOM     24  H   UNL     1      -5.927   3.906  24.838  0.00  0.00    +0.123 HD
ATOM     25  H   UNL     1      -1.609   4.081  23.976  0.00  0.00    +0.149 HD
ENDROOT
BRANCH  11  15
ATOM     15  C   UNL     1      -1.195   0.862  23.329  0.00  0.00    +0.029 C 
BRANCH  15  17
ATOM     17  C   UNL     1      -0.216  -0.286  23.495  0.00  0.00    +0.097 C 
BRANCH  17  18
ATOM      2  O   UNL     1       1.244  -0.614  21.591  0.00  0.00    -0.276 OA
ATOM      7  N   UNL     1       1.919   0.804  23.302  0.00  0.00    -0.308 N 
ATOM     18  C   UNL     1       1.043  -0.071  22.674  0.00  0.00    +0.213 C 
ATOM     26  H   UNL     1       1.660   1.220  24.191  0.00  0.00    +0.149 HD
BRANCH   7  19
ATOM     19  C   UNL     1       3.190   1.170  22.722  0.00  0.00    +0.178 C 
BRANCH  19  20
ATOM      3  O   UNL     1       4.032  -0.973  23.502  0.00  0.00    -0.466 OA
ATOM     20  C   UNL     1       4.314   0.335  23.260  0.00  0.00    +0.122 A 
ATOM     21  C   UNL     1       5.625   0.611  23.577  0.00  0.00    +0.046 A 
ATOM     22  C   UNL     1       6.182  -0.604  24.042  0.00  0.00    +0.041 A 
ATOM     23  C   UNL     1       5.172  -1.536  23.977  0.00  0.00    +0.195 A 
ENDBRANCH  19  20
ENDBRANCH   7  19
ENDBRANCH  17  18
ENDBRANCH  15  17
ENDBRANCH  11  15
TORSDOF 5
ENDMDL
MODEL 9
REMARK VINA RESULT:      -4.7     15.299     16.723
REMARK  Name = 45360831
REMARK  6 active torsions:
REMARK  status: ('A' for Active; 'I' for Inactive)
REMARK    1  A    between atoms: N_4  and  C_16
REMARK    2  A    between atoms: N_7  and  C_19
REMARK    3  A    between atoms: C_11  and  C_15
REMARK    4  A    between atoms: C_15  and  C_17
REMARK    5  A    between atoms: C_17  and  C_18
REMARK    6  A    between atoms: C_19  and  C_20
REMARK                            x       y       z     vdW  Elec       q    Type
REMARK                         _______ _______ _______ _____ _____    ______ ____
ROOT
ATOM      1  O   UNL     1      -5.398  -9.111  16.667  0.00  0.00    -0.274 OA
ATOM      4  N   UNL     1      -8.749  -9.545  14.718  0.00  0.00    -0.296 NA
ATOM      5  N   UNL     1      -7.329 -10.461  17.959  0.00  0.00    -0.304 NA
ATOM      6  N   UNL     1      -5.888  -9.980  14.608  0.00  0.00    -0.312 N 
ATOM      8  C   UNL     1      -8.650 -10.399  15.922  0.00  0.00    +0.084 C 
ATOM      9  C   UNL     1      -7.242 -10.687  16.509  0.00  0.00    +0.158 C 
ATOM     10  C   UNL     1      -9.396  -9.839  17.147  0.00  0.00    +0.036 C 
ATOM     11  C   UNL     1      -8.102 -10.115  13.504  0.00  0.00    +0.074 C 
ATOM     12  C   UNL     1      -8.738 -10.540  18.314  0.00  0.00    +0.083 C 
ATOM     13  C   UNL     1      -6.734 -10.781  13.746  0.00  0.00    +0.123 C 
ATOM     14  C   UNL     1      -6.102  -9.836  15.965  0.00  0.00    +0.232 C 
ATOM     16  C   UNL     1     -10.153  -9.202  14.434  0.00  0.00    +0.105 C 
ATOM     24  H   UNL     1      -7.004  -9.516  18.171  0.00  0.00    +0.123 HD
ATOM     25  H   UNL     1      -5.128  -9.456  14.184  0.00  0.00    +0.149 HD
ENDROOT
BRANCH  11  15
ATOM     15  C   UNL     1      -7.903  -9.018  12.437  0.00  0.00    +0.029 C 
BRANCH  15  17
ATOM     17  C   UNL     1      -8.251  -9.542  11.056  0.00  0.00    +0.097 C 
BRANCH  17  18
ATOM      2  O   UNL     1      -7.065  -9.980   8.991  0.00  0.00    -0.276 OA
ATOM      7  N   UNL     1      -5.941  -8.953  10.744  0.00  0.00    -0.308 N 
ATOM     18  C   UNL     1      -7.046  -9.529  10.133  0.00  0.00    +0.213 C 
ATOM     26  H   UNL     1      -6.024  -8.590  11.688  0.00  0.00    +0.149 HD
BRANCH   7  19
ATOM     19  C   UNL     1      -4.670  -8.823  10.071  0.00  0.00    +0.178 C 
BRANCH  19  20
ATOM      3  O   UNL     1      -3.896 -10.060  12.016  0.00  0.00    -0.466 OA
ATOM     20  C   UNL     1      -3.545  -9.396  10.883  0.00  0.00    +0.122 A 
ATOM     21  C   UNL     1      -2.178  -9.398  10.728  0.00  0.00    +0.046 A 
ATOM     22  C   UNL     1      -1.657 -10.109  11.836  0.00  0.00    +0.041 A 
ATOM     23  C   UNL     1      -2.742 -10.490  12.589  0.00  0.00    +0.195 A 
ENDBRANCH  19  20
ENDBRANCH   7  19
ENDBRANCH  17  18
ENDBRANCH  15  17
ENDBRANCH  11  15
TORSDOF 5
ENDMDL
MODEL 10
REMARK VINA RESULT:      -4.7      2.831      6.085
REMARK  Name = 45360831
REMARK  6 active torsions:
REMARK  status: ('A' for Active; 'I' for Inactive)
REMARK    1  A    between atoms: N_4  and  C_16
REMARK    2  A    between atoms: N_7  and  C_19
REMARK    3  A    between atoms: C_11  and  C_15
REMARK    4  A    between atoms: C_15  and  C_17
REMARK    5  A    between atoms: C_17  and  C_18
REMARK    6  A    between atoms: C_19  and  C_20
REMARK                            x       y       z     vdW  Elec       q    Type
REMARK                         _______ _______ _______ _____ _____    ______ ____
ROOT
ATOM      1  O   UNL     1      -1.480  -1.083  26.783  0.00  0.00    -0.274 OA
ATOM      4  N   UNL     1      -2.121   0.889  23.479  0.00  0.00    -0.296 NA
ATOM      5  N   UNL     1      -3.181  -2.235  25.051  0.00  0.00    -0.304 NA
ATOM      6  N   UNL     1      -0.075  -0.265  25.172  0.00  0.00    -0.312 N 
ATOM      8  C   UNL     1      -2.623  -0.502  23.444  0.00  0.00    +0.084 C 
ATOM      9  C   UNL     1      -2.039  -1.522  24.459  0.00  0.00    +0.158 C 
ATOM     10  C   UNL     1      -4.136  -0.625  23.704  0.00  0.00    +0.036 C 
ATOM     11  C   UNL     1      -0.676   1.032  23.148  0.00  0.00    +0.074 C 
ATOM     12  C   UNL     1      -4.303  -2.063  24.142  0.00  0.00    +0.083 C 
ATOM     13  C   UNL     1       0.245  -0.032  23.777  0.00  0.00    +0.123 C 
ATOM     14  C   UNL     1      -1.205  -0.939  25.592  0.00  0.00    +0.232 C 
ATOM     16  C   UNL     1      -2.931   1.760  22.609  0.00  0.00    +0.105 C 
ATOM     24  H   UNL     1      -3.426  -1.796  25.940  0.00  0.00    +0.123 HD
ATOM     25  H   UNL     1       0.538   0.130  25.879  0.00  0.00    +0.149 HD
ENDROOT
BRANCH  11  15
ATOM     15  C   UNL     1      -0.158   2.417  23.590  0.00  0.00    +0.029 C 
BRANCH  15  17
ATOM     17  C   UNL     1       0.342   2.370  25.023  0.00  0.00    +0.097 C 
BRANCH  17  18
ATOM      2  O   UNL     1      -0.655   2.691  27.207  0.00  0.00    -0.276 OA
ATOM      7  N   UNL     1      -1.694   3.610  25.344  0.00  0.00    -0.308 N 
ATOM     18  C   UNL     1      -0.700   2.892  25.996  0.00  0.00    +0.213 C 
ATOM     26  H   UNL     1      -1.640   3.740  24.338  0.00  0.00    +0.149 HD
BRANCH   7  19
ATOM     19  C   UNL     1      -2.801   4.209  26.051  0.00  0.00    +0.178 C 
BRANCH  19  20
ATOM      3  O   UNL     1      -4.026   2.133  25.734  0.00  0.00    -0.466 OA
ATOM     20  C   UNL     1      -4.092   3.490  25.785  0.00  0.00    +0.122 A 
ATOM     21  C   UNL     1      -5.382   3.918  25.573  0.00  0.00    +0.046 A 
ATOM     22  C   UNL     1      -6.158   2.750  25.379  0.00  0.00    +0.041 A 
ATOM     23  C   UNL     1      -5.286   1.691  25.487  0.00  0.00    +0.195 A 
ENDBRANCH  19  20
ENDBRANCH   7  19
ENDBRANCH  17  18
ENDBRANCH  15  17
ENDBRANCH  11  15
TORSDOF 5
ENDMDL
