MODEL 1
REMARK VINA RESULT:       3.7      0.000      0.000
REMARK  Name = 26744361
REMARK  8 active torsions:
REMARK  status: ('A' for Active; 'I' for Inactive)
REMARK    1  A    between atoms: S_1  and  C_24
REMARK    2  A    between atoms: S_1  and  C_28
REMARK    3  A    between atoms: O_2  and  C_14
REMARK    4  A    between atoms: N_8  and  C_16
REMARK    5  A    between atoms: N_11  and  C_29
REMARK    6  A    between atoms: C_12  and  C_17
REMARK    7  A    between atoms: C_16  and  C_18
REMARK    8  A    between atoms: C_21  and  C_25
REMARK                            x       y       z     vdW  Elec       q    Type
REMARK                         _______ _______ _______ _____ _____    ______ ____
ROOT
ATOM      8  N   UNL     1      -5.092   2.381  25.427  0.00  0.00    -0.285 NA
ATOM     12  C   UNL     1      -4.348   3.016  24.320  0.00  0.00    +0.149 C 
ATOM     13  C   UNL     1      -4.536   4.529  24.536  0.00  0.00    +0.061 C 
ATOM     14  C   UNL     1      -5.436   4.644  25.760  0.00  0.00    +0.130 C 
ATOM     15  C   UNL     1      -6.158   3.311  25.796  0.00  0.00    +0.116 C 
ENDROOT
BRANCH  12  17
ATOM      3  O   UNL     1      -2.092   3.130  25.252  0.00  0.00    -0.336 OA
ATOM      9  N   UNL     1      -2.272   1.809  23.452  0.00  0.00    -0.190 NA
ATOM     10  N   UNL     1      -0.811   2.614  25.017  0.00  0.00    -0.056 NA
ATOM     17  C   UNL     1      -2.891   2.606  24.287  0.00  0.00    +0.245 A 
ATOM     21  C   UNL     1      -0.999   1.845  23.941  0.00  0.00    +0.202 A 
BRANCH  21  25
ATOM     25  C   UNL     1       0.064   1.099  23.331  0.00  0.00    +0.025 A 
ATOM     26  C   UNL     1       1.392   1.450  23.576  0.00  0.00    +0.044 A 
ATOM     27  C   UNL     1      -0.231   0.023  22.494  0.00  0.00    +0.012 A 
ATOM     29  C   UNL     1       2.425   0.723  22.984  0.00  0.00    +0.127 A 
ATOM     30  C   UNL     1       0.803  -0.703  21.901  0.00  0.00    +0.003 A 
ATOM     31  C   UNL     1       2.131  -0.353  22.146  0.00  0.00    +0.033 A 
BRANCH  29  11
ATOM      6  O   UNL     1       4.468   0.353  23.988  0.00  0.00    -0.126 OA
ATOM      7  O   UNL     1       4.245   2.109  22.689  0.00  0.00    -0.126 OA
ATOM     11  N   UNL     1       3.777   1.079  23.232  0.00  0.00    +0.056 N 
ENDBRANCH  29  11
ENDBRANCH  21  25
ENDBRANCH  12  17
BRANCH  14   2
ATOM      2  O   UNL     1      -6.337   5.725  25.620  0.00  0.00    -0.390 OA
ATOM     32  H   UNL     1      -7.094   5.408  25.098  0.00  0.00    +0.210 HD
ENDBRANCH  14   2
BRANCH   8  16
ATOM     16  C   UNL     1      -5.608   1.061  25.090  0.00  0.00    +0.120 C 
BRANCH  16  18
ATOM     18  C   UNL     1      -4.507   0.038  24.988  0.00  0.00    -0.033 A 
ATOM     19  C   UNL     1      -4.463  -0.831  23.898  0.00  0.00    +0.007 A 
ATOM     20  C   UNL     1      -3.533  -0.040  25.983  0.00  0.00    +0.007 A 
ATOM     22  C   UNL     1      -3.444  -1.778  23.803  0.00  0.00    +0.027 A 
ATOM     23  C   UNL     1      -2.513  -0.986  25.887  0.00  0.00    +0.027 A 
ATOM     24  C   UNL     1      -2.469  -1.856  24.797  0.00  0.00    +0.088 A 
BRANCH  24   1
ATOM      1  S   UNL     1      -1.193  -3.043  24.679  0.00  0.00    -0.006 S 
ATOM      4  O   UNL     1      -1.420  -4.081  25.676  0.00  0.00    -0.170 OA
ATOM      5  O   UNL     1      -1.048  -3.407  23.276  0.00  0.00    -0.170 OA
ATOM     28  C   UNL     1       0.274  -2.166  25.171  0.00  0.00    +0.200 C 
ENDBRANCH  24   1
ENDBRANCH  16  18
ENDBRANCH   8  16
TORSDOF 7
ENDMDL
MODEL 2
REMARK VINA RESULT:       4.6      1.613      1.817
REMARK  Name = 26744361
REMARK  8 active torsions:
REMARK  status: ('A' for Active; 'I' for Inactive)
REMARK    1  A    between atoms: S_1  and  C_24
REMARK    2  A    between atoms: S_1  and  C_28
REMARK    3  A    between atoms: O_2  and  C_14
REMARK    4  A    between atoms: N_8  and  C_16
REMARK    5  A    between atoms: N_11  and  C_29
REMARK    6  A    between atoms: C_12  and  C_17
REMARK    7  A    between atoms: C_16  and  C_18
REMARK    8  A    between atoms: C_21  and  C_25
REMARK                            x       y       z     vdW  Elec       q    Type
REMARK                         _______ _______ _______ _____ _____    ______ ____
ROOT
ATOM      8  N   UNL     1      -3.703   3.481  25.387  0.00  0.00    -0.285 NA
ATOM     12  C   UNL     1      -2.515   4.172  24.844  0.00  0.00    +0.149 C 
ATOM     13  C   UNL     1      -2.299   5.377  25.780  0.00  0.00    +0.061 C 
ATOM     14  C   UNL     1      -3.440   5.303  26.788  0.00  0.00    +0.130 C 
ATOM     15  C   UNL     1      -4.503   4.500  26.061  0.00  0.00    +0.116 C 
ENDROOT
BRANCH  12  17
ATOM      3  O   UNL     1      -0.586   3.114  25.905  0.00  0.00    -0.336 OA
ATOM      9  N   UNL     1      -0.829   2.608  23.737  0.00  0.00    -0.190 NA
ATOM     10  N   UNL     1       0.471   2.251  25.585  0.00  0.00    -0.056 NA
ATOM     17  C   UNL     1      -1.302   3.270  24.762  0.00  0.00    +0.245 A 
ATOM     21  C   UNL     1       0.258   1.997  24.290  0.00  0.00    +0.202 A 
BRANCH  21  25
ATOM     25  C   UNL     1       1.112   1.137  23.523  0.00  0.00    +0.025 A 
ATOM     26  C   UNL     1       2.494   1.178  23.711  0.00  0.00    +0.044 A 
ATOM     27  C   UNL     1       0.561   0.260  22.589  0.00  0.00    +0.012 A 
ATOM     29  C   UNL     1       3.324   0.340  22.965  0.00  0.00    +0.127 A 
ATOM     30  C   UNL     1       1.391  -0.577  21.843  0.00  0.00    +0.003 A 
ATOM     31  C   UNL     1       2.772  -0.536  22.031  0.00  0.00    +0.033 A 
BRANCH  29  11
ATOM      6  O   UNL     1       5.183   0.737  24.271  0.00  0.00    -0.126 OA
ATOM      7  O   UNL     1       5.483   0.060  22.204  0.00  0.00    -0.126 OA
ATOM     11  N   UNL     1       4.730   0.381  23.156  0.00  0.00    +0.056 N 
ENDBRANCH  29  11
ENDBRANCH  21  25
ENDBRANCH  12  17
BRANCH  14   2
ATOM      2  O   UNL     1      -3.898   6.598  27.123  0.00  0.00    -0.390 OA
ATOM     32  H   UNL     1      -4.228   7.011  26.307  0.00  0.00    +0.210 HD
ENDBRANCH  14   2
BRANCH   8  16
ATOM     16  C   UNL     1      -4.466   2.768  24.371  0.00  0.00    +0.120 C 
BRANCH  16  18
ATOM     18  C   UNL     1      -4.174   1.291  24.383  0.00  0.00    -0.033 A 
ATOM     19  C   UNL     1      -3.610   0.682  23.262  0.00  0.00    +0.007 A 
ATOM     20  C   UNL     1      -4.465   0.531  25.516  0.00  0.00    +0.007 A 
ATOM     22  C   UNL     1      -3.339  -0.686  23.273  0.00  0.00    +0.027 A 
ATOM     23  C   UNL     1      -4.193  -0.836  25.528  0.00  0.00    +0.027 A 
ATOM     24  C   UNL     1      -3.630  -1.445  24.406  0.00  0.00    +0.088 A 
BRANCH  24   1
ATOM      1  S   UNL     1      -3.291  -3.158  24.421  0.00  0.00    -0.006 S 
ATOM      4  O   UNL     1      -3.246  -3.618  25.803  0.00  0.00    -0.170 OA
ATOM      5  O   UNL     1      -4.192  -3.801  23.474  0.00  0.00    -0.170 OA
ATOM     28  C   UNL     1      -1.638  -3.288  23.779  0.00  0.00    +0.200 C 
ENDBRANCH  24   1
ENDBRANCH  16  18
ENDBRANCH   8  16
TORSDOF 7
ENDMDL
MODEL 3
REMARK VINA RESULT:       4.8      2.674      4.983
REMARK  Name = 26744361
REMARK  8 active torsions:
REMARK  status: ('A' for Active; 'I' for Inactive)
REMARK    1  A    between atoms: S_1  and  C_24
REMARK    2  A    between atoms: S_1  and  C_28
REMARK    3  A    between atoms: O_2  and  C_14
REMARK    4  A    between atoms: N_8  and  C_16
REMARK    5  A    between atoms: N_11  and  C_29
REMARK    6  A    between atoms: C_12  and  C_17
REMARK    7  A    between atoms: C_16  and  C_18
REMARK    8  A    between atoms: C_21  and  C_25
REMARK                            x       y       z     vdW  Elec       q    Type
REMARK                         _______ _______ _______ _____ _____    ______ ____
ROOT
ATOM      8  N   UNL     1      -3.923  -1.090  23.878  0.00  0.00    -0.285 NA
ATOM     12  C   UNL     1      -2.923  -1.485  24.890  0.00  0.00    +0.149 C 
ATOM     13  C   UNL     1      -2.872  -3.023  24.814  0.00  0.00    +0.061 C 
ATOM     14  C   UNL     1      -3.911  -3.400  23.765  0.00  0.00    +0.130 C 
ATOM     15  C   UNL     1      -4.852  -2.211  23.754  0.00  0.00    +0.116 C 
ENDROOT
BRANCH  12  17
ATOM      3  O   UNL     1      -1.176   0.083  25.565  0.00  0.00    -0.336 OA
ATOM      9  N   UNL     1      -0.712  -1.048  23.689  0.00  0.00    -0.190 NA
ATOM     10  N   UNL     1       0.084   0.529  25.143  0.00  0.00    -0.056 NA
ATOM     17  C   UNL     1      -1.572  -0.843  24.655  0.00  0.00    +0.245 A 
ATOM     21  C   UNL     1       0.287  -0.184  24.031  0.00  0.00    +0.202 A 
BRANCH  21  25
ATOM     25  C   UNL     1       1.478  -0.058  23.242  0.00  0.00    +0.025 A 
ATOM     26  C   UNL     1       2.723   0.031  23.866  0.00  0.00    +0.044 A 
ATOM     27  C   UNL     1       1.391  -0.026  21.850  0.00  0.00    +0.012 A 
ATOM     29  C   UNL     1       3.881   0.151  23.097  0.00  0.00    +0.127 A 
ATOM     30  C   UNL     1       2.549   0.095  21.082  0.00  0.00    +0.003 A 
ATOM     31  C   UNL     1       3.794   0.184  21.705  0.00  0.00    +0.033 A 
BRANCH  29  11
ATOM      6  O   UNL     1       5.217   0.735  24.883  0.00  0.00    -0.126 OA
ATOM      7  O   UNL     1       6.164  -0.170  23.121  0.00  0.00    -0.126 OA
ATOM     11  N   UNL     1       5.148   0.243  23.731  0.00  0.00    +0.056 N 
ENDBRANCH  29  11
ENDBRANCH  21  25
ENDBRANCH  12  17
BRANCH  14   2
ATOM      2  O   UNL     1      -4.577  -4.594  24.125  0.00  0.00    -0.390 OA
ATOM     32  H   UNL     1      -5.168  -4.385  24.869  0.00  0.00    +0.210 HD
ENDBRANCH  14   2
BRANCH   8  16
ATOM     16  C   UNL     1      -4.607   0.156  24.202  0.00  0.00    +0.120 C 
BRANCH  16  18
ATOM     18  C   UNL     1      -3.644   1.306  24.334  0.00  0.00    -0.033 A 
ATOM     19  C   UNL     1      -2.830   1.660  23.258  0.00  0.00    +0.007 A 
ATOM     20  C   UNL     1      -3.567   2.018  25.531  0.00  0.00    +0.007 A 
ATOM     22  C   UNL     1      -1.938   2.726  23.380  0.00  0.00    +0.027 A 
ATOM     23  C   UNL     1      -2.676   3.084  25.652  0.00  0.00    +0.027 A 
ATOM     24  C   UNL     1      -1.861   3.438  24.576  0.00  0.00    +0.088 A 
BRANCH  24   1
ATOM      1  S   UNL     1      -0.744   4.772  24.729  0.00  0.00    -0.006 S 
ATOM      4  O   UNL     1      -1.495   5.982  25.035  0.00  0.00    -0.170 OA
ATOM      5  O   UNL     1       0.338   4.352  25.608  0.00  0.00    -0.170 OA
ATOM     28  C   UNL     1      -0.074   4.977  23.095  0.00  0.00    +0.200 C 
ENDBRANCH  24   1
ENDBRANCH  16  18
ENDBRANCH   8  16
TORSDOF 7
ENDMDL
MODEL 4
REMARK VINA RESULT:       5.3      2.553      5.094
REMARK  Name = 26744361
REMARK  8 active torsions:
REMARK  status: ('A' for Active; 'I' for Inactive)
REMARK    1  A    between atoms: S_1  and  C_24
REMARK    2  A    between atoms: S_1  and  C_28
REMARK    3  A    between atoms: O_2  and  C_14
REMARK    4  A    between atoms: N_8  and  C_16
REMARK    5  A    between atoms: N_11  and  C_29
REMARK    6  A    between atoms: C_12  and  C_17
REMARK    7  A    between atoms: C_16  and  C_18
REMARK    8  A    between atoms: C_21  and  C_25
REMARK                            x       y       z     vdW  Elec       q    Type
REMARK                         _______ _______ _______ _____ _____    ______ ____
ROOT
ATOM      8  N   UNL     1      -3.441  -1.534  23.716  0.00  0.00    -0.285 NA
ATOM     12  C   UNL     1      -2.689  -1.157  24.930  0.00  0.00    +0.149 C 
ATOM     13  C   UNL     1      -2.544  -2.468  25.727  0.00  0.00    +0.061 C 
ATOM     14  C   UNL     1      -3.285  -3.514  24.903  0.00  0.00    +0.130 C 
ATOM     15  C   UNL     1      -4.256  -2.692  24.077  0.00  0.00    +0.116 C 
ENDROOT
BRANCH  12  17
ATOM      3  O   UNL     1      -1.029   0.590  25.333  0.00  0.00    -0.336 OA
ATOM      9  N   UNL     1      -0.452  -0.867  23.734  0.00  0.00    -0.190 NA
ATOM     10  N   UNL     1       0.227   0.999  24.869  0.00  0.00    -0.056 NA
ATOM     17  C   UNL     1      -1.355  -0.514  24.614  0.00  0.00    +0.245 A 
ATOM     21  C   UNL     1       0.500   0.091  23.927  0.00  0.00    +0.202 A 
BRANCH  21  25
ATOM     25  C   UNL     1       1.715   0.111  23.165  0.00  0.00    +0.025 A 
ATOM     26  C   UNL     1       2.945   0.217  23.814  0.00  0.00    +0.044 A 
ATOM     27  C   UNL     1       1.665   0.024  21.773  0.00  0.00    +0.012 A 
ATOM     29  C   UNL     1       4.126   0.235  23.072  0.00  0.00    +0.127 A 
ATOM     30  C   UNL     1       2.847   0.043  21.031  0.00  0.00    +0.003 A 
ATOM     31  C   UNL     1       4.076   0.149  21.680  0.00  0.00    +0.033 A 
BRANCH  29  11
ATOM      6  O   UNL     1       5.434   0.935  24.837  0.00  0.00    -0.126 OA
ATOM      7  O   UNL     1       6.396  -0.154  23.191  0.00  0.00    -0.126 OA
ATOM     11  N   UNL     1       5.378   0.344  23.731  0.00  0.00    +0.056 N 
ENDBRANCH  29  11
ENDBRANCH  21  25
ENDBRANCH  12  17
BRANCH  14   2
ATOM      2  O   UNL     1      -3.956  -4.431  25.744  0.00  0.00    -0.390 OA
ATOM     32  H   UNL     1      -3.754  -4.186  26.663  0.00  0.00    +0.210 HD
ENDBRANCH  14   2
BRANCH   8  16
ATOM     16  C   UNL     1      -4.243  -0.445  23.176  0.00  0.00    +0.120 C 
BRANCH  16  18
ATOM     18  C   UNL     1      -3.762   0.899  23.657  0.00  0.00    -0.033 A 
ATOM     19  C   UNL     1      -4.251   1.427  24.852  0.00  0.00    +0.007 A 
ATOM     20  C   UNL     1      -2.827   1.614  22.910  0.00  0.00    +0.007 A 
ATOM     22  C   UNL     1      -3.806   2.671  25.298  0.00  0.00    +0.027 A 
ATOM     23  C   UNL     1      -2.380   2.857  23.356  0.00  0.00    +0.027 A 
ATOM     24  C   UNL     1      -2.871   3.386  24.550  0.00  0.00    +0.088 A 
BRANCH  24   1
ATOM      1  S   UNL     1      -2.313   4.944  25.109  0.00  0.00    -0.006 S 
ATOM      4  O   UNL     1      -2.737   5.965  24.159  0.00  0.00    -0.170 OA
ATOM      5  O   UNL     1      -2.671   5.071  26.515  0.00  0.00    -0.170 OA
ATOM     28  C   UNL     1      -0.541   4.844  25.002  0.00  0.00    +0.200 C 
ENDBRANCH  24   1
ENDBRANCH  16  18
ENDBRANCH   8  16
TORSDOF 7
ENDMDL
MODEL 5
REMARK VINA RESULT:       5.4      2.347      4.423
REMARK  Name = 26744361
REMARK  8 active torsions:
REMARK  status: ('A' for Active; 'I' for Inactive)
REMARK    1  A    between atoms: S_1  and  C_24
REMARK    2  A    between atoms: S_1  and  C_28
REMARK    3  A    between atoms: O_2  and  C_14
REMARK    4  A    between atoms: N_8  and  C_16
REMARK    5  A    between atoms: N_11  and  C_29
REMARK    6  A    between atoms: C_12  and  C_17
REMARK    7  A    between atoms: C_16  and  C_18
REMARK    8  A    between atoms: C_21  and  C_25
REMARK                            x       y       z     vdW  Elec       q    Type
REMARK                         _______ _______ _______ _____ _____    ______ ____
ROOT
ATOM      8  N   UNL     1      -3.882   4.170  25.273  0.00  0.00    -0.285 NA
ATOM     12  C   UNL     1      -4.830   3.257  25.942  0.00  0.00    +0.149 C 
ATOM     13  C   UNL     1      -6.210   3.914  25.753  0.00  0.00    +0.061 C 
ATOM     14  C   UNL     1      -5.929   5.213  25.006  0.00  0.00    +0.130 C 
ATOM     15  C   UNL     1      -4.477   5.503  25.335  0.00  0.00    +0.116 C 
ENDROOT
BRANCH  12  17
ATOM      3  O   UNL     1      -5.881   1.406  24.743  0.00  0.00    -0.336 OA
ATOM      9  N   UNL     1      -3.798   0.976  25.444  0.00  0.00    -0.190 NA
ATOM     10  N   UNL     1      -5.593   0.099  24.329  0.00  0.00    -0.056 NA
ATOM     17  C   UNL     1      -4.772   1.849  25.390  0.00  0.00    +0.245 A 
ATOM     21  C   UNL     1      -4.347  -0.082  24.780  0.00  0.00    +0.202 A 
BRANCH  21  25
ATOM     25  C   UNL     1      -3.626  -1.306  24.582  0.00  0.00    +0.025 A 
ATOM     26  C   UNL     1      -2.351  -1.460  25.126  0.00  0.00    +0.044 A 
ATOM     27  C   UNL     1      -4.200  -2.342  23.845  0.00  0.00    +0.012 A 
ATOM     29  C   UNL     1      -1.650  -2.651  24.935  0.00  0.00    +0.127 A 
ATOM     30  C   UNL     1      -3.499  -3.533  23.653  0.00  0.00    +0.003 A 
ATOM     31  C   UNL     1      -2.224  -3.686  24.198  0.00  0.00    +0.033 A 
BRANCH  29  11
ATOM      6  O   UNL     1       0.165  -1.848  26.109  0.00  0.00    -0.126 OA
ATOM      7  O   UNL     1       0.243  -3.904  25.341  0.00  0.00    -0.126 OA
ATOM     11  N   UNL     1      -0.352  -2.809  25.488  0.00  0.00    +0.056 N 
ENDBRANCH  29  11
ENDBRANCH  21  25
ENDBRANCH  12  17
BRANCH  14   2
ATOM      2  O   UNL     1      -6.785   6.245  25.455  0.00  0.00    -0.390 OA
ATOM     32  H   UNL     1      -6.971   6.821  24.694  0.00  0.00    +0.210 HD
ENDBRANCH  14   2
BRANCH   8  16
ATOM     16  C   UNL     1      -2.546   4.138  25.855  0.00  0.00    +0.120 C 
BRANCH  16  18
ATOM     18  C   UNL     1      -1.652   3.150  25.153  0.00  0.00    -0.033 A 
ATOM     19  C   UNL     1      -0.535   2.633  25.809  0.00  0.00    +0.007 A 
ATOM     20  C   UNL     1      -1.941   2.752  23.848  0.00  0.00    +0.007 A 
ATOM     22  C   UNL     1       0.293   1.718  25.160  0.00  0.00    +0.027 A 
ATOM     23  C   UNL     1      -1.113   1.836  23.199  0.00  0.00    +0.027 A 
ATOM     24  C   UNL     1       0.004   1.319  23.855  0.00  0.00    +0.088 A 
BRANCH  24   1
ATOM      1  S   UNL     1       1.041   0.174  23.041  0.00  0.00    -0.006 S 
ATOM      4  O   UNL     1       1.247  -0.976  23.911  0.00  0.00    -0.170 OA
ATOM      5  O   UNL     1       0.523  -0.022  21.695  0.00  0.00    -0.170 OA
ATOM     28  C   UNL     1       2.606   1.009  22.909  0.00  0.00    +0.200 C 
ENDBRANCH  24   1
ENDBRANCH  16  18
ENDBRANCH   8  16
TORSDOF 7
ENDMDL
MODEL 6
REMARK VINA RESULT:       5.7      2.501      7.529
REMARK  Name = 26744361
REMARK  8 active torsions:
REMARK  status: ('A' for Active; 'I' for Inactive)
REMARK    1  A    between atoms: S_1  and  C_24
REMARK    2  A    between atoms: S_1  and  C_28
REMARK    3  A    between atoms: O_2  and  C_14
REMARK    4  A    between atoms: N_8  and  C_16
REMARK    5  A    between atoms: N_11  and  C_29
REMARK    6  A    between atoms: C_12  and  C_17
REMARK    7  A    between atoms: C_16  and  C_18
REMARK    8  A    between atoms: C_21  and  C_25
REMARK                            x       y       z     vdW  Elec       q    Type
REMARK                         _______ _______ _______ _____ _____    ______ ____
ROOT
ATOM      8  N   UNL     1       2.733   1.146  23.539  0.00  0.00    -0.285 NA
ATOM     12  C   UNL     1       2.268  -0.136  22.972  0.00  0.00    +0.149 C 
ATOM     13  C   UNL     1       3.451  -1.104  23.163  0.00  0.00    +0.061 C 
ATOM     14  C   UNL     1       4.549  -0.263  23.802  0.00  0.00    +0.130 C 
ATOM     15  C   UNL     1       4.188   1.155  23.402  0.00  0.00    +0.116 C 
ENDROOT
BRANCH  12  17
ATOM      3  O   UNL     1       1.143  -1.449  24.699  0.00  0.00    -0.336 OA
ATOM      9  N   UNL     1      -0.251  -0.394  23.299  0.00  0.00    -0.190 NA
ATOM     10  N   UNL     1      -0.152  -1.774  25.122  0.00  0.00    -0.056 NA
ATOM     17  C   UNL     1       0.995  -0.634  23.623  0.00  0.00    +0.245 A 
ATOM     21  C   UNL     1      -0.918  -1.114  24.247  0.00  0.00    +0.202 A 
BRANCH  21  25
ATOM     25  C   UNL     1      -2.351  -1.154  24.294  0.00  0.00    +0.025 A 
ATOM     26  C   UNL     1      -3.071   0.001  24.602  0.00  0.00    +0.044 A 
ATOM     27  C   UNL     1      -3.024  -2.347  24.031  0.00  0.00    +0.012 A 
ATOM     29  C   UNL     1      -4.465  -0.038  24.645  0.00  0.00    +0.127 A 
ATOM     30  C   UNL     1      -4.418  -2.385  24.075  0.00  0.00    +0.003 A 
ATOM     31  C   UNL     1      -5.138  -1.231  24.383  0.00  0.00    +0.033 A 
BRANCH  29  11
ATOM      6  O   UNL     1      -5.704   1.250  26.102  0.00  0.00    -0.126 OA
ATOM      7  O   UNL     1      -5.323   2.028  24.085  0.00  0.00    -0.126 OA
ATOM     11  N   UNL     1      -5.199   1.136  24.959  0.00  0.00    +0.056 N 
ENDBRANCH  29  11
ENDBRANCH  21  25
ENDBRANCH  12  17
BRANCH  14   2
ATOM      2  O   UNL     1       5.820  -0.639  23.310  0.00  0.00    -0.390 OA
ATOM     32  H   UNL     1       6.028  -0.056  22.560  0.00  0.00    +0.210 HD
ENDBRANCH  14   2
BRANCH   8  16
ATOM     16  C   UNL     1       2.116   2.308  22.914  0.00  0.00    +0.120 C 
BRANCH  16  18
ATOM     18  C   UNL     1       0.894   2.766  23.665  0.00  0.00    -0.033 A 
ATOM     19  C   UNL     1       0.145   3.842  23.188  0.00  0.00    +0.007 A 
ATOM     20  C   UNL     1       0.509   2.114  24.836  0.00  0.00    +0.007 A 
ATOM     22  C   UNL     1      -0.987   4.266  23.882  0.00  0.00    +0.027 A 
ATOM     23  C   UNL     1      -0.623   2.538  25.531  0.00  0.00    +0.027 A 
ATOM     24  C   UNL     1      -1.371   3.614  25.054  0.00  0.00    +0.088 A 
BRANCH  24   1
ATOM      1  S   UNL     1      -2.789   4.146  25.925  0.00  0.00    -0.006 S 
ATOM      4  O   UNL     1      -3.185   3.103  26.861  0.00  0.00    -0.170 OA
ATOM      5  O   UNL     1      -2.537   5.495  26.410  0.00  0.00    -0.170 OA
ATOM     28  C   UNL     1      -4.061   4.238  24.685  0.00  0.00    +0.200 C 
ENDBRANCH  24   1
ENDBRANCH  16  18
ENDBRANCH   8  16
TORSDOF 7
ENDMDL
MODEL 7
REMARK VINA RESULT:       6.6      2.158      6.771
REMARK  Name = 26744361
REMARK  8 active torsions:
REMARK  status: ('A' for Active; 'I' for Inactive)
REMARK    1  A    between atoms: S_1  and  C_24
REMARK    2  A    between atoms: S_1  and  C_28
REMARK    3  A    between atoms: O_2  and  C_14
REMARK    4  A    between atoms: N_8  and  C_16
REMARK    5  A    between atoms: N_11  and  C_29
REMARK    6  A    between atoms: C_12  and  C_17
REMARK    7  A    between atoms: C_16  and  C_18
REMARK    8  A    between atoms: C_21  and  C_25
REMARK                            x       y       z     vdW  Elec       q    Type
REMARK                         _______ _______ _______ _____ _____    ______ ____
ROOT
ATOM      8  N   UNL     1       2.152   0.464  22.168  0.00  0.00    -0.285 NA
ATOM     12  C   UNL     1       1.951   0.681  23.615  0.00  0.00    +0.149 C 
ATOM     13  C   UNL     1       3.349   1.036  24.158  0.00  0.00    +0.061 C 
ATOM     14  C   UNL     1       4.274   0.948  22.951  0.00  0.00    +0.130 C 
ATOM     15  C   UNL     1       3.535   0.022  22.004  0.00  0.00    +0.116 C 
ENDROOT
BRANCH  12  17
ATOM      3  O   UNL     1       1.188   2.995  23.429  0.00  0.00    -0.336 OA
ATOM      9  N   UNL     1      -0.207   1.660  24.564  0.00  0.00    -0.190 NA
ATOM     10  N   UNL     1       0.110   3.800  23.818  0.00  0.00    -0.056 NA
ATOM     17  C   UNL     1       0.922   1.752  23.907  0.00  0.00    +0.245 A 
ATOM     21  C   UNL     1      -0.670   2.942  24.483  0.00  0.00    +0.202 A 
BRANCH  21  25
ATOM     25  C   UNL     1      -1.917   3.332  25.075  0.00  0.00    +0.025 A 
ATOM     26  C   UNL     1      -3.043   2.524  24.927  0.00  0.00    +0.044 A 
ATOM     27  C   UNL     1      -2.001   4.520  25.801  0.00  0.00    +0.012 A 
ATOM     29  C   UNL     1      -4.255   2.903  25.505  0.00  0.00    +0.127 A 
ATOM     30  C   UNL     1      -3.213   4.900  26.379  0.00  0.00    +0.003 A 
ATOM     31  C   UNL     1      -4.340   4.091  26.230  0.00  0.00    +0.033 A 
BRANCH  29  11
ATOM      6  O   UNL     1      -5.950   1.607  26.379  0.00  0.00    -0.126 OA
ATOM      7  O   UNL     1      -5.839   1.851  24.200  0.00  0.00    -0.126 OA
ATOM     11  N   UNL     1      -5.403   2.081  25.354  0.00  0.00    +0.056 N 
ENDBRANCH  29  11
ENDBRANCH  21  25
ENDBRANCH  12  17
BRANCH  14   2
ATOM      2  O   UNL     1       5.534   0.422  23.322  0.00  0.00    -0.390 OA
ATOM     32  H   UNL     1       6.144   1.173  23.425  0.00  0.00    +0.210 HD
ENDBRANCH  14   2
BRANCH   8  16
ATOM     16  C   UNL     1       1.202  -0.478  21.591  0.00  0.00    +0.120 C 
BRANCH  16  18
ATOM     18  C   UNL     1       0.022  -0.710  22.497  0.00  0.00    -0.033 A 
ATOM     19  C   UNL     1       0.108  -1.644  23.529  0.00  0.00    +0.007 A 
ATOM     20  C   UNL     1      -1.157   0.010  22.304  0.00  0.00    +0.007 A 
ATOM     22  C   UNL     1      -0.986  -1.859  24.368  0.00  0.00    +0.027 A 
ATOM     23  C   UNL     1      -2.250  -0.203  23.144  0.00  0.00    +0.027 A 
ATOM     24  C   UNL     1      -2.164  -1.139  24.175  0.00  0.00    +0.088 A 
BRANCH  24   1
ATOM      1  S   UNL     1      -3.534  -1.408  25.225  0.00  0.00    -0.006 S 
ATOM      4  O   UNL     1      -3.240  -0.844  26.536  0.00  0.00    -0.170 OA
ATOM      5  O   UNL     1      -4.734  -0.993  24.512  0.00  0.00    -0.170 OA
ATOM     28  C   UNL     1      -3.598  -3.173  25.425  0.00  0.00    +0.200 C 
ENDBRANCH  24   1
ENDBRANCH  16  18
ENDBRANCH   8  16
TORSDOF 7
ENDMDL
MODEL 8
REMARK VINA RESULT:       7.5      3.121      4.226
REMARK  Name = 26744361
REMARK  8 active torsions:
REMARK  status: ('A' for Active; 'I' for Inactive)
REMARK    1  A    between atoms: S_1  and  C_24
REMARK    2  A    between atoms: S_1  and  C_28
REMARK    3  A    between atoms: O_2  and  C_14
REMARK    4  A    between atoms: N_8  and  C_16
REMARK    5  A    between atoms: N_11  and  C_29
REMARK    6  A    between atoms: C_12  and  C_17
REMARK    7  A    between atoms: C_16  and  C_18
REMARK    8  A    between atoms: C_21  and  C_25
REMARK                            x       y       z     vdW  Elec       q    Type
REMARK                         _______ _______ _______ _____ _____    ______ ____
ROOT
ATOM      8  N   UNL     1      -3.601   2.800  24.501  0.00  0.00    -0.285 NA
ATOM     12  C   UNL     1      -3.351   1.607  25.335  0.00  0.00    +0.149 C 
ATOM     13  C   UNL     1      -4.679   0.827  25.314  0.00  0.00    +0.061 C 
ATOM     14  C   UNL     1      -5.626   1.683  24.482  0.00  0.00    +0.130 C 
ATOM     15  C   UNL     1      -5.033   3.075  24.590  0.00  0.00    +0.116 C 
ENDROOT
BRANCH  12  17
ATOM      3  O   UNL     1      -2.077  -0.478  25.329  0.00  0.00    -0.336 OA
ATOM      9  N   UNL     1      -1.235   1.112  23.995  0.00  0.00    -0.190 NA
ATOM     10  N   UNL     1      -0.936  -1.032  24.735  0.00  0.00    -0.056 NA
ATOM     17  C   UNL     1      -2.181   0.784  24.839  0.00  0.00    +0.245 A 
ATOM     21  C   UNL     1      -0.495  -0.035  23.963  0.00  0.00    +0.202 A 
BRANCH  21  25
ATOM     25  C   UNL     1       0.679  -0.152  23.147  0.00  0.00    +0.025 A 
ATOM     26  C   UNL     1       1.944  -0.057  23.727  0.00  0.00    +0.044 A 
ATOM     27  C   UNL     1       0.554  -0.362  21.773  0.00  0.00    +0.012 A 
ATOM     29  C   UNL     1       3.085  -0.173  22.933  0.00  0.00    +0.127 A 
ATOM     30  C   UNL     1       1.696  -0.477  20.979  0.00  0.00    +0.003 A 
ATOM     31  C   UNL     1       2.961  -0.382  21.560  0.00  0.00    +0.033 A 
BRANCH  29  11
ATOM      6  O   UNL     1       4.927   1.048  23.592  0.00  0.00    -0.126 OA
ATOM      7  O   UNL     1       4.924  -1.118  23.956  0.00  0.00    -0.126 OA
ATOM     11  N   UNL     1       4.373  -0.077  23.522  0.00  0.00    +0.056 N 
ENDBRANCH  29  11
ENDBRANCH  21  25
ENDBRANCH  12  17
BRANCH  14   2
ATOM      2  O   UNL     1      -6.939   1.629  25.003  0.00  0.00    -0.390 OA
ATOM     32  H   UNL     1      -7.390   0.877  24.582  0.00  0.00    +0.210 HD
ENDBRANCH  14   2
BRANCH   8  16
ATOM     16  C   UNL     1      -2.797   3.951  24.890  0.00  0.00    +0.120 C 
BRANCH  16  18
ATOM     18  C   UNL     1      -1.731   3.581  25.887  0.00  0.00    -0.033 A 
ATOM     19  C   UNL     1      -0.423   3.357  25.459  0.00  0.00    +0.007 A 
ATOM     20  C   UNL     1      -2.052   3.462  27.240  0.00  0.00    +0.007 A 
ATOM     22  C   UNL     1       0.564   3.013  26.382  0.00  0.00    +0.027 A 
ATOM     23  C   UNL     1      -1.065   3.120  28.164  0.00  0.00    +0.027 A 
ATOM     24  C   UNL     1       0.243   2.895  27.734  0.00  0.00    +0.088 A 
BRANCH  24   1
ATOM      1  S   UNL     1       1.479   2.465  28.891  0.00  0.00    -0.006 S 
ATOM      4  O   UNL     1       1.483   1.018  29.060  0.00  0.00    -0.170 OA
ATOM      5  O   UNL     1       2.706   3.152  28.512  0.00  0.00    -0.170 OA
ATOM     28  C   UNL     1       0.912   3.163  30.425  0.00  0.00    +0.200 C 
ENDBRANCH  24   1
ENDBRANCH  16  18
ENDBRANCH   8  16
TORSDOF 7
ENDMDL
