MODEL 1
REMARK VINA RESULT:      -0.9      0.000      0.000
REMARK  Name = 26743716
REMARK  10 active torsions:
REMARK  status: ('A' for Active; 'I' for Inactive)
REMARK    1  A    between atoms: O_4  and  C_13
REMARK    2  A    between atoms: O_6  and  C_31
REMARK    3  A    between atoms: O_6  and  C_32
REMARK    4  A    between atoms: N_7  and  C_15
REMARK    5  A    between atoms: N_10  and  C_23
REMARK    6  A    between atoms: N_10  and  C_27
REMARK    7  A    between atoms: N_10  and  C_28
REMARK    8  A    between atoms: C_11  and  C_16
REMARK    9  A    between atoms: C_15  and  C_17
REMARK   10  A    between atoms: C_20  and  C_24
REMARK                            x       y       z     vdW  Elec       q    Type
REMARK                         _______ _______ _______ _____ _____    ______ ____
ROOT
ATOM      7  N   UNL     1      -5.251   2.249  25.505  0.00  0.00    -0.285 NA
ATOM     11  C   UNL     1      -4.392   2.876  24.480  0.00  0.00    +0.149 C 
ATOM     12  C   UNL     1      -4.647   4.387  24.626  0.00  0.00    +0.061 C 
ATOM     13  C   UNL     1      -5.695   4.508  25.724  0.00  0.00    +0.130 C 
ATOM     14  C   UNL     1      -6.380   3.154  25.710  0.00  0.00    +0.116 C 
ENDROOT
BRANCH  11  16
ATOM      5  O   UNL     1      -2.390   2.700  25.872  0.00  0.00    -0.336 OA
ATOM      8  N   UNL     1      -2.095   2.027  23.756  0.00  0.00    -0.190 NA
ATOM      9  N   UNL     1      -1.053   2.295  25.775  0.00  0.00    -0.056 NA
ATOM     16  C   UNL     1      -2.931   2.509  24.640  0.00  0.00    +0.245 A 
ATOM     20  C   UNL     1      -0.955   1.913  24.498  0.00  0.00    +0.202 A 
BRANCH  20  24
ATOM     24  C   UNL     1       0.264   1.411  23.935  0.00  0.00    +0.023 A 
ATOM     25  C   UNL     1       0.320   0.107  23.443  0.00  0.00    +0.015 A 
ATOM     26  C   UNL     1       1.394   2.227  23.878  0.00  0.00    +0.015 A 
ATOM     29  C   UNL     1       1.508  -0.381  22.896  0.00  0.00    +0.046 A 
ATOM     30  C   UNL     1       2.580   1.739  23.331  0.00  0.00    +0.046 A 
ATOM     31  C   UNL     1       2.637   0.435  22.840  0.00  0.00    +0.130 A 
BRANCH  31   6
ATOM      6  O   UNL     1       3.795  -0.040  22.306  0.00  0.00    -0.406 OA
BRANCH   6  32
ATOM      1  F   UNL     1       6.034  -0.312  22.406  0.00  0.00    -0.133 F 
ATOM      2  F   UNL     1       5.072   0.878  23.966  0.00  0.00    -0.133 F 
ATOM      3  F   UNL     1       4.808  -1.315  23.912  0.00  0.00    -0.133 F 
ATOM     32  C   UNL     1       4.919  -0.197  23.163  0.00  0.00    +0.575 C 
ENDBRANCH   6  32
ENDBRANCH  31   6
ENDBRANCH  20  24
ENDBRANCH  11  16
BRANCH  13   4
ATOM      4  O   UNL     1      -6.600   5.557  25.440  0.00  0.00    -0.390 OA
ATOM     33  H   UNL     1      -6.531   6.205  26.162  0.00  0.00    +0.210 HD
ENDBRANCH  13   4
BRANCH   7  15
ATOM     15  C   UNL     1      -5.685   0.905  25.147  0.00  0.00    +0.120 C 
BRANCH  15  17
ATOM     17  C   UNL     1      -4.521  -0.039  24.997  0.00  0.00    -0.033 A 
ATOM     18  C   UNL     1      -4.263  -0.637  23.764  0.00  0.00    +0.007 A 
ATOM     19  C   UNL     1      -3.701  -0.314  26.091  0.00  0.00    +0.007 A 
ATOM     21  C   UNL     1      -3.184  -1.511  23.624  0.00  0.00    +0.023 A 
ATOM     22  C   UNL     1      -2.623  -1.188  25.951  0.00  0.00    +0.023 A 
ATOM     23  C   UNL     1      -2.365  -1.787  24.719  0.00  0.00    +0.029 A 
BRANCH  23  10
ATOM     10  N   UNL     1      -1.274  -2.671  24.577  0.00  0.00    -0.336 N 
ATOM     27  C   UNL     1      -1.257  -3.650  23.510  0.00  0.00    +0.129 C 
ATOM     28  C   UNL     1      -0.153  -2.606  25.495  0.00  0.00    +0.129 C 
ENDBRANCH  23  10
ENDBRANCH  15  17
ENDBRANCH   7  15
TORSDOF 8
ENDMDL
