MODEL 1
REMARK VINA RESULT:      -5.9      0.000      0.000
REMARK  Name = 56774336
REMARK  9 active torsions:
REMARK  status: ('A' for Active; 'I' for Inactive)
REMARK    1  A    between atoms: S_1  and  N_6
REMARK    2  A    between atoms: S_1  and  C_17
REMARK    3  A    between atoms: O_5  and  C_21
REMARK    4  A    between atoms: N_6  and  C_10
REMARK    5  A    between atoms: C_8  and  C_13
REMARK    6  A    between atoms: C_8  and  C_14
REMARK    7  A    between atoms: C_9  and  C_12
REMARK    8  A    between atoms: C_12  and  C_15
REMARK    9  A    between atoms: C_18  and  C_21
REMARK                            x       y       z     vdW  Elec       q    Type
REMARK                         _______ _______ _______ _____ _____    ______ ____
ROOT
ATOM      8  C   UNL     1      -3.482  -1.373  24.645  0.00  0.00    -0.015 C 
ATOM      9  C   UNL     1      -2.206  -0.813  23.983  0.00  0.00    +0.004 C 
ATOM     10  C   UNL     1      -4.095   0.032  24.477  0.00  0.00    +0.083 C 
ATOM     11  C   UNL     1      -2.652   0.579  24.481  0.00  0.00    +0.025 C 
ATOM     13  C   UNL     1      -4.138  -2.477  23.846  0.00  0.00    +0.013 C 
ATOM     14  C   UNL     1      -3.346  -1.790  26.098  0.00  0.00    +0.013 C 
ENDROOT
BRANCH  10   6
ATOM      6  N   UNL     1      -4.980   0.537  25.570  0.00  0.00    -0.186 NA
ATOM     25  H   UNL     1      -5.470  -0.196  26.100  0.00  0.00    +0.148 HD
BRANCH   6   1
ATOM      1  S   UNL     1      -5.719   2.086  25.610  0.00  0.00    +0.059 S 
ATOM      2  O   UNL     1      -6.243   2.312  26.951  0.00  0.00    -0.153 OA
ATOM      3  O   UNL     1      -6.607   2.210  24.461  0.00  0.00    -0.153 OA
BRANCH   1  17
ATOM     17  C   UNL     1      -4.356   3.146  25.351  0.00  0.00    +0.105 A 
ATOM     19  C   UNL     1      -4.069   3.612  24.069  0.00  0.00    +0.028 A 
ATOM     20  C   UNL     1      -3.552   3.522  26.427  0.00  0.00    +0.028 A 
ATOM     22  C   UNL     1      -2.977   4.456  23.862  0.00  0.00    +0.002 A 
ATOM     23  C   UNL     1      -2.461   4.365  26.220  0.00  0.00    +0.002 A 
ATOM     24  C   UNL     1      -2.173   4.832  24.938  0.00  0.00    +0.000 A 
ENDBRANCH   1  17
ENDBRANCH   6   1
ENDBRANCH  10   6
BRANCH   9  12
ATOM     12  C   UNL     1      -0.878  -1.284  24.527  0.00  0.00    +0.063 C 
BRANCH  12  15
ATOM      4  O   UNL     1       1.367   1.458  23.846  0.00  0.00    -0.357 OA
ATOM      7  N   UNL     1       0.225   0.918  24.424  0.00  0.00    -0.083 NA
ATOM     15  C   UNL     1       0.233  -0.370  24.068  0.00  0.00    +0.084 A 
ATOM     16  C   UNL     1       1.346  -0.697  23.273  0.00  0.00    +0.073 A 
ATOM     18  C   UNL     1       2.026   0.487  23.164  0.00  0.00    +0.163 A 
BRANCH  18  21
ATOM     21  C   UNL     1       3.265   0.887  22.486  0.00  0.00    +0.232 C 
BRANCH  21   5
ATOM      5  O   UNL     1       4.364   0.856  23.402  0.00  0.00    -0.387 OA
ATOM     26  H   UNL     1       4.072   1.315  24.208  0.00  0.00    +0.210 HD
ENDBRANCH  21   5
ENDBRANCH  18  21
ENDBRANCH  12  15
ENDBRANCH   9  12
TORSDOF 7
ENDMDL
MODEL 2
REMARK VINA RESULT:      -5.9      1.453      1.885
REMARK  Name = 56774336
REMARK  9 active torsions:
REMARK  status: ('A' for Active; 'I' for Inactive)
REMARK    1  A    between atoms: S_1  and  N_6
REMARK    2  A    between atoms: S_1  and  C_17
REMARK    3  A    between atoms: O_5  and  C_21
REMARK    4  A    between atoms: N_6  and  C_10
REMARK    5  A    between atoms: C_8  and  C_13
REMARK    6  A    between atoms: C_8  and  C_14
REMARK    7  A    between atoms: C_9  and  C_12
REMARK    8  A    between atoms: C_12  and  C_15
REMARK    9  A    between atoms: C_18  and  C_21
REMARK                            x       y       z     vdW  Elec       q    Type
REMARK                         _______ _______ _______ _____ _____    ______ ____
ROOT
ATOM      8  C   UNL     1      -3.577  -1.543  24.665  0.00  0.00    -0.015 C 
ATOM      9  C   UNL     1      -2.548  -0.984  23.661  0.00  0.00    +0.004 C 
ATOM     10  C   UNL     1      -4.407  -0.268  24.407  0.00  0.00    +0.083 C 
ATOM     11  C   UNL     1      -3.084   0.420  24.010  0.00  0.00    +0.025 C 
ATOM     13  C   UNL     1      -4.210  -2.841  24.218  0.00  0.00    +0.013 C 
ATOM     14  C   UNL     1      -3.104  -1.660  26.102  0.00  0.00    +0.013 C 
ENDROOT
BRANCH  10   6
ATOM      6  N   UNL     1      -5.126   0.337  25.569  0.00  0.00    -0.186 NA
ATOM     25  H   UNL     1      -5.503  -0.343  26.243  0.00  0.00    +0.148 HD
BRANCH   6   1
ATOM      1  S   UNL     1      -5.902   1.869  25.565  0.00  0.00    +0.059 S 
ATOM      2  O   UNL     1      -6.444   2.113  26.895  0.00  0.00    -0.153 OA
ATOM      3  O   UNL     1      -6.780   1.945  24.405  0.00  0.00    -0.153 OA
BRANCH   1  17
ATOM     17  C   UNL     1      -4.561   2.954  25.295  0.00  0.00    +0.105 A 
ATOM     19  C   UNL     1      -4.246   3.365  24.000  0.00  0.00    +0.028 A 
ATOM     20  C   UNL     1      -3.802   3.405  26.374  0.00  0.00    +0.028 A 
ATOM     22  C   UNL     1      -3.172   4.229  23.784  0.00  0.00    +0.002 A 
ATOM     23  C   UNL     1      -2.728   4.269  26.158  0.00  0.00    +0.002 A 
ATOM     24  C   UNL     1      -2.413   4.681  24.864  0.00  0.00    +0.000 A 
ENDBRANCH   1  17
ENDBRANCH   6   1
ENDBRANCH  10   6
BRANCH   9  12
ATOM     12  C   UNL     1      -1.086  -1.200  23.974  0.00  0.00    +0.063 C 
BRANCH  12  15
ATOM      4  O   UNL     1       0.803   1.850  24.367  0.00  0.00    -0.357 OA
ATOM      7  N   UNL     1       0.424   0.722  23.651  0.00  0.00    -0.083 NA
ATOM     15  C   UNL     1      -0.451   0.090  24.438  0.00  0.00    +0.084 A 
ATOM     16  C   UNL     1      -0.661   0.766  25.652  0.00  0.00    +0.073 A 
ATOM     18  C   UNL     1       0.151   1.865  25.557  0.00  0.00    +0.163 A 
BRANCH  18  21
ATOM     21  C   UNL     1       0.436   2.997  26.447  0.00  0.00    +0.232 C 
BRANCH  21   5
ATOM      5  O   UNL     1       1.282   2.582  27.523  0.00  0.00    -0.387 OA
ATOM     26  H   UNL     1       1.786   1.813  27.206  0.00  0.00    +0.210 HD
ENDBRANCH  21   5
ENDBRANCH  18  21
ENDBRANCH  12  15
ENDBRANCH   9  12
TORSDOF 7
ENDMDL
MODEL 3
REMARK VINA RESULT:      -5.2      2.491      6.634
REMARK  Name = 56774336
REMARK  9 active torsions:
REMARK  status: ('A' for Active; 'I' for Inactive)
REMARK    1  A    between atoms: S_1  and  N_6
REMARK    2  A    between atoms: S_1  and  C_17
REMARK    3  A    between atoms: O_5  and  C_21
REMARK    4  A    between atoms: N_6  and  C_10
REMARK    5  A    between atoms: C_8  and  C_13
REMARK    6  A    between atoms: C_8  and  C_14
REMARK    7  A    between atoms: C_9  and  C_12
REMARK    8  A    between atoms: C_12  and  C_15
REMARK    9  A    between atoms: C_18  and  C_21
REMARK                            x       y       z     vdW  Elec       q    Type
REMARK                         _______ _______ _______ _____ _____    ______ ____
ROOT
ATOM      8  C   UNL     1      -0.203   2.826  26.132  0.00  0.00    -0.015 C 
ATOM      9  C   UNL     1      -0.553   3.655  24.878  0.00  0.00    +0.004 C 
ATOM     10  C   UNL     1       0.069   1.643  25.180  0.00  0.00    +0.083 C 
ATOM     11  C   UNL     1      -0.898   2.319  24.186  0.00  0.00    +0.025 C 
ATOM     13  C   UNL     1       0.998   3.353  26.885  0.00  0.00    +0.013 C 
ATOM     14  C   UNL     1      -1.348   2.563  27.092  0.00  0.00    +0.013 C 
ENDROOT
BRANCH  10   6
ATOM      6  N   UNL     1      -0.329   0.278  25.642  0.00  0.00    -0.186 NA
ATOM     25  H   UNL     1      -0.238   0.123  26.655  0.00  0.00    +0.148 HD
BRANCH   6   1
ATOM      1  S   UNL     1      -0.293  -1.143  24.679  0.00  0.00    +0.059 S 
ATOM      2  O   UNL     1       0.254  -2.229  25.481  0.00  0.00    -0.153 OA
ATOM      3  O   UNL     1       0.314  -0.821  23.394  0.00  0.00    -0.153 OA
BRANCH   1  17
ATOM     17  C   UNL     1      -1.992  -1.442  24.409  0.00  0.00    +0.105 A 
ATOM     19  C   UNL     1      -2.877  -0.372  24.279  0.00  0.00    +0.028 A 
ATOM     20  C   UNL     1      -2.465  -2.751  24.329  0.00  0.00    +0.028 A 
ATOM     22  C   UNL     1      -4.235  -0.611  24.068  0.00  0.00    +0.002 A 
ATOM     23  C   UNL     1      -3.823  -2.991  24.118  0.00  0.00    +0.002 A 
ATOM     24  C   UNL     1      -4.708  -1.921  23.987  0.00  0.00    +0.000 A 
ENDBRANCH   1  17
ENDBRANCH   6   1
ENDBRANCH  10   6
BRANCH   9  12
ATOM     12  C   UNL     1      -1.703   4.627  24.988  0.00  0.00    +0.063 C 
BRANCH  12  15
ATOM      4  O   UNL     1      -4.637   2.913  23.771  0.00  0.00    -0.357 OA
ATOM      7  N   UNL     1      -3.410   3.538  23.583  0.00  0.00    -0.083 NA
ATOM     15  C   UNL     1      -3.019   3.909  24.805  0.00  0.00    +0.084 A 
ATOM     16  C   UNL     1      -3.950   3.548  25.795  0.00  0.00    +0.073 A 
ATOM     18  C   UNL     1      -4.947   2.926  25.092  0.00  0.00    +0.163 A 
BRANCH  18  21
ATOM     21  C   UNL     1      -6.221   2.303  25.473  0.00  0.00    +0.232 C 
BRANCH  21   5
ATOM      5  O   UNL     1      -6.393   2.350  26.892  0.00  0.00    -0.387 OA
ATOM     26  H   UNL     1      -7.239   2.799  27.059  0.00  0.00    +0.210 HD
ENDBRANCH  21   5
ENDBRANCH  18  21
ENDBRANCH  12  15
ENDBRANCH   9  12
TORSDOF 7
ENDMDL
MODEL 4
REMARK VINA RESULT:      -5.0      2.798      6.976
REMARK  Name = 56774336
REMARK  9 active torsions:
REMARK  status: ('A' for Active; 'I' for Inactive)
REMARK    1  A    between atoms: S_1  and  N_6
REMARK    2  A    between atoms: S_1  and  C_17
REMARK    3  A    between atoms: O_5  and  C_21
REMARK    4  A    between atoms: N_6  and  C_10
REMARK    5  A    between atoms: C_8  and  C_13
REMARK    6  A    between atoms: C_8  and  C_14
REMARK    7  A    between atoms: C_9  and  C_12
REMARK    8  A    between atoms: C_12  and  C_15
REMARK    9  A    between atoms: C_18  and  C_21
REMARK                            x       y       z     vdW  Elec       q    Type
REMARK                         _______ _______ _______ _____ _____    ______ ____
ROOT
ATOM      8  C   UNL     1      -0.949   3.080  24.799  0.00  0.00    -0.015 C 
ATOM      9  C   UNL     1      -2.327   2.742  24.193  0.00  0.00    +0.004 C 
ATOM     10  C   UNL     1      -0.325   2.451  23.536  0.00  0.00    +0.083 C 
ATOM     11  C   UNL     1      -1.619   1.622  23.402  0.00  0.00    +0.025 C 
ATOM     13  C   UNL     1      -0.718   4.563  24.979  0.00  0.00    +0.013 C 
ATOM     14  C   UNL     1      -0.586   2.336  26.071  0.00  0.00    +0.013 C 
ENDROOT
BRANCH  10   6
ATOM      6  N   UNL     1       0.933   1.662  23.705  0.00  0.00    -0.186 NA
ATOM     25  H   UNL     1       1.786   2.229  23.803  0.00  0.00    +0.148 HD
BRANCH   6   1
ATOM      1  S   UNL     1       1.180   0.060  23.140  0.00  0.00    +0.059 S 
ATOM      2  O   UNL     1       0.838   0.013  21.725  0.00  0.00    -0.153 OA
ATOM      3  O   UNL     1       0.540  -0.866  24.065  0.00  0.00    -0.153 OA
BRANCH   1  17
ATOM     17  C   UNL     1       2.908  -0.123  23.309  0.00  0.00    +0.105 A 
ATOM     19  C   UNL     1       3.443  -1.339  23.735  0.00  0.00    +0.028 A 
ATOM     20  C   UNL     1       3.753   0.948  23.022  0.00  0.00    +0.028 A 
ATOM     22  C   UNL     1       4.823  -1.483  23.874  0.00  0.00    +0.002 A 
ATOM     23  C   UNL     1       5.134   0.804  23.161  0.00  0.00    +0.002 A 
ATOM     24  C   UNL     1       5.669  -0.411  23.587  0.00  0.00    +0.000 A 
ENDBRANCH   1  17
ENDBRANCH   6   1
ENDBRANCH  10   6
BRANCH   9  12
ATOM     12  C   UNL     1      -3.404   2.266  25.140  0.00  0.00    +0.063 C 
BRANCH  12  15
ATOM      4  O   UNL     1      -4.712  -0.980  24.258  0.00  0.00    -0.357 OA
ATOM      7  N   UNL     1      -4.772   0.408  24.273  0.00  0.00    -0.083 NA
ATOM     15  C   UNL     1      -3.675   0.795  24.930  0.00  0.00    +0.084 A 
ATOM     16  C   UNL     1      -2.893  -0.295  25.350  0.00  0.00    +0.073 A 
ATOM     18  C   UNL     1      -3.589  -1.386  24.903  0.00  0.00    +0.163 A 
BRANCH  18  21
ATOM     21  C   UNL     1      -3.366  -2.835  24.981  0.00  0.00    +0.232 C 
BRANCH  21   5
ATOM      5  O   UNL     1      -2.189  -3.197  24.253  0.00  0.00    -0.387 OA
ATOM     26  H   UNL     1      -2.065  -2.522  23.564  0.00  0.00    +0.210 HD
ENDBRANCH  21   5
ENDBRANCH  18  21
ENDBRANCH  12  15
ENDBRANCH   9  12
TORSDOF 7
ENDMDL
MODEL 5
REMARK VINA RESULT:      -4.8      2.061      4.328
REMARK  Name = 56774336
REMARK  9 active torsions:
REMARK  status: ('A' for Active; 'I' for Inactive)
REMARK    1  A    between atoms: S_1  and  N_6
REMARK    2  A    between atoms: S_1  and  C_17
REMARK    3  A    between atoms: O_5  and  C_21
REMARK    4  A    between atoms: N_6  and  C_10
REMARK    5  A    between atoms: C_8  and  C_13
REMARK    6  A    between atoms: C_8  and  C_14
REMARK    7  A    between atoms: C_9  and  C_12
REMARK    8  A    between atoms: C_12  and  C_15
REMARK    9  A    between atoms: C_18  and  C_21
REMARK                            x       y       z     vdW  Elec       q    Type
REMARK                         _______ _______ _______ _____ _____    ______ ____
ROOT
ATOM      8  C   UNL     1      -0.464   2.482  25.292  0.00  0.00    -0.015 C 
ATOM      9  C   UNL     1       0.146   1.393  24.385  0.00  0.00    +0.004 C 
ATOM     10  C   UNL     1      -1.765   1.653  25.281  0.00  0.00    +0.083 C 
ATOM     11  C   UNL     1      -1.293   1.071  23.932  0.00  0.00    +0.025 C 
ATOM     13  C   UNL     1       0.226   2.606  26.632  0.00  0.00    +0.013 C 
ATOM     14  C   UNL     1      -0.630   3.852  24.661  0.00  0.00    +0.013 C 
ENDROOT
BRANCH  10   6
ATOM      6  N   UNL     1      -3.061   2.399  25.245  0.00  0.00    -0.186 NA
ATOM     25  H   UNL     1      -3.071   3.270  25.792  0.00  0.00    +0.148 HD
BRANCH   6   1
ATOM      1  S   UNL     1      -4.601   1.694  24.962  0.00  0.00    +0.059 S 
ATOM      2  O   UNL     1      -5.067   2.121  23.650  0.00  0.00    -0.153 OA
ATOM      3  O   UNL     1      -5.440   1.919  26.132  0.00  0.00    -0.153 OA
BRANCH   1  17
ATOM     17  C   UNL     1      -4.216  -0.007  24.898  0.00  0.00    +0.105 A 
ATOM     19  C   UNL     1      -3.646  -0.636  26.004  0.00  0.00    +0.028 A 
ATOM     20  C   UNL     1      -4.474  -0.736  23.737  0.00  0.00    +0.028 A 
ATOM     22  C   UNL     1      -3.334  -1.995  25.951  0.00  0.00    +0.002 A 
ATOM     23  C   UNL     1      -4.162  -2.095  23.684  0.00  0.00    +0.002 A 
ATOM     24  C   UNL     1      -3.593  -2.724  24.790  0.00  0.00    +0.000 A 
ENDBRANCH   1  17
ENDBRANCH   6   1
ENDBRANCH  10   6
BRANCH   9  12
ATOM     12  C   UNL     1       1.071   1.848  23.281  0.00  0.00    +0.063 C 
BRANCH  12  15
ATOM      4  O   UNL     1       3.431  -0.869  23.016  0.00  0.00    -0.357 OA
ATOM      7  N   UNL     1       2.138  -0.360  23.034  0.00  0.00    -0.083 NA
ATOM     15  C   UNL     1       2.288   0.956  23.212  0.00  0.00    +0.084 A 
ATOM     16  C   UNL     1       3.639   1.330  23.313  0.00  0.00    +0.073 A 
ATOM     18  C   UNL     1       4.315   0.147  23.183  0.00  0.00    +0.163 A 
BRANCH  18  21
ATOM     21  C   UNL     1       5.738  -0.216  23.189  0.00  0.00    +0.232 C 
BRANCH  21   5
ATOM      5  O   UNL     1       6.032  -1.049  24.314  0.00  0.00    -0.387 OA
ATOM     26  H   UNL     1       6.065  -0.470  25.094  0.00  0.00    +0.210 HD
ENDBRANCH  21   5
ENDBRANCH  18  21
ENDBRANCH  12  15
ENDBRANCH   9  12
TORSDOF 7
ENDMDL
MODEL 6
REMARK VINA RESULT:      -3.8      2.486      3.684
REMARK  Name = 56774336
REMARK  9 active torsions:
REMARK  status: ('A' for Active; 'I' for Inactive)
REMARK    1  A    between atoms: S_1  and  N_6
REMARK    2  A    between atoms: S_1  and  C_17
REMARK    3  A    between atoms: O_5  and  C_21
REMARK    4  A    between atoms: N_6  and  C_10
REMARK    5  A    between atoms: C_8  and  C_13
REMARK    6  A    between atoms: C_8  and  C_14
REMARK    7  A    between atoms: C_9  and  C_12
REMARK    8  A    between atoms: C_12  and  C_15
REMARK    9  A    between atoms: C_18  and  C_21
REMARK                            x       y       z     vdW  Elec       q    Type
REMARK                         _______ _______ _______ _____ _____    ______ ____
ROOT
ATOM      8  C   UNL     1      -0.309   1.006  24.159  0.00  0.00    -0.015 C 
ATOM      9  C   UNL     1       0.895   0.081  23.882  0.00  0.00    +0.004 C 
ATOM     10  C   UNL     1      -1.141  -0.272  24.388  0.00  0.00    +0.083 C 
ATOM     11  C   UNL     1      -0.129  -1.002  23.480  0.00  0.00    +0.025 C 
ATOM     13  C   UNL     1      -0.119   1.892  25.370  0.00  0.00    +0.013 C 
ATOM     14  C   UNL     1      -0.796   1.828  22.981  0.00  0.00    +0.013 C 
ENDROOT
BRANCH  10   6
ATOM      6  N   UNL     1      -2.557  -0.271  23.907  0.00  0.00    -0.186 NA
ATOM     25  H   UNL     1      -2.720   0.279  23.053  0.00  0.00    +0.148 HD
BRANCH   6   1
ATOM      1  S   UNL     1      -3.939  -0.515  24.897  0.00  0.00    +0.059 S 
ATOM      2  O   UNL     1      -3.497  -1.043  26.180  0.00  0.00    -0.153 OA
ATOM      3  O   UNL     1      -4.942  -1.239  24.128  0.00  0.00    -0.153 OA
BRANCH   1  17
ATOM     17  C   UNL     1      -4.513   1.117  25.126  0.00  0.00    +0.105 A 
ATOM     19  C   UNL     1      -3.747   2.195  24.684  0.00  0.00    +0.028 A 
ATOM     20  C   UNL     1      -5.736   1.343  25.757  0.00  0.00    +0.028 A 
ATOM     22  C   UNL     1      -4.204   3.500  24.872  0.00  0.00    +0.002 A 
ATOM     23  C   UNL     1      -6.194   2.647  25.945  0.00  0.00    +0.002 A 
ATOM     24  C   UNL     1      -5.428   3.725  25.502  0.00  0.00    +0.000 A 
ENDBRANCH   1  17
ENDBRANCH   6   1
ENDBRANCH  10   6
BRANCH   9  12
ATOM     12  C   UNL     1       1.847   0.491  22.783  0.00  0.00    +0.063 C 
BRANCH  12  15
ATOM      4  O   UNL     1       4.829  -1.289  23.765  0.00  0.00    -0.357 OA
ATOM      7  N   UNL     1       3.454  -1.196  23.587  0.00  0.00    -0.083 NA
ATOM     15  C   UNL     1       3.250   0.033  23.104  0.00  0.00    +0.084 A 
ATOM     16  C   UNL     1       4.447   0.754  22.958  0.00  0.00    +0.073 A 
ATOM     18  C   UNL     1       5.409  -0.121  23.388  0.00  0.00    +0.163 A 
BRANCH  18  21
ATOM     21  C   UNL     1       6.870  -0.045  23.511  0.00  0.00    +0.232 C 
BRANCH  21   5
ATOM      5  O   UNL     1       7.496  -0.702  22.406  0.00  0.00    -0.387 OA
ATOM     26  H   UNL     1       6.854  -0.703  21.677  0.00  0.00    +0.210 HD
ENDBRANCH  21   5
ENDBRANCH  18  21
ENDBRANCH  12  15
ENDBRANCH   9  12
TORSDOF 7
ENDMDL
MODEL 7
REMARK VINA RESULT:      -3.7     15.963     18.699
REMARK  Name = 56774336
REMARK  9 active torsions:
REMARK  status: ('A' for Active; 'I' for Inactive)
REMARK    1  A    between atoms: S_1  and  N_6
REMARK    2  A    between atoms: S_1  and  C_17
REMARK    3  A    between atoms: O_5  and  C_21
REMARK    4  A    between atoms: N_6  and  C_10
REMARK    5  A    between atoms: C_8  and  C_13
REMARK    6  A    between atoms: C_8  and  C_14
REMARK    7  A    between atoms: C_9  and  C_12
REMARK    8  A    between atoms: C_12  and  C_15
REMARK    9  A    between atoms: C_18  and  C_21
REMARK                            x       y       z     vdW  Elec       q    Type
REMARK                         _______ _______ _______ _____ _____    ______ ____
ROOT
ATOM      8  C   UNL     1      -5.317  -9.464  10.583  0.00  0.00    -0.015 C 
ATOM      9  C   UNL     1      -5.677  -9.440   9.083  0.00  0.00    +0.004 C 
ATOM     10  C   UNL     1      -3.842  -9.591  10.148  0.00  0.00    +0.083 C 
ATOM     11  C   UNL     1      -4.363 -10.209   8.833  0.00  0.00    +0.025 C 
ATOM     13  C   UNL     1      -5.680  -8.189  11.310  0.00  0.00    +0.013 C 
ATOM     14  C   UNL     1      -5.810 -10.669  11.363  0.00  0.00    +0.013 C 
ENDROOT
BRANCH  10   6
ATOM      6  N   UNL     1      -2.952 -10.470  10.967  0.00  0.00    -0.186 NA
ATOM     25  H   UNL     1      -3.368 -11.372  11.235  0.00  0.00    +0.148 HD
BRANCH   6   1
ATOM      1  S   UNL     1      -1.678  -9.921  11.979  0.00  0.00    +0.059 S 
ATOM      2  O   UNL     1      -1.544  -8.481  11.807  0.00  0.00    -0.153 OA
ATOM      3  O   UNL     1      -0.519 -10.781  11.779  0.00  0.00    -0.153 OA
BRANCH   1  17
ATOM     17  C   UNL     1      -2.316 -10.242  13.572  0.00  0.00    +0.105 A 
ATOM     19  C   UNL     1      -3.675 -10.509  13.739  0.00  0.00    +0.028 A 
ATOM     20  C   UNL     1      -1.467 -10.227  14.678  0.00  0.00    +0.028 A 
ATOM     22  C   UNL     1      -4.184 -10.761  15.013  0.00  0.00    +0.002 A 
ATOM     23  C   UNL     1      -1.976 -10.480  15.952  0.00  0.00    +0.002 A 
ATOM     24  C   UNL     1      -3.335 -10.747  16.119  0.00  0.00    +0.000 A 
ENDBRANCH   1  17
ENDBRANCH   6   1
ENDBRANCH  10   6
BRANCH   9  12
ATOM     12  C   UNL     1      -6.929 -10.171   8.658  0.00  0.00    +0.063 C 
BRANCH  12  15
ATOM      4  O   UNL     1     -10.114  -8.535   8.207  0.00  0.00    -0.357 OA
ATOM      7  N   UNL     1      -9.310  -9.667   8.269  0.00  0.00    -0.083 NA
ATOM     15  C   UNL     1      -8.082  -9.205   8.520  0.00  0.00    +0.084 A 
ATOM     16  C   UNL     1      -8.050  -7.804   8.626  0.00  0.00    +0.073 A 
ATOM     18  C   UNL     1      -9.352  -7.432   8.421  0.00  0.00    +0.163 A 
BRANCH  18  21
ATOM     21  C   UNL     1     -10.047  -6.140   8.390  0.00  0.00    +0.232 C 
BRANCH  21   5
ATOM      5  O   UNL     1      -9.115  -5.070   8.574  0.00  0.00    -0.387 OA
ATOM     26  H   UNL     1      -9.624  -4.243   8.538  0.00  0.00    +0.210 HD
ENDBRANCH  21   5
ENDBRANCH  18  21
ENDBRANCH  12  15
ENDBRANCH   9  12
TORSDOF 7
ENDMDL
MODEL 8
REMARK VINA RESULT:      -3.5      2.435      5.907
REMARK  Name = 56774336
REMARK  9 active torsions:
REMARK  status: ('A' for Active; 'I' for Inactive)
REMARK    1  A    between atoms: S_1  and  N_6
REMARK    2  A    between atoms: S_1  and  C_17
REMARK    3  A    between atoms: O_5  and  C_21
REMARK    4  A    between atoms: N_6  and  C_10
REMARK    5  A    between atoms: C_8  and  C_13
REMARK    6  A    between atoms: C_8  and  C_14
REMARK    7  A    between atoms: C_9  and  C_12
REMARK    8  A    between atoms: C_12  and  C_15
REMARK    9  A    between atoms: C_18  and  C_21
REMARK                            x       y       z     vdW  Elec       q    Type
REMARK                         _______ _______ _______ _____ _____    ______ ____
ROOT
ATOM      8  C   UNL     1      -3.405   3.570  24.533  0.00  0.00    -0.015 C 
ATOM      9  C   UNL     1      -4.137   2.447  23.770  0.00  0.00    +0.004 C 
ATOM     10  C   UNL     1      -2.154   3.213  23.705  0.00  0.00    +0.083 C 
ATOM     11  C   UNL     1      -2.753   1.800  23.549  0.00  0.00    +0.025 C 
ATOM     13  C   UNL     1      -3.987   4.943  24.287  0.00  0.00    +0.013 C 
ATOM     14  C   UNL     1      -3.214   3.342  26.021  0.00  0.00    +0.013 C 
ENDROOT
BRANCH  10   6
ATOM      6  N   UNL     1      -0.827   3.280  24.390  0.00  0.00    -0.186 NA
ATOM     25  H   UNL     1      -0.170   3.962  23.989  0.00  0.00    +0.148 HD
BRANCH   6   1
ATOM      1  S   UNL     1      -0.103   1.998  25.273  0.00  0.00    +0.059 S 
ATOM      2  O   UNL     1      -1.156   1.099  25.726  0.00  0.00    -0.153 OA
ATOM      3  O   UNL     1       0.826   2.564  26.242  0.00  0.00    -0.153 OA
BRANCH   1  17
ATOM     17  C   UNL     1       0.834   1.191  24.040  0.00  0.00    +0.105 A 
ATOM     19  C   UNL     1       0.281   0.126  23.329  0.00  0.00    +0.028 A 
ATOM     20  C   UNL     1       2.136   1.609  23.770  0.00  0.00    +0.028 A 
ATOM     22  C   UNL     1       1.031  -0.521  22.347  0.00  0.00    +0.002 A 
ATOM     23  C   UNL     1       2.886   0.962  22.787  0.00  0.00    +0.002 A 
ATOM     24  C   UNL     1       2.334  -0.102  22.076  0.00  0.00    +0.000 A 
ENDBRANCH   1  17
ENDBRANCH   6   1
ENDBRANCH  10   6
BRANCH   9  12
ATOM     12  C   UNL     1      -5.115   1.600  24.550  0.00  0.00    +0.063 C 
BRANCH  12  15
ATOM      4  O   UNL     1      -3.685  -1.370  26.019  0.00  0.00    -0.357 OA
ATOM      7  N   UNL     1      -4.195  -0.080  26.101  0.00  0.00    -0.083 NA
ATOM     15  C   UNL     1      -4.518   0.245  24.846  0.00  0.00    +0.084 A 
ATOM     16  C   UNL     1      -4.236  -0.791  23.939  0.00  0.00    +0.073 A 
ATOM     18  C   UNL     1      -3.715  -1.782  24.726  0.00  0.00    +0.163 A 
BRANCH  18  21
ATOM     21  C   UNL     1      -3.208  -3.133  24.457  0.00  0.00    +0.232 C 
BRANCH  21   5
ATOM      5  O   UNL     1      -1.835  -3.079  24.061  0.00  0.00    -0.387 OA
ATOM     26  H   UNL     1      -1.320  -2.857  24.855  0.00  0.00    +0.210 HD
ENDBRANCH  21   5
ENDBRANCH  18  21
ENDBRANCH  12  15
ENDBRANCH   9  12
TORSDOF 7
ENDMDL
MODEL 9
REMARK VINA RESULT:      -3.0      2.243      5.192
REMARK  Name = 56774336
REMARK  9 active torsions:
REMARK  status: ('A' for Active; 'I' for Inactive)
REMARK    1  A    between atoms: S_1  and  N_6
REMARK    2  A    between atoms: S_1  and  C_17
REMARK    3  A    between atoms: O_5  and  C_21
REMARK    4  A    between atoms: N_6  and  C_10
REMARK    5  A    between atoms: C_8  and  C_13
REMARK    6  A    between atoms: C_8  and  C_14
REMARK    7  A    between atoms: C_9  and  C_12
REMARK    8  A    between atoms: C_12  and  C_15
REMARK    9  A    between atoms: C_18  and  C_21
REMARK                            x       y       z     vdW  Elec       q    Type
REMARK                         _______ _______ _______ _____ _____    ______ ____
ROOT
ATOM      8  C   UNL     1       0.111   0.156  23.342  0.00  0.00    -0.015 C 
ATOM      9  C   UNL     1      -0.298  -0.782  24.498  0.00  0.00    +0.004 C 
ATOM     10  C   UNL     1       0.344   1.244  24.410  0.00  0.00    +0.083 C 
ATOM     11  C   UNL     1      -0.669   0.487  25.294  0.00  0.00    +0.025 C 
ATOM     13  C   UNL     1       1.341  -0.309  22.597  0.00  0.00    +0.013 C 
ATOM     14  C   UNL     1      -0.990   0.515  22.362  0.00  0.00    +0.013 C 
ENDROOT
BRANCH  10   6
ATOM      6  N   UNL     1      -0.028   2.649  24.059  0.00  0.00    -0.186 NA
ATOM     25  H   UNL     1       0.393   3.001  23.190  0.00  0.00    +0.148 HD
BRANCH   6   1
ATOM      1  S   UNL     1      -0.505   3.857  25.183  0.00  0.00    +0.059 S 
ATOM      2  O   UNL     1      -0.056   5.150  24.686  0.00  0.00    -0.153 OA
ATOM      3  O   UNL     1      -0.120   3.428  26.521  0.00  0.00    -0.153 OA
BRANCH   1  17
ATOM     17  C   UNL     1      -2.246   3.785  25.077  0.00  0.00    +0.105 A 
ATOM     19  C   UNL     1      -2.858   3.434  23.874  0.00  0.00    +0.028 A 
ATOM     20  C   UNL     1      -3.024   4.085  26.195  0.00  0.00    +0.028 A 
ATOM     22  C   UNL     1      -4.249   3.381  23.789  0.00  0.00    +0.002 A 
ATOM     23  C   UNL     1      -4.416   4.032  26.109  0.00  0.00    +0.002 A 
ATOM     24  C   UNL     1      -5.028   3.680  24.907  0.00  0.00    +0.000 A 
ENDBRANCH   1  17
ENDBRANCH   6   1
ENDBRANCH  10   6
BRANCH   9  12
ATOM     12  C   UNL     1      -1.446  -1.732  24.248  0.00  0.00    +0.063 C 
BRANCH  12  15
ATOM      4  O   UNL     1      -4.339  -0.675  26.128  0.00  0.00    -0.357 OA
ATOM      7  N   UNL     1      -3.135  -1.358  26.003  0.00  0.00    -0.083 NA
ATOM     15  C   UNL     1      -2.740  -1.134  24.746  0.00  0.00    +0.084 A 
ATOM     16  C   UNL     1      -3.646  -0.326  24.038  0.00  0.00    +0.073 A 
ATOM     18  C   UNL     1      -4.632  -0.065  24.952  0.00  0.00    +0.163 A 
BRANCH  18  21
ATOM     21  C   UNL     1      -5.880   0.707  24.907  0.00  0.00    +0.232 C 
BRANCH  21   5
ATOM      5  O   UNL     1      -6.217   1.183  26.213  0.00  0.00    -0.387 OA
ATOM     26  H   UNL     1      -5.767   0.602  26.850  0.00  0.00    +0.210 HD
ENDBRANCH  21   5
ENDBRANCH  18  21
ENDBRANCH  12  15
ENDBRANCH   9  12
TORSDOF 7
ENDMDL
MODEL 10
REMARK VINA RESULT:      -2.9      2.119      5.827
REMARK  Name = 56774336
REMARK  9 active torsions:
REMARK  status: ('A' for Active; 'I' for Inactive)
REMARK    1  A    between atoms: S_1  and  N_6
REMARK    2  A    between atoms: S_1  and  C_17
REMARK    3  A    between atoms: O_5  and  C_21
REMARK    4  A    between atoms: N_6  and  C_10
REMARK    5  A    between atoms: C_8  and  C_13
REMARK    6  A    between atoms: C_8  and  C_14
REMARK    7  A    between atoms: C_9  and  C_12
REMARK    8  A    between atoms: C_12  and  C_15
REMARK    9  A    between atoms: C_18  and  C_21
REMARK                            x       y       z     vdW  Elec       q    Type
REMARK                         _______ _______ _______ _____ _____    ______ ____
ROOT
ATOM      8  C   UNL     1      -3.549  -1.060  24.242  0.00  0.00    -0.015 C 
ATOM      9  C   UNL     1      -4.291  -0.405  25.426  0.00  0.00    +0.004 C 
ATOM     10  C   UNL     1      -2.262  -0.944  25.084  0.00  0.00    +0.083 C 
ATOM     11  C   UNL     1      -2.941   0.229  25.821  0.00  0.00    +0.025 C 
ATOM     13  C   UNL     1      -4.016  -2.468  23.945  0.00  0.00    +0.013 C 
ATOM     14  C   UNL     1      -3.496  -0.247  22.963  0.00  0.00    +0.013 C 
ENDROOT
BRANCH  10   6
ATOM      6  N   UNL     1      -0.994  -0.610  24.367  0.00  0.00    -0.186 NA
ATOM     25  H   UNL     1      -0.308  -1.375  24.327  0.00  0.00    +0.148 HD
BRANCH   6   1
ATOM      1  S   UNL     1      -0.340   0.969  24.195  0.00  0.00    +0.059 S 
ATOM      2  O   UNL     1       0.026   1.462  25.516  0.00  0.00    -0.153 OA
ATOM      3  O   UNL     1      -1.234   1.756  23.356  0.00  0.00    -0.153 OA
BRANCH   1  17
ATOM     17  C   UNL     1       1.117   0.662  23.284  0.00  0.00    +0.105 A 
ATOM     19  C   UNL     1       1.105  -0.260  22.238  0.00  0.00    +0.028 A 
ATOM     20  C   UNL     1       2.295   1.335  23.607  0.00  0.00    +0.028 A 
ATOM     22  C   UNL     1       2.271  -0.509  21.514  0.00  0.00    +0.002 A 
ATOM     23  C   UNL     1       3.461   1.087  22.883  0.00  0.00    +0.002 A 
ATOM     24  C   UNL     1       3.449   0.165  21.836  0.00  0.00    +0.000 A 
ENDBRANCH   1  17
ENDBRANCH   6   1
ENDBRANCH  10   6
BRANCH   9  12
ATOM     12  C   UNL     1      -5.383   0.585  25.097  0.00  0.00    +0.063 C 
BRANCH  12  15
ATOM      4  O   UNL     1      -4.887   4.004  26.140  0.00  0.00    -0.357 OA
ATOM      7  N   UNL     1      -5.593   2.807  26.143  0.00  0.00    -0.083 NA
ATOM     15  C   UNL     1      -4.903   1.997  25.335  0.00  0.00    +0.084 A 
ATOM     16  C   UNL     1      -3.764   2.623  24.799  0.00  0.00    +0.073 A 
ATOM     18  C   UNL     1      -3.801   3.882  25.336  0.00  0.00    +0.163 A 
BRANCH  18  21
ATOM     21  C   UNL     1      -2.937   5.063  25.217  0.00  0.00    +0.232 C 
BRANCH  21   5
ATOM      5  O   UNL     1      -1.565   4.693  25.379  0.00  0.00    -0.387 OA
ATOM     26  H   UNL     1      -1.551   3.898  25.940  0.00  0.00    +0.210 HD
ENDBRANCH  21   5
ENDBRANCH  18  21
ENDBRANCH  12  15
ENDBRANCH   9  12
TORSDOF 7
ENDMDL
