MODEL 1
REMARK VINA RESULT:       6.3      0.000      0.000
REMARK  Name = 45361336
REMARK  13 active torsions:
REMARK  status: ('A' for Active; 'I' for Inactive)
REMARK    1  A    between atoms: O_2  and  C_11
REMARK    2  A    between atoms: N_6  and  C_25
REMARK    3  A    between atoms: N_6  and  C_26
REMARK    4  A    between atoms: N_8  and  C_29
REMARK    5  A    between atoms: N_8  and  C_31
REMARK    6  A    between atoms: N_8  and  C_32
REMARK    7  A    between atoms: C_9  and  C_17
REMARK    8  A    between atoms: C_12  and  C_18
REMARK    9  A    between atoms: C_14  and  C_21
REMARK   10  A    between atoms: C_18  and  C_22
REMARK   11  A    between atoms: C_18  and  C_23
REMARK   12  A    between atoms: C_25  and  C_28
REMARK   13  A    between atoms: C_27  and  C_29
REMARK                            x       y       z     vdW  Elec       q    Type
REMARK                         _______ _______ _______ _____ _____    ______ ____
ROOT
ATOM      1  S   UNL     1       1.324  -1.879  24.000  0.00  0.00    -0.057 S 
ATOM      4  O   UNL     1       3.887   1.658  22.313  0.00  0.00    -0.274 OA
ATOM      5  N   UNL     1       1.236   0.608  23.294  0.00  0.00    -0.229 NA
ATOM      7  N   UNL     1       3.360  -0.510  23.077  0.00  0.00    -0.264 N 
ATOM      9  C   UNL     1      -2.406  -0.574  25.141  0.00  0.00    -0.022 C 
ATOM     10  C   UNL     1      -2.544   0.528  24.019  0.00  0.00    +0.033 C 
ATOM     11  C   UNL     1      -3.705   1.514  24.331  0.00  0.00    +0.123 C 
ATOM     12  C   UNL     1      -5.037   0.793  24.633  0.00  0.00    +0.029 C 
ATOM     13  C   UNL     1      -3.773  -1.262  25.367  0.00  0.00    +0.008 C 
ATOM     14  C   UNL     1      -1.166   1.250  23.725  0.00  0.00    +0.042 C 
ATOM     15  C   UNL     1      -4.888  -0.283  25.709  0.00  0.00    +0.007 C 
ATOM     16  C   UNL     1      -1.400  -1.674  24.680  0.00  0.00    +0.051 C 
ATOM     17  C   UNL     1      -1.917   0.024  26.486  0.00  0.00    +0.012 C 
ATOM     19  C   UNL     1      -0.036   0.248  23.706  0.00  0.00    +0.057 A 
ATOM     20  C   UNL     1      -0.158  -1.053  24.147  0.00  0.00    +0.015 A 
ATOM     21  C   UNL     1      -1.171   2.057  22.417  0.00  0.00    +0.014 C 
ATOM     24  C   UNL     1       2.029  -0.436  23.394  0.00  0.00    +0.165 A 
ATOM     27  C   UNL     1       4.216   0.503  22.565  0.00  0.00    +0.233 C 
ATOM     34  H   UNL     1       3.770  -1.428  23.234  0.00  0.00    +0.157 HD
ENDROOT
BRANCH  11   2
ATOM      2  O   UNL     1      -3.927   2.358  23.202  0.00  0.00    -0.391 OA
ATOM     33  H   UNL     1      -3.669   1.867  22.404  0.00  0.00    +0.210 HD
ENDBRANCH  11   2
BRANCH  12  18
ATOM     18  C   UNL     1      -6.139   1.778  25.042  0.00  0.00    +0.078 C 
ATOM     22  C   UNL     1      -6.350   2.800  23.924  0.00  0.00    +0.017 C 
BRANCH  18  23
ATOM      3  O   UNL     1      -6.362   2.186  27.391  0.00  0.00    -0.275 OA
ATOM      6  N   UNL     1      -4.729   3.421  26.312  0.00  0.00    -0.301 N 
ATOM     23  C   UNL     1      -5.753   2.470  26.353  0.00  0.00    +0.219 C 
ATOM     26  C   UNL     1      -4.352   4.114  27.539  0.00  0.00    +0.132 C 
BRANCH   6  25
ATOM     25  C   UNL     1      -3.939   3.788  25.138  0.00  0.00    +0.134 C 
BRANCH  25  28
ATOM     28  C   UNL     1      -2.793   4.643  25.568  0.00  0.00    -0.016 C 
ATOM     30  C   UNL     1      -1.529   4.442  25.183  0.00  0.00    +0.005 C 
ENDBRANCH  25  28
ENDBRANCH   6  25
ENDBRANCH  18  23
ENDBRANCH  12  18
BRANCH  27  29
ATOM     29  C   UNL     1       5.628  -0.012  22.346  0.00  0.00    +0.180 C 
BRANCH  29   8
ATOM      8  N   UNL     1       6.198  -0.420  23.622  0.00  0.00    -0.300 NA
ATOM     31  C   UNL     1       5.936   0.587  24.652  0.00  0.00    +0.105 C 
ATOM     32  C   UNL     1       5.663  -1.719  24.037  0.00  0.00    +0.105 C 
ENDBRANCH  29   8
ENDBRANCH  27  29
TORSDOF 7
ENDMDL
MODEL 2
REMARK VINA RESULT:       9.8      1.575      1.969
REMARK  Name = 45361336
REMARK  13 active torsions:
REMARK  status: ('A' for Active; 'I' for Inactive)
REMARK    1  A    between atoms: O_2  and  C_11
REMARK    2  A    between atoms: N_6  and  C_25
REMARK    3  A    between atoms: N_6  and  C_26
REMARK    4  A    between atoms: N_8  and  C_29
REMARK    5  A    between atoms: N_8  and  C_31
REMARK    6  A    between atoms: N_8  and  C_32
REMARK    7  A    between atoms: C_9  and  C_17
REMARK    8  A    between atoms: C_12  and  C_18
REMARK    9  A    between atoms: C_14  and  C_21
REMARK   10  A    between atoms: C_18  and  C_22
REMARK   11  A    between atoms: C_18  and  C_23
REMARK   12  A    between atoms: C_25  and  C_28
REMARK   13  A    between atoms: C_27  and  C_29
REMARK                            x       y       z     vdW  Elec       q    Type
REMARK                         _______ _______ _______ _____ _____    ______ ____
ROOT
ATOM      1  S   UNL     1       1.092  -0.861  22.114  0.00  0.00    -0.057 S 
ATOM      4  O   UNL     1       4.741   1.400  23.984  0.00  0.00    -0.274 OA
ATOM      5  N   UNL     1       1.767   0.914  23.869  0.00  0.00    -0.229 NA
ATOM      7  N   UNL     1       3.550  -0.083  22.591  0.00  0.00    -0.264 N 
ATOM      9  C   UNL     1      -2.362  -0.045  24.193  0.00  0.00    -0.022 C 
ATOM     10  C   UNL     1      -1.983   1.442  24.561  0.00  0.00    +0.033 C 
ATOM     11  C   UNL     1      -2.907   2.003  25.679  0.00  0.00    +0.123 C 
ATOM     12  C   UNL     1      -4.408   1.827  25.358  0.00  0.00    +0.029 C 
ATOM     13  C   UNL     1      -3.871  -0.132  23.864  0.00  0.00    +0.008 C 
ATOM     14  C   UNL     1      -0.440   1.599  24.883  0.00  0.00    +0.042 C 
ATOM     15  C   UNL     1      -4.760   0.386  24.986  0.00  0.00    +0.007 C 
ATOM     16  C   UNL     1      -1.580  -0.488  22.916  0.00  0.00    +0.051 C 
ATOM     17  C   UNL     1      -2.042  -1.031  25.346  0.00  0.00    +0.012 C 
ATOM     19  C   UNL     1       0.388   0.797  23.907  0.00  0.00    +0.057 A 
ATOM     20  C   UNL     1      -0.139  -0.140  23.042  0.00  0.00    +0.015 A 
ATOM     21  C   UNL     1       0.032   3.060  24.892  0.00  0.00    +0.014 C 
ATOM     24  C   UNL     1       2.241   0.098  22.953  0.00  0.00    +0.165 A 
ATOM     27  C   UNL     1       4.716   0.550  23.100  0.00  0.00    +0.233 C 
ATOM     34  H   UNL     1       3.680  -0.769  21.851  0.00  0.00    +0.157 HD
ENDROOT
BRANCH  11   2
ATOM      2  O   UNL     1      -2.670   3.401  25.835  0.00  0.00    -0.391 OA
ATOM     33  H   UNL     1      -2.360   3.751  24.982  0.00  0.00    +0.210 HD
ENDBRANCH  11   2
BRANCH  12  18
ATOM     18  C   UNL     1      -5.297   2.288  26.520  0.00  0.00    +0.078 C 
ATOM     22  C   UNL     1      -6.270   1.170  26.893  0.00  0.00    +0.017 C 
BRANCH  18  23
ATOM      3  O   UNL     1      -7.157   3.793  26.618  0.00  0.00    -0.275 OA
ATOM      6  N   UNL     1      -5.447   4.408  25.186  0.00  0.00    -0.301 N 
ATOM     23  C   UNL     1      -6.049   3.561  26.122  0.00  0.00    +0.219 C 
ATOM     26  C   UNL     1      -6.147   5.619  24.769  0.00  0.00    +0.132 C 
BRANCH   6  25
ATOM     25  C   UNL     1      -4.130   4.227  24.580  0.00  0.00    +0.134 C 
BRANCH  25  28
ATOM     28  C   UNL     1      -4.284   4.111  23.100  0.00  0.00    -0.016 C 
ATOM     30  C   UNL     1      -3.616   3.229  22.348  0.00  0.00    +0.005 C 
ENDBRANCH  25  28
ENDBRANCH   6  25
ENDBRANCH  18  23
ENDBRANCH  12  18
BRANCH  27  29
ATOM     29  C   UNL     1       5.973   0.055  22.405  0.00  0.00    +0.180 C 
BRANCH  29   8
ATOM      8  N   UNL     1       6.958  -0.334  23.404  0.00  0.00    -0.300 NA
ATOM     31  C   UNL     1       6.397  -1.325  24.326  0.00  0.00    +0.105 C 
ATOM     32  C   UNL     1       8.163  -0.865  22.763  0.00  0.00    +0.105 C 
ENDBRANCH  29   8
ENDBRANCH  27  29
TORSDOF 7
ENDMDL
