MODEL 1
REMARK VINA RESULT:      -5.5      0.000      0.000
REMARK  Name = 75536738
REMARK  10 active torsions:
REMARK  status: ('A' for Active; 'I' for Inactive)
REMARK    1  A    between atoms: O_2  and  C_10
REMARK    2  A    between atoms: N_4  and  C_9
REMARK    3  A    between atoms: N_4  and  C_14
REMARK    4  A    between atoms: N_5  and  C_13
REMARK    5  A    between atoms: N_6  and  C_19
REMARK    6  A    between atoms: N_7  and  C_17
REMARK    7  A    between atoms: C_11  and  C_13
REMARK    8  A    between atoms: C_14  and  C_15
REMARK    9  A    between atoms: C_17  and  C_21
REMARK   10  A    between atoms: C_17  and  C_22
REMARK                            x       y       z     vdW  Elec       q    Type
REMARK                         _______ _______ _______ _____ _____    ______ ____
ROOT
ATOM      1  O   UNL     1       0.138   3.400  23.650  0.00  0.00    -0.371 OA
ATOM      9  C   UNL     1      -0.938   3.814  25.726  0.00  0.00    +0.111 C 
ATOM     10  C   UNL     1      -0.567   2.345  25.645  0.00  0.00    +0.164 C 
ATOM     11  C   UNL     1       0.521   2.376  24.582  0.00  0.00    +0.165 C 
ATOM     12  C   UNL     1      -0.870   4.223  24.264  0.00  0.00    +0.181 C 
ENDROOT
BRANCH  10   2
ATOM      2  O   UNL     1      -0.090   1.835  26.875  0.00  0.00    -0.388 OA
ATOM     24  H   UNL     1      -0.635   1.068  27.121  0.00  0.00    +0.210 HD
ENDBRANCH  10   2
BRANCH   9   4
ATOM      4  N   UNL     1      -2.243   4.056  26.321  0.00  0.00    -0.302 NA
ATOM     23  H   UNL     1      -2.188   4.877  26.925  0.00  0.00    +0.123 HD
BRANCH   4  14
ATOM     14  C   UNL     1      -3.252   4.288  25.296  0.00  0.00    +0.156 C 
BRANCH  14  15
ATOM      6  N   UNL     1      -4.408   2.246  24.388  0.00  0.00    -0.336 N 
ATOM      8  N   UNL     1      -5.298   3.149  26.212  0.00  0.00    -0.239 NA
ATOM     15  C   UNL     1      -4.333   3.240  25.324  0.00  0.00    +0.123 A 
ATOM     18  C   UNL     1      -5.490   1.472  24.698  0.00  0.00    +0.106 A 
ATOM     19  C   UNL     1      -3.517   2.038  23.271  0.00  0.00    +0.150 C 
ATOM     20  C   UNL     1      -6.023   2.048  25.827  0.00  0.00    +0.130 A 
ENDBRANCH  14  15
ENDBRANCH   4  14
ENDBRANCH   9   4
BRANCH  11  13
ATOM     13  C   UNL     1       0.686   1.054  23.853  0.00  0.00    +0.140 C 
BRANCH  13   5
ATOM      3  O   UNL     1      -0.481  -1.003  25.505  0.00  0.00    -0.253 OA
ATOM      5  N   UNL     1      -0.577   0.404  23.659  0.00  0.00    -0.297 N 
ATOM      7  N   UNL     1      -2.319  -1.048  24.090  0.00  0.00    -0.297 N 
ATOM     16  C   UNL     1      -1.073  -0.589  24.510  0.00  0.00    +0.300 C 
ATOM     25  H   UNL     1      -1.135   0.669  22.853  0.00  0.00    +0.150 HD
ATOM     26  H   UNL     1      -2.761  -0.589  23.299  0.00  0.00    +0.150 HD
BRANCH   7  17
ATOM     17  C   UNL     1      -3.052  -2.074  24.794  0.00  0.00    +0.068 C 
ATOM     21  C   UNL     1      -4.162  -2.630  23.911  0.00  0.00    +0.027 C 
ATOM     22  C   UNL     1      -3.608  -1.531  26.104  0.00  0.00    +0.027 C 
ENDBRANCH   7  17
ENDBRANCH  13   5
ENDBRANCH  11  13
TORSDOF 7
ENDMDL
MODEL 2
REMARK VINA RESULT:      -4.7      2.005      4.550
REMARK  Name = 75536738
REMARK  10 active torsions:
REMARK  status: ('A' for Active; 'I' for Inactive)
REMARK    1  A    between atoms: O_2  and  C_10
REMARK    2  A    between atoms: N_4  and  C_9
REMARK    3  A    between atoms: N_4  and  C_14
REMARK    4  A    between atoms: N_5  and  C_13
REMARK    5  A    between atoms: N_6  and  C_19
REMARK    6  A    between atoms: N_7  and  C_17
REMARK    7  A    between atoms: C_11  and  C_13
REMARK    8  A    between atoms: C_14  and  C_15
REMARK    9  A    between atoms: C_17  and  C_21
REMARK   10  A    between atoms: C_17  and  C_22
REMARK                            x       y       z     vdW  Elec       q    Type
REMARK                         _______ _______ _______ _____ _____    ______ ____
ROOT
ATOM      1  O   UNL     1      -1.894   2.657  23.278  0.00  0.00    -0.371 OA
ATOM      9  C   UNL     1      -4.104   2.325  24.082  0.00  0.00    +0.111 C 
ATOM     10  C   UNL     1      -3.214   2.742  25.238  0.00  0.00    +0.164 C 
ATOM     11  C   UNL     1      -2.059   3.401  24.496  0.00  0.00    +0.165 C 
ATOM     12  C   UNL     1      -3.075   1.865  23.062  0.00  0.00    +0.181 C 
ENDROOT
BRANCH  10   2
ATOM      2  O   UNL     1      -3.854   3.642  26.122  0.00  0.00    -0.388 OA
ATOM     24  H   UNL     1      -3.380   4.490  26.093  0.00  0.00    +0.210 HD
ENDBRANCH  10   2
BRANCH   9   4
ATOM      4  N   UNL     1      -5.061   1.286  24.428  0.00  0.00    -0.302 NA
ATOM     23  H   UNL     1      -5.265   0.730  23.596  0.00  0.00    +0.123 HD
BRANCH   4  14
ATOM     14  C   UNL     1      -4.533   0.409  25.465  0.00  0.00    +0.156 C 
BRANCH  14  15
ATOM      6  N   UNL     1      -2.765  -1.368  25.244  0.00  0.00    -0.336 N 
ATOM      8  N   UNL     1      -4.600  -1.650  24.024  0.00  0.00    -0.239 NA
ATOM     15  C   UNL     1      -3.992  -0.874  24.893  0.00  0.00    +0.123 A 
ATOM     18  C   UNL     1      -2.580  -2.532  24.555  0.00  0.00    +0.106 A 
ATOM     19  C   UNL     1      -1.827  -0.781  26.171  0.00  0.00    +0.150 C 
ATOM     20  C   UNL     1      -3.725  -2.686  23.808  0.00  0.00    +0.130 A 
ENDBRANCH  14  15
ENDBRANCH   4  14
ENDBRANCH   9   4
BRANCH  11  13
ATOM     13  C   UNL     1      -0.760   3.397  25.281  0.00  0.00    +0.140 C 
BRANCH  13   5
ATOM      3  O   UNL     1       0.148   0.714  24.729  0.00  0.00    -0.253 OA
ATOM      5  N   UNL     1       0.348   3.012  24.455  0.00  0.00    -0.297 N 
ATOM      7  N   UNL     1       1.830   1.594  23.396  0.00  0.00    -0.297 N 
ATOM     16  C   UNL     1       0.724   1.683  24.237  0.00  0.00    +0.300 C 
ATOM     25  H   UNL     1       0.897   3.745  24.015  0.00  0.00    +0.150 HD
ATOM     26  H   UNL     1       2.189   2.449  22.980  0.00  0.00    +0.150 HD
BRANCH   7  17
ATOM     17  C   UNL     1       2.421   0.334  23.010  0.00  0.00    +0.068 C 
ATOM     21  C   UNL     1       3.885   0.529  22.640  0.00  0.00    +0.027 C 
ATOM     22  C   UNL     1       1.639  -0.294  21.865  0.00  0.00    +0.027 C 
ENDBRANCH   7  17
ENDBRANCH  13   5
ENDBRANCH  11  13
TORSDOF 7
ENDMDL
MODEL 3
REMARK VINA RESULT:      -4.2      1.959      4.338
REMARK  Name = 75536738
REMARK  10 active torsions:
REMARK  status: ('A' for Active; 'I' for Inactive)
REMARK    1  A    between atoms: O_2  and  C_10
REMARK    2  A    between atoms: N_4  and  C_9
REMARK    3  A    between atoms: N_4  and  C_14
REMARK    4  A    between atoms: N_5  and  C_13
REMARK    5  A    between atoms: N_6  and  C_19
REMARK    6  A    between atoms: N_7  and  C_17
REMARK    7  A    between atoms: C_11  and  C_13
REMARK    8  A    between atoms: C_14  and  C_15
REMARK    9  A    between atoms: C_17  and  C_21
REMARK   10  A    between atoms: C_17  and  C_22
REMARK                            x       y       z     vdW  Elec       q    Type
REMARK                         _______ _______ _______ _____ _____    ______ ____
ROOT
ATOM      1  O   UNL     1      -3.944   3.977  26.148  0.00  0.00    -0.371 OA
ATOM      9  C   UNL     1      -2.034   4.102  24.742  0.00  0.00    +0.111 C 
ATOM     10  C   UNL     1      -2.876   2.911  24.327  0.00  0.00    +0.164 C 
ATOM     11  C   UNL     1      -4.227   3.287  24.920  0.00  0.00    +0.165 C 
ATOM     12  C   UNL     1      -2.560   4.369  26.143  0.00  0.00    +0.181 C 
ENDROOT
BRANCH  10   2
ATOM      2  O   UNL     1      -2.942   2.753  22.923  0.00  0.00    -0.388 OA
ATOM     24  H   UNL     1      -3.847   2.963  22.633  0.00  0.00    +0.210 HD
ENDBRANCH  10   2
BRANCH   9   4
ATOM      4  N   UNL     1      -0.603   3.843  24.716  0.00  0.00    -0.302 NA
ATOM     23  H   UNL     1      -0.110   4.651  25.099  0.00  0.00    +0.123 HD
BRANCH   4  14
ATOM     14  C   UNL     1      -0.268   2.665  25.506  0.00  0.00    +0.156 C 
BRANCH  14  15
ATOM      6  N   UNL     1      -0.266   0.224  24.898  0.00  0.00    -0.336 N 
ATOM      8  N   UNL     1       0.897   1.568  23.566  0.00  0.00    -0.239 NA
ATOM     15  C   UNL     1       0.138   1.504  24.637  0.00  0.00    +0.123 A 
ATOM     18  C   UNL     1       0.269  -0.579  23.931  0.00  0.00    +0.106 A 
ATOM     19  C   UNL     1      -1.104  -0.216  25.988  0.00  0.00    +0.150 C 
ATOM     20  C   UNL     1       0.983   0.273  23.121  0.00  0.00    +0.130 A 
ENDBRANCH  14  15
ENDBRANCH   4  14
ENDBRANCH   9   4
BRANCH  11  13
ATOM     13  C   UNL     1      -5.116   2.087  25.198  0.00  0.00    +0.140 C 
BRANCH  13   5
ATOM      3  O   UNL     1      -4.381  -0.512  26.213  0.00  0.00    -0.253 OA
ATOM      5  N   UNL     1      -4.705   0.945  24.433  0.00  0.00    -0.297 N 
ATOM      7  N   UNL     1      -4.003  -1.218  24.035  0.00  0.00    -0.297 N 
ATOM     16  C   UNL     1      -4.364  -0.285  25.004  0.00  0.00    +0.300 C 
ATOM     25  H   UNL     1      -4.646   1.039  23.423  0.00  0.00    +0.150 HD
ATOM     26  H   UNL     1      -4.095  -0.957  23.058  0.00  0.00    +0.150 HD
BRANCH   7  17
ATOM     17  C   UNL     1      -3.607  -2.568  24.359  0.00  0.00    +0.068 C 
ATOM     21  C   UNL     1      -2.102  -2.732  24.189  0.00  0.00    +0.027 C 
ATOM     22  C   UNL     1      -4.372  -3.570  23.504  0.00  0.00    +0.027 C 
ENDBRANCH   7  17
ENDBRANCH  13   5
ENDBRANCH  11  13
TORSDOF 7
ENDMDL
MODEL 4
REMARK VINA RESULT:      -4.0      1.900      4.434
REMARK  Name = 75536738
REMARK  10 active torsions:
REMARK  status: ('A' for Active; 'I' for Inactive)
REMARK    1  A    between atoms: O_2  and  C_10
REMARK    2  A    between atoms: N_4  and  C_9
REMARK    3  A    between atoms: N_4  and  C_14
REMARK    4  A    between atoms: N_5  and  C_13
REMARK    5  A    between atoms: N_6  and  C_19
REMARK    6  A    between atoms: N_7  and  C_17
REMARK    7  A    between atoms: C_11  and  C_13
REMARK    8  A    between atoms: C_14  and  C_15
REMARK    9  A    between atoms: C_17  and  C_21
REMARK   10  A    between atoms: C_17  and  C_22
REMARK                            x       y       z     vdW  Elec       q    Type
REMARK                         _______ _______ _______ _____ _____    ______ ____
ROOT
ATOM      1  O   UNL     1      -1.403  -2.387  23.678  0.00  0.00    -0.371 OA
ATOM      9  C   UNL     1      -0.002  -0.701  24.593  0.00  0.00    +0.111 C 
ATOM     10  C   UNL     1      -1.233  -0.849  25.467  0.00  0.00    +0.164 C 
ATOM     11  C   UNL     1      -1.704  -2.243  25.076  0.00  0.00    +0.165 C 
ATOM     12  C   UNL     1      -0.467  -1.360  23.305  0.00  0.00    +0.181 C 
ENDROOT
BRANCH  10   2
ATOM      2  O   UNL     1      -0.935  -0.761  26.847  0.00  0.00    -0.388 OA
ATOM     24  H   UNL     1       0.031  -0.784  26.955  0.00  0.00    +0.210 HD
ENDBRANCH  10   2
BRANCH   9   4
ATOM      4  N   UNL     1       0.417   0.678  24.403  0.00  0.00    -0.302 NA
ATOM     23  H   UNL     1       1.341   0.690  23.969  0.00  0.00    +0.123 HD
BRANCH   4  14
ATOM     14  C   UNL     1      -0.517   1.397  23.545  0.00  0.00    +0.156 C 
BRANCH  14  15
ATOM      6  N   UNL     1      -2.282   3.166  23.843  0.00  0.00    -0.336 N 
ATOM      8  N   UNL     1      -0.572   3.236  25.260  0.00  0.00    -0.239 NA
ATOM     15  C   UNL     1      -1.100   2.601  24.236  0.00  0.00    +0.123 A 
ATOM     18  C   UNL     1      -2.524   4.227  24.668  0.00  0.00    +0.106 A 
ATOM     19  C   UNL     1      -3.131   2.732  22.759  0.00  0.00    +0.150 C 
ATOM     20  C   UNL     1      -1.455   4.251  25.534  0.00  0.00    +0.130 A 
ENDBRANCH  14  15
ENDBRANCH   4  14
ENDBRANCH   9   4
BRANCH  11  13
ATOM     13  C   UNL     1      -3.188  -2.462  25.307  0.00  0.00    +0.140 C 
BRANCH  13   5
ATOM      3  O   UNL     1      -4.199  -0.288  23.703  0.00  0.00    -0.253 OA
ATOM      5  N   UNL     1      -3.826  -1.266  25.777  0.00  0.00    -0.297 N 
ATOM      7  N   UNL     1      -4.865   0.791  25.646  0.00  0.00    -0.297 N 
ATOM     16  C   UNL     1      -4.290  -0.255  24.929  0.00  0.00    +0.300 C 
ATOM     25  H   UNL     1      -3.933  -1.140  26.779  0.00  0.00    +0.150 HD
ATOM     26  H   UNL     1      -4.962   0.690  26.652  0.00  0.00    +0.150 HD
BRANCH   7  17
ATOM     17  C   UNL     1      -5.424   1.961  25.010  0.00  0.00    +0.068 C 
ATOM     21  C   UNL     1      -5.342   3.160  25.946  0.00  0.00    +0.027 C 
ATOM     22  C   UNL     1      -6.858   1.699  24.572  0.00  0.00    +0.027 C 
ENDBRANCH   7  17
ENDBRANCH  13   5
ENDBRANCH  11  13
TORSDOF 7
ENDMDL
MODEL 5
REMARK VINA RESULT:      -3.9      2.698      4.937
REMARK  Name = 75536738
REMARK  10 active torsions:
REMARK  status: ('A' for Active; 'I' for Inactive)
REMARK    1  A    between atoms: O_2  and  C_10
REMARK    2  A    between atoms: N_4  and  C_9
REMARK    3  A    between atoms: N_4  and  C_14
REMARK    4  A    between atoms: N_5  and  C_13
REMARK    5  A    between atoms: N_6  and  C_19
REMARK    6  A    between atoms: N_7  and  C_17
REMARK    7  A    between atoms: C_11  and  C_13
REMARK    8  A    between atoms: C_14  and  C_15
REMARK    9  A    between atoms: C_17  and  C_21
REMARK   10  A    between atoms: C_17  and  C_22
REMARK                            x       y       z     vdW  Elec       q    Type
REMARK                         _______ _______ _______ _____ _____    ______ ____
ROOT
ATOM      1  O   UNL     1      -0.421   0.661  25.186  0.00  0.00    -0.371 OA
ATOM      9  C   UNL     1      -2.299  -0.717  25.648  0.00  0.00    +0.111 C 
ATOM     10  C   UNL     1      -1.721  -1.104  24.299  0.00  0.00    +0.164 C 
ATOM     11  C   UNL     1      -0.309  -0.546  24.415  0.00  0.00    +0.165 C 
ATOM     12  C   UNL     1      -1.699   0.665  25.847  0.00  0.00    +0.181 C 
ENDROOT
BRANCH  10   2
ATOM      2  O   UNL     1      -1.720  -2.503  24.088  0.00  0.00    -0.388 OA
ATOM     24  H   UNL     1      -1.803  -2.943  24.950  0.00  0.00    +0.210 HD
ENDBRANCH  10   2
BRANCH   9   4
ATOM      4  N   UNL     1      -3.754  -0.712  25.679  0.00  0.00    -0.302 NA
ATOM     23  H   UNL     1      -4.068  -0.204  26.507  0.00  0.00    +0.123 HD
BRANCH   4  14
ATOM     14  C   UNL     1      -4.302  -0.068  24.492  0.00  0.00    +0.156 C 
BRANCH  14  15
ATOM      6  N   UNL     1      -3.884   2.355  23.962  0.00  0.00    -0.336 N 
ATOM      8  N   UNL     1      -5.332   1.943  25.595  0.00  0.00    -0.239 NA
ATOM     15  C   UNL     1      -4.527   1.405  24.706  0.00  0.00    +0.123 A 
ATOM     18  C   UNL     1      -4.307   3.577  24.403  0.00  0.00    +0.106 A 
ATOM     19  C   UNL     1      -2.932   2.127  22.900  0.00  0.00    +0.150 C 
ATOM     20  C   UNL     1      -5.200   3.297  25.411  0.00  0.00    +0.130 A 
ENDBRANCH  14  15
ENDBRANCH   4  14
ENDBRANCH   9   4
BRANCH  11  13
ATOM     13  C   UNL     1       0.328  -0.241  23.072  0.00  0.00    +0.140 C 
BRANCH  13   5
ATOM      3  O   UNL     1       2.646   1.458  23.330  0.00  0.00    -0.253 OA
ATOM      5  N   UNL     1       1.704  -0.646  23.043  0.00  0.00    -0.297 N 
ATOM      7  N   UNL     1       4.000  -0.413  23.112  0.00  0.00    -0.297 N 
ATOM     16  C   UNL     1       2.774   0.245  23.176  0.00  0.00    +0.300 C 
ATOM     25  H   UNL     1       1.912  -1.630  22.905  0.00  0.00    +0.150 HD
ATOM     26  H   UNL     1       4.000  -1.428  23.059  0.00  0.00    +0.150 HD
BRANCH   7  17
ATOM     17  C   UNL     1       5.264   0.276  23.223  0.00  0.00    +0.068 C 
ATOM     21  C   UNL     1       6.375  -0.556  22.595  0.00  0.00    +0.027 C 
ATOM     22  C   UNL     1       5.571   0.600  24.678  0.00  0.00    +0.027 C 
ENDBRANCH   7  17
ENDBRANCH  13   5
ENDBRANCH  11  13
TORSDOF 7
ENDMDL
MODEL 6
REMARK VINA RESULT:      -3.8      1.627      4.499
REMARK  Name = 75536738
REMARK  10 active torsions:
REMARK  status: ('A' for Active; 'I' for Inactive)
REMARK    1  A    between atoms: O_2  and  C_10
REMARK    2  A    between atoms: N_4  and  C_9
REMARK    3  A    between atoms: N_4  and  C_14
REMARK    4  A    between atoms: N_5  and  C_13
REMARK    5  A    between atoms: N_6  and  C_19
REMARK    6  A    between atoms: N_7  and  C_17
REMARK    7  A    between atoms: C_11  and  C_13
REMARK    8  A    between atoms: C_14  and  C_15
REMARK    9  A    between atoms: C_17  and  C_21
REMARK   10  A    between atoms: C_17  and  C_22
REMARK                            x       y       z     vdW  Elec       q    Type
REMARK                         _______ _______ _______ _____ _____    ______ ____
ROOT
ATOM      1  O   UNL     1       0.124   3.715  25.799  0.00  0.00    -0.371 OA
ATOM      9  C   UNL     1      -0.050   1.659  24.624  0.00  0.00    +0.111 C 
ATOM     10  C   UNL     1      -1.309   2.472  24.388  0.00  0.00    +0.164 C 
ATOM     11  C   UNL     1      -0.821   3.873  24.729  0.00  0.00    +0.165 C 
ATOM     12  C   UNL     1       0.515   2.332  25.864  0.00  0.00    +0.181 C 
ENDROOT
BRANCH  10   2
ATOM      2  O   UNL     1      -1.772   2.385  23.054  0.00  0.00    -0.388 OA
ATOM     24  H   UNL     1      -1.011   2.488  22.458  0.00  0.00    +0.210 HD
ENDBRANCH  10   2
BRANCH   9   4
ATOM      4  N   UNL     1      -0.299   0.239  24.815  0.00  0.00    -0.302 NA
ATOM     23  H   UNL     1       0.534  -0.195  25.217  0.00  0.00    +0.123 HD
BRANCH   4  14
ATOM     14  C   UNL     1      -1.426   0.020  25.712  0.00  0.00    +0.156 C 
BRANCH  14  15
ATOM      6  N   UNL     1      -2.353  -2.081  24.684  0.00  0.00    -0.336 N 
ATOM      8  N   UNL     1      -3.726  -0.336  24.758  0.00  0.00    -0.239 NA
ATOM     15  C   UNL     1      -2.522  -0.775  25.052  0.00  0.00    +0.123 A 
ATOM     18  C   UNL     1      -3.524  -2.502  24.120  0.00  0.00    +0.106 A 
ATOM     19  C   UNL     1      -1.165  -2.883  24.852  0.00  0.00    +0.150 C 
ATOM     20  C   UNL     1      -4.356  -1.407  24.177  0.00  0.00    +0.130 A 
ENDBRANCH  14  15
ENDBRANCH   4  14
ENDBRANCH   9   4
BRANCH  11  13
ATOM     13  C   UNL     1      -1.936   4.808  25.161  0.00  0.00    +0.140 C 
BRANCH  13   5
ATOM      3  O   UNL     1      -4.468   3.840  24.174  0.00  0.00    -0.253 OA
ATOM      5  N   UNL     1      -2.944   4.110  25.905  0.00  0.00    -0.297 N 
ATOM      7  N   UNL     1      -4.944   3.023  26.292  0.00  0.00    -0.297 N 
ATOM     16  C   UNL     1      -4.150   3.672  25.350  0.00  0.00    +0.300 C 
ATOM     25  H   UNL     1      -2.778   3.936  26.892  0.00  0.00    +0.150 HD
ATOM     26  H   UNL     1      -4.560   2.867  27.220  0.00  0.00    +0.150 HD
BRANCH   7  17
ATOM     17  C   UNL     1      -6.241   2.474  25.978  0.00  0.00    +0.068 C 
ATOM     21  C   UNL     1      -6.692   1.522  27.078  0.00  0.00    +0.027 C 
ATOM     22  C   UNL     1      -6.214   1.779  24.623  0.00  0.00    +0.027 C 
ENDBRANCH   7  17
ENDBRANCH  13   5
ENDBRANCH  11  13
TORSDOF 7
ENDMDL
MODEL 7
REMARK VINA RESULT:      -3.4      2.261      3.887
REMARK  Name = 75536738
REMARK  10 active torsions:
REMARK  status: ('A' for Active; 'I' for Inactive)
REMARK    1  A    between atoms: O_2  and  C_10
REMARK    2  A    between atoms: N_4  and  C_9
REMARK    3  A    between atoms: N_4  and  C_14
REMARK    4  A    between atoms: N_5  and  C_13
REMARK    5  A    between atoms: N_6  and  C_19
REMARK    6  A    between atoms: N_7  and  C_17
REMARK    7  A    between atoms: C_11  and  C_13
REMARK    8  A    between atoms: C_14  and  C_15
REMARK    9  A    between atoms: C_17  and  C_21
REMARK   10  A    between atoms: C_17  and  C_22
REMARK                            x       y       z     vdW  Elec       q    Type
REMARK                         _______ _______ _______ _____ _____    ______ ____
ROOT
ATOM      1  O   UNL     1       0.030   3.215  23.709  0.00  0.00    -0.371 OA
ATOM      9  C   UNL     1      -0.967   3.245  25.865  0.00  0.00    +0.111 C 
ATOM     10  C   UNL     1      -0.908   1.813  25.367  0.00  0.00    +0.164 C 
ATOM     11  C   UNL     1       0.179   1.917  24.306  0.00  0.00    +0.165 C 
ATOM     12  C   UNL     1      -0.795   4.021  24.570  0.00  0.00    +0.181 C 
ENDROOT
BRANCH  10   2
ATOM      2  O   UNL     1      -0.565   0.895  26.386  0.00  0.00    -0.388 OA
ATOM     24  H   UNL     1      -0.945   1.210  27.224  0.00  0.00    +0.210 HD
ENDBRANCH  10   2
BRANCH   9   4
ATOM      4  N   UNL     1      -2.203   3.571  26.559  0.00  0.00    -0.302 NA
ATOM     23  H   UNL     1      -2.006   4.260  27.286  0.00  0.00    +0.123 HD
BRANCH   4  14
ATOM     14  C   UNL     1      -3.192   4.121  25.641  0.00  0.00    +0.156 C 
BRANCH  14  15
ATOM      6  N   UNL     1      -4.519   2.358  24.433  0.00  0.00    -0.336 N 
ATOM      8  N   UNL     1      -5.402   3.133  26.318  0.00  0.00    -0.239 NA
ATOM     15  C   UNL     1      -4.384   3.214  25.491  0.00  0.00    +0.123 A 
ATOM     18  C   UNL     1      -5.697   1.687  24.597  0.00  0.00    +0.106 A 
ATOM     19  C   UNL     1      -3.596   2.181  23.338  0.00  0.00    +0.150 C 
ATOM     20  C   UNL     1      -6.224   2.182  25.767  0.00  0.00    +0.130 A 
ENDBRANCH  14  15
ENDBRANCH   4  14
ENDBRANCH   9   4
BRANCH  11  13
ATOM     13  C   UNL     1       0.078   0.845  23.236  0.00  0.00    +0.140 C 
BRANCH  13   5
ATOM      3  O   UNL     1       2.875   1.530  23.060  0.00  0.00    -0.253 OA
ATOM      5  N   UNL     1       1.193  -0.055  23.292  0.00  0.00    -0.297 N 
ATOM      7  N   UNL     1       3.405  -0.718  23.282  0.00  0.00    -0.297 N 
ATOM     16  C   UNL     1       2.526   0.359  23.198  0.00  0.00    +0.300 C 
ATOM     25  H   UNL     1       1.005  -1.049  23.390  0.00  0.00    +0.150 HD
ATOM     26  H   UNL     1       3.022  -1.639  23.473  0.00  0.00    +0.150 HD
BRANCH   7  17
ATOM     17  C   UNL     1       4.839  -0.564  23.214  0.00  0.00    +0.068 C 
ATOM     21  C   UNL     1       5.525  -1.631  24.057  0.00  0.00    +0.027 C 
ATOM     22  C   UNL     1       5.249   0.835  23.654  0.00  0.00    +0.027 C 
ENDBRANCH   7  17
ENDBRANCH  13   5
ENDBRANCH  11  13
TORSDOF 7
ENDMDL
MODEL 8
REMARK VINA RESULT:      -3.1      1.516      4.725
REMARK  Name = 75536738
REMARK  10 active torsions:
REMARK  status: ('A' for Active; 'I' for Inactive)
REMARK    1  A    between atoms: O_2  and  C_10
REMARK    2  A    between atoms: N_4  and  C_9
REMARK    3  A    between atoms: N_4  and  C_14
REMARK    4  A    between atoms: N_5  and  C_13
REMARK    5  A    between atoms: N_6  and  C_19
REMARK    6  A    between atoms: N_7  and  C_17
REMARK    7  A    between atoms: C_11  and  C_13
REMARK    8  A    between atoms: C_14  and  C_15
REMARK    9  A    between atoms: C_17  and  C_21
REMARK   10  A    between atoms: C_17  and  C_22
REMARK                            x       y       z     vdW  Elec       q    Type
REMARK                         _______ _______ _______ _____ _____    ______ ____
ROOT
ATOM      1  O   UNL     1      -0.482   2.526  26.527  0.00  0.00    -0.371 OA
ATOM      9  C   UNL     1       0.232   0.804  25.055  0.00  0.00    +0.111 C 
ATOM     10  C   UNL     1      -0.033   2.064  24.252  0.00  0.00    +0.164 C 
ATOM     11  C   UNL     1       0.055   3.127  25.337  0.00  0.00    +0.165 C 
ATOM     12  C   UNL     1      -0.527   1.100  26.338  0.00  0.00    +0.181 C 
ENDROOT
BRANCH  10   2
ATOM      2  O   UNL     1       0.925   2.271  23.232  0.00  0.00    -0.388 OA
ATOM     24  H   UNL     1       1.188   1.405  22.877  0.00  0.00    +0.210 HD
ENDBRANCH  10   2
BRANCH   9   4
ATOM      4  N   UNL     1      -0.220  -0.413  24.399  0.00  0.00    -0.302 NA
ATOM     23  H   UNL     1       0.590  -0.922  24.044  0.00  0.00    +0.123 HD
BRANCH   4  14
ATOM     14  C   UNL     1      -0.948  -1.270  25.326  0.00  0.00    +0.156 C 
BRANCH  14  15
ATOM      6  N   UNL     1      -3.283  -0.950  24.447  0.00  0.00    -0.336 N 
ATOM      8  N   UNL     1      -2.499  -3.028  24.416  0.00  0.00    -0.239 NA
ATOM     15  C   UNL     1      -2.233  -1.779  24.729  0.00  0.00    +0.123 A 
ATOM     18  C   UNL     1      -4.282  -1.719  23.920  0.00  0.00    +0.106 A 
ATOM     19  C   UNL     1      -3.343   0.477  24.659  0.00  0.00    +0.150 C 
ATOM     20  C   UNL     1      -3.774  -2.997  23.911  0.00  0.00    +0.130 A 
ENDBRANCH  14  15
ENDBRANCH   4  14
ENDBRANCH   9   4
BRANCH  11  13
ATOM     13  C   UNL     1      -0.721   4.390  25.005  0.00  0.00    +0.140 C 
BRANCH  13   5
ATOM      3  O   UNL     1      -2.994   4.092  26.757  0.00  0.00    -0.253 OA
ATOM      5  N   UNL     1      -2.071   4.088  24.625  0.00  0.00    -0.297 N 
ATOM      7  N   UNL     1      -4.323   3.665  24.904  0.00  0.00    -0.297 N 
ATOM     16  C   UNL     1      -3.120   3.960  25.540  0.00  0.00    +0.300 C 
ATOM     25  H   UNL     1      -2.272   3.947  23.640  0.00  0.00    +0.150 HD
ATOM     26  H   UNL     1      -4.340   3.652  23.888  0.00  0.00    +0.150 HD
BRANCH   7  17
ATOM     17  C   UNL     1      -5.563   3.482  25.620  0.00  0.00    +0.068 C 
ATOM     21  C   UNL     1      -6.298   2.254  25.098  0.00  0.00    +0.027 C 
ATOM     22  C   UNL     1      -6.430   4.730  25.517  0.00  0.00    +0.027 C 
ENDBRANCH   7  17
ENDBRANCH  13   5
ENDBRANCH  11  13
TORSDOF 7
ENDMDL
MODEL 9
REMARK VINA RESULT:      -3.0     15.208     17.251
REMARK  Name = 75536738
REMARK  10 active torsions:
REMARK  status: ('A' for Active; 'I' for Inactive)
REMARK    1  A    between atoms: O_2  and  C_10
REMARK    2  A    between atoms: N_4  and  C_9
REMARK    3  A    between atoms: N_4  and  C_14
REMARK    4  A    between atoms: N_5  and  C_13
REMARK    5  A    between atoms: N_6  and  C_19
REMARK    6  A    between atoms: N_7  and  C_17
REMARK    7  A    between atoms: C_11  and  C_13
REMARK    8  A    between atoms: C_14  and  C_15
REMARK    9  A    between atoms: C_17  and  C_21
REMARK   10  A    between atoms: C_17  and  C_22
REMARK                            x       y       z     vdW  Elec       q    Type
REMARK                         _______ _______ _______ _____ _____    ______ ____
ROOT
ATOM      1  O   UNL     1      -3.953 -10.056  13.424  0.00  0.00    -0.371 OA
ATOM      9  C   UNL     1      -6.220 -10.281  14.094  0.00  0.00    +0.111 C 
ATOM     10  C   UNL     1      -6.170 -10.014  12.601  0.00  0.00    +0.164 C 
ATOM     11  C   UNL     1      -4.739 -10.424  12.279  0.00  0.00    +0.165 C 
ATOM     12  C   UNL     1      -4.841  -9.815  14.529  0.00  0.00    +0.181 C 
ENDROOT
BRANCH  10   2
ATOM      2  O   UNL     1      -7.113 -10.781  11.878  0.00  0.00    -0.388 OA
ATOM     24  H   UNL     1      -7.159 -11.666  12.277  0.00  0.00    +0.210 HD
ENDBRANCH  10   2
BRANCH   9   4
ATOM      4  N   UNL     1      -7.296  -9.578  14.776  0.00  0.00    -0.302 NA
ATOM     23  H   UNL     1      -8.190  -9.870  14.379  0.00  0.00    +0.123 HD
BRANCH   4  14
ATOM     14  C   UNL     1      -7.293  -9.873  16.203  0.00  0.00    +0.156 C 
BRANCH  14  15
ATOM      6  N   UNL     1      -8.933  -9.890  18.111  0.00  0.00    -0.336 N 
ATOM      8  N   UNL     1      -9.483  -8.647  16.354  0.00  0.00    -0.239 NA
ATOM     15  C   UNL     1      -8.578  -9.452  16.865  0.00  0.00    +0.123 A 
ATOM     18  C   UNL     1     -10.141  -9.328  18.414  0.00  0.00    +0.106 A 
ATOM     19  C   UNL     1      -8.182 -10.781  18.963  0.00  0.00    +0.150 C 
ATOM     20  C   UNL     1     -10.460  -8.565  17.315  0.00  0.00    +0.130 A 
ENDBRANCH  14  15
ENDBRANCH   4  14
ENDBRANCH   9   4
BRANCH  11  13
ATOM     13  C   UNL     1      -4.186  -9.749  11.037  0.00  0.00    +0.140 C 
BRANCH  13   5
ATOM      3  O   UNL     1      -6.269  -9.811   9.040  0.00  0.00    -0.253 OA
ATOM      5  N   UNL     1      -5.019  -8.657  10.622  0.00  0.00    -0.297 N 
ATOM      7  N   UNL     1      -6.668  -7.560   9.435  0.00  0.00    -0.297 N 
ATOM     16  C   UNL     1      -6.011  -8.770   9.643  0.00  0.00    +0.300 C 
ATOM     25  H   UNL     1      -4.871  -7.749  11.054  0.00  0.00    +0.150 HD
ATOM     26  H   UNL     1      -6.434  -6.776  10.037  0.00  0.00    +0.150 HD
BRANCH   7  17
ATOM     17  C   UNL     1      -7.736  -7.405   8.477  0.00  0.00    +0.068 C 
ATOM     21  C   UNL     1      -7.919  -5.934   8.124  0.00  0.00    +0.027 C 
ATOM     22  C   UNL     1      -9.027  -8.009   9.011  0.00  0.00    +0.027 C 
ENDBRANCH   7  17
ENDBRANCH  13   5
ENDBRANCH  11  13
TORSDOF 7
ENDMDL
MODEL 10
REMARK VINA RESULT:      -3.0      2.156      4.326
REMARK  Name = 75536738
REMARK  10 active torsions:
REMARK  status: ('A' for Active; 'I' for Inactive)
REMARK    1  A    between atoms: O_2  and  C_10
REMARK    2  A    between atoms: N_4  and  C_9
REMARK    3  A    between atoms: N_4  and  C_14
REMARK    4  A    between atoms: N_5  and  C_13
REMARK    5  A    between atoms: N_6  and  C_19
REMARK    6  A    between atoms: N_7  and  C_17
REMARK    7  A    between atoms: C_11  and  C_13
REMARK    8  A    between atoms: C_14  and  C_15
REMARK    9  A    between atoms: C_17  and  C_21
REMARK   10  A    between atoms: C_17  and  C_22
REMARK                            x       y       z     vdW  Elec       q    Type
REMARK                         _______ _______ _______ _____ _____    ______ ____
ROOT
ATOM      1  O   UNL     1      -5.498   3.137  26.260  0.00  0.00    -0.371 OA
ATOM      9  C   UNL     1      -3.955   4.354  24.926  0.00  0.00    +0.111 C 
ATOM     10  C   UNL     1      -4.162   2.981  24.315  0.00  0.00    +0.164 C 
ATOM     11  C   UNL     1      -5.494   2.582  24.934  0.00  0.00    +0.165 C 
ATOM     12  C   UNL     1      -4.463   4.133  26.341  0.00  0.00    +0.181 C 
ENDROOT
BRANCH  10   2
ATOM      2  O   UNL     1      -4.226   3.016  22.903  0.00  0.00    -0.388 OA
ATOM     24  H   UNL     1      -3.908   3.885  22.603  0.00  0.00    +0.210 HD
ENDBRANCH  10   2
BRANCH   9   4
ATOM      4  N   UNL     1      -2.574   4.810  24.886  0.00  0.00    -0.302 NA
ATOM     23  H   UNL     1      -2.538   5.789  25.171  0.00  0.00    +0.123 HD
BRANCH   4  14
ATOM     14  C   UNL     1      -1.736   4.024  25.781  0.00  0.00    +0.156 C 
BRANCH  14  15
ATOM      6  N   UNL     1       0.089   2.300  25.610  0.00  0.00    -0.336 N 
ATOM      8  N   UNL     1      -1.178   2.571  23.806  0.00  0.00    -0.239 NA
ATOM     15  C   UNL     1      -0.959   2.968  25.040  0.00  0.00    +0.123 A 
ATOM     18  C   UNL     1       0.568   1.421  24.682  0.00  0.00    +0.106 A 
ATOM     19  C   UNL     1       0.606   2.477  26.946  0.00  0.00    +0.150 C 
ATOM     20  C   UNL     1      -0.229   1.606  23.576  0.00  0.00    +0.130 A 
ENDBRANCH  14  15
ENDBRANCH   4  14
ENDBRANCH   9   4
BRANCH  11  13
ATOM     13  C   UNL     1      -5.697   1.079  25.006  0.00  0.00    +0.140 C 
BRANCH  13   5
ATOM      3  O   UNL     1      -3.936  -0.960  26.040  0.00  0.00    -0.253 OA
ATOM      5  N   UNL     1      -4.670   0.379  24.289  0.00  0.00    -0.297 N 
ATOM      7  N   UNL     1      -2.945  -1.117  23.948  0.00  0.00    -0.297 N 
ATOM     16  C   UNL     1      -3.856  -0.601  24.866  0.00  0.00    +0.300 C 
ATOM     25  H   UNL     1      -4.517   0.617  23.314  0.00  0.00    +0.150 HD
ATOM     26  H   UNL     1      -3.009  -0.810  22.982  0.00  0.00    +0.150 HD
BRANCH   7  17
ATOM     17  C   UNL     1      -1.989  -2.144  24.288  0.00  0.00    +0.068 C 
ATOM     21  C   UNL     1      -2.708  -3.387  24.798  0.00  0.00    +0.027 C 
ATOM     22  C   UNL     1      -0.988  -1.626  25.311  0.00  0.00    +0.027 C 
ENDBRANCH   7  17
ENDBRANCH  13   5
ENDBRANCH  11  13
TORSDOF 7
ENDMDL
