MODEL 1
REMARK VINA RESULT:      -2.6      0.000      0.000
REMARK  Name = 25314526
REMARK  7 active torsions:
REMARK  status: ('A' for Active; 'I' for Inactive)
REMARK    1  A    between atoms: O_3  and  C_9
REMARK    2  A    between atoms: N_5  and  C_8
REMARK    3  A    between atoms: N_6  and  C_10
REMARK    4  A    between atoms: N_7  and  C_26
REMARK    5  A    between atoms: C_15  and  C_19
REMARK    6  A    between atoms: C_19  and  C_20
REMARK    7  A    between atoms: C_26  and  C_28
REMARK                            x       y       z     vdW  Elec       q    Type
REMARK                         _______ _______ _______ _____ _____    ______ ____
ROOT
ATOM      1  O   UNL     1      -1.784   3.989  23.659  0.00  0.00    -0.342 OA
ATOM      2  O   UNL     1      -1.989   5.494  25.412  0.00  0.00    -0.347 OA
ATOM      8  C   UNL     1      -1.117   3.285  25.867  0.00  0.00    +0.143 C 
ATOM      9  C   UNL     1      -2.542   2.757  26.151  0.00  0.00    +0.159 C 
ATOM     10  C   UNL     1      -3.485   2.848  24.931  0.00  0.00    +0.136 C 
ATOM     11  C   UNL     1      -1.162   4.453  24.866  0.00  0.00    +0.270 C 
ATOM     12  C   UNL     1      -3.170   4.043  24.007  0.00  0.00    +0.170 C 
ATOM     16  C   UNL     1      -3.230   5.392  24.697  0.00  0.00    +0.196 C 
ENDROOT
BRANCH  10   6
ATOM      4  O   UNL     1      -4.742   0.340  25.607  0.00  0.00    -0.253 OA
ATOM      6  N   UNL     1      -3.437   1.616  24.172  0.00  0.00    -0.291 N 
ATOM      7  N   UNL     1      -3.868  -0.581  23.664  0.00  0.00    -0.296 N 
ATOM     21  C   UNL     1      -4.078   0.450  24.577  0.00  0.00    +0.300 C 
ATOM     30  H   UNL     1      -2.847   1.581  23.346  0.00  0.00    +0.151 HD
ATOM     32  H   UNL     1      -3.322  -0.391  22.829  0.00  0.00    +0.151 HD
BRANCH   7  26
ATOM     26  C   UNL     1      -4.420  -1.904  23.838  0.00  0.00    +0.132 C 
BRANCH  26  28
ATOM     28  C   UNL     1      -3.482  -2.720  24.663  0.00  0.00    -0.016 C 
ATOM     29  C   UNL     1      -2.165  -2.798  24.437  0.00  0.00    +0.005 C 
ENDBRANCH  26  28
ENDBRANCH   7  26
ENDBRANCH  10   6
BRANCH   8   5
ATOM      5  N   UNL     1      -0.277   2.209  25.337  0.00  0.00    -0.293 NA
ATOM     13  C   UNL     1      -1.060   0.976  25.181  0.00  0.00    +0.085 C 
ATOM     14  C   UNL     1       0.335   2.613  24.065  0.00  0.00    +0.085 C 
ATOM     15  C   UNL     1       0.515   0.190  23.364  0.00  0.00    -0.004 C 
ATOM     17  C   UNL     1      -0.183  -0.174  24.679  0.00  0.00    +0.019 C 
ATOM     18  C   UNL     1       1.259   1.520  23.524  0.00  0.00    +0.019 C 
BRANCH  15  19
ATOM     19  C   UNL     1       1.464  -0.919  22.921  0.00  0.00    +0.038 C 
BRANCH  19  20
ATOM     20  C   UNL     1       2.903  -0.536  23.131  0.00  0.00    -0.047 A 
ATOM     22  C   UNL     1       3.760  -1.394  23.822  0.00  0.00    +0.003 A 
ATOM     23  C   UNL     1       3.381   0.677  22.636  0.00  0.00    +0.003 A 
ATOM     24  C   UNL     1       5.093  -1.038  24.018  0.00  0.00    +0.000 A 
ATOM     25  C   UNL     1       4.716   1.033  22.832  0.00  0.00    +0.000 A 
ATOM     27  C   UNL     1       5.573   0.175  23.523  0.00  0.00    +0.000 A 
ENDBRANCH  19  20
ENDBRANCH  15  19
ENDBRANCH   8   5
BRANCH   9   3
ATOM      3  O   UNL     1      -3.094   3.539  27.218  0.00  0.00    -0.388 OA
ATOM     31  H   UNL     1      -3.992   3.802  26.956  0.00  0.00    +0.210 HD
ENDBRANCH   9   3
TORSDOF 7
ENDMDL
MODEL 2
REMARK VINA RESULT:       0.6      1.971      3.923
REMARK  Name = 25314526
REMARK  7 active torsions:
REMARK  status: ('A' for Active; 'I' for Inactive)
REMARK    1  A    between atoms: O_3  and  C_9
REMARK    2  A    between atoms: N_5  and  C_8
REMARK    3  A    between atoms: N_6  and  C_10
REMARK    4  A    between atoms: N_7  and  C_26
REMARK    5  A    between atoms: C_15  and  C_19
REMARK    6  A    between atoms: C_19  and  C_20
REMARK    7  A    between atoms: C_26  and  C_28
REMARK                            x       y       z     vdW  Elec       q    Type
REMARK                         _______ _______ _______ _____ _____    ______ ____
ROOT
ATOM      1  O   UNL     1      -4.131   1.447  25.638  0.00  0.00    -0.342 OA
ATOM      2  O   UNL     1      -5.271   2.660  24.022  0.00  0.00    -0.347 OA
ATOM      8  C   UNL     1      -2.892   2.313  23.759  0.00  0.00    +0.143 C 
ATOM      9  C   UNL     1      -2.593   3.618  24.531  0.00  0.00    +0.159 C 
ATOM     10  C   UNL     1      -3.098   3.597  25.991  0.00  0.00    +0.136 C 
ATOM     11  C   UNL     1      -4.222   1.698  24.228  0.00  0.00    +0.270 C 
ATOM     12  C   UNL     1      -4.372   2.748  26.181  0.00  0.00    +0.170 C 
ATOM     16  C   UNL     1      -5.545   3.191  25.328  0.00  0.00    +0.196 C 
ENDROOT
BRANCH  10   6
ATOM      4  O   UNL     1      -0.249   3.849  25.608  0.00  0.00    -0.253 OA
ATOM      6  N   UNL     1      -2.054   3.119  26.872  0.00  0.00    -0.291 N 
ATOM      7  N   UNL     1       0.083   2.731  27.614  0.00  0.00    -0.296 N 
ATOM     21  C   UNL     1      -0.700   3.286  26.605  0.00  0.00    +0.300 C 
ATOM     30  H   UNL     1      -2.323   2.569  27.683  0.00  0.00    +0.151 HD
ATOM     32  H   UNL     1      -0.378   2.305  28.412  0.00  0.00    +0.151 HD
BRANCH   7  26
ATOM     26  C   UNL     1       1.527   2.763  27.591  0.00  0.00    +0.132 C 
BRANCH  26  28
ATOM     28  C   UNL     1       2.038   2.748  28.993  0.00  0.00    -0.016 C 
ATOM     29  C   UNL     1       1.313   2.354  30.046  0.00  0.00    +0.005 C 
ENDBRANCH  26  28
ENDBRANCH   7  26
ENDBRANCH  10   6
BRANCH   8   5
ATOM      5  N   UNL     1      -1.805   1.352  23.955  0.00  0.00    -0.293 NA
ATOM     13  C   UNL     1      -2.051   0.132  23.174  0.00  0.00    +0.085 C 
ATOM     14  C   UNL     1      -0.513   1.956  23.603  0.00  0.00    +0.085 C 
ATOM     15  C   UNL     1       0.434  -0.332  23.092  0.00  0.00    -0.004 C 
ATOM     17  C   UNL     1      -0.950  -0.905  23.411  0.00  0.00    +0.019 C 
ATOM     18  C   UNL     1       0.639   0.982  23.854  0.00  0.00    +0.019 C 
BRANCH  15  19
ATOM     19  C   UNL     1       1.534  -1.337  23.425  0.00  0.00    +0.038 C 
BRANCH  19  20
ATOM     20  C   UNL     1       2.900  -0.710  23.348  0.00  0.00    -0.047 A 
ATOM     22  C   UNL     1       3.993  -1.347  23.936  0.00  0.00    +0.003 A 
ATOM     23  C   UNL     1       3.072   0.507  22.689  0.00  0.00    +0.003 A 
ATOM     24  C   UNL     1       5.259  -0.766  23.865  0.00  0.00    +0.000 A 
ATOM     25  C   UNL     1       4.339   1.088  22.618  0.00  0.00    +0.000 A 
ATOM     27  C   UNL     1       5.433   0.451  23.206  0.00  0.00    +0.000 A 
ENDBRANCH  19  20
ENDBRANCH  15  19
ENDBRANCH   8   5
BRANCH   9   3
ATOM      3  O   UNL     1      -3.238   4.694  23.836  0.00  0.00    -0.388 OA
ATOM     31  H   UNL     1      -4.198   4.554  23.904  0.00  0.00    +0.210 HD
ENDBRANCH   9   3
TORSDOF 7
ENDMDL
MODEL 3
REMARK VINA RESULT:       1.2      1.766      4.670
REMARK  Name = 25314526
REMARK  7 active torsions:
REMARK  status: ('A' for Active; 'I' for Inactive)
REMARK    1  A    between atoms: O_3  and  C_9
REMARK    2  A    between atoms: N_5  and  C_8
REMARK    3  A    between atoms: N_6  and  C_10
REMARK    4  A    between atoms: N_7  and  C_26
REMARK    5  A    between atoms: C_15  and  C_19
REMARK    6  A    between atoms: C_19  and  C_20
REMARK    7  A    between atoms: C_26  and  C_28
REMARK                            x       y       z     vdW  Elec       q    Type
REMARK                         _______ _______ _______ _____ _____    ______ ____
ROOT
ATOM      1  O   UNL     1      -1.729  -1.413  26.096  0.00  0.00    -0.342 OA
ATOM      2  O   UNL     1      -3.130  -2.838  24.917  0.00  0.00    -0.347 OA
ATOM      8  C   UNL     1      -1.661  -1.363  23.686  0.00  0.00    +0.143 C 
ATOM      9  C   UNL     1      -2.749  -0.266  23.658  0.00  0.00    +0.159 C 
ATOM     10  C   UNL     1      -3.151   0.237  25.062  0.00  0.00    +0.136 C 
ATOM     11  C   UNL     1      -1.818  -2.249  24.934  0.00  0.00    +0.270 C 
ATOM     12  C   UNL     1      -3.043  -0.851  26.151  0.00  0.00    +0.170 C 
ATOM     16  C   UNL     1      -3.883  -2.084  25.879  0.00  0.00    +0.196 C 
ENDROOT
BRANCH  10   6
ATOM      4  O   UNL     1      -3.839   3.022  24.748  0.00  0.00    -0.253 OA
ATOM      6  N   UNL     1      -2.345   1.381  25.431  0.00  0.00    -0.291 N 
ATOM      7  N   UNL     1      -1.794   3.595  25.684  0.00  0.00    -0.296 N 
ATOM     21  C   UNL     1      -2.760   2.695  25.242  0.00  0.00    +0.300 C 
ATOM     30  H   UNL     1      -1.403   1.217  25.773  0.00  0.00    +0.151 HD
ATOM     32  H   UNL     1      -0.940   3.232  26.098  0.00  0.00    +0.151 HD
BRANCH   7  26
ATOM     26  C   UNL     1      -1.965   5.027  25.606  0.00  0.00    +0.132 C 
BRANCH  26  28
ATOM     28  C   UNL     1      -0.931   5.593  24.691  0.00  0.00    -0.016 C 
ATOM     29  C   UNL     1      -0.155   4.851  23.893  0.00  0.00    +0.005 C 
ENDBRANCH  26  28
ENDBRANCH   7  26
ENDBRANCH  10   6
BRANCH   8   5
ATOM      5  N   UNL     1      -0.329  -0.753  23.676  0.00  0.00    -0.293 NA
ATOM     13  C   UNL     1       0.325  -0.968  22.379  0.00  0.00    +0.085 C 
ATOM     14  C   UNL     1      -0.416   0.678  23.996  0.00  0.00    +0.085 C 
ATOM     15  C   UNL     1       1.729   1.107  22.728  0.00  0.00    -0.004 C 
ATOM     17  C   UNL     1       1.739  -0.383  22.371  0.00  0.00    +0.019 C 
ATOM     18  C   UNL     1       0.972   1.319  24.043  0.00  0.00    +0.019 C 
BRANCH  15  19
ATOM     19  C   UNL     1       3.148   1.660  22.816  0.00  0.00    +0.038 C 
BRANCH  19  20
ATOM     20  C   UNL     1       4.123   0.615  23.287  0.00  0.00    -0.047 A 
ATOM     22  C   UNL     1       3.708  -0.708  23.438  0.00  0.00    +0.003 A 
ATOM     23  C   UNL     1       5.442   0.969  23.571  0.00  0.00    +0.003 A 
ATOM     24  C   UNL     1       4.611  -1.677  23.874  0.00  0.00    +0.000 A 
ATOM     25  C   UNL     1       6.346  -0.000  24.008  0.00  0.00    +0.000 A 
ATOM     27  C   UNL     1       5.930  -1.323  24.159  0.00  0.00    +0.000 A 
ENDBRANCH  19  20
ENDBRANCH  15  19
ENDBRANCH   8   5
BRANCH   9   3
ATOM      3  O   UNL     1      -3.907  -0.816  23.016  0.00  0.00    -0.388 OA
ATOM     31  H   UNL     1      -3.714  -0.878  22.066  0.00  0.00    +0.210 HD
ENDBRANCH   9   3
TORSDOF 7
ENDMDL
