MODEL 1
REMARK VINA RESULT:      -5.5      0.000      0.000
REMARK  Name = 51137827
REMARK  4 active torsions:
REMARK  status: ('A' for Active; 'I' for Inactive)
REMARK    1  A    between atoms: C_7  and  C_11
REMARK    2  A    between atoms: C_12  and  C_13
REMARK    3  A    between atoms: C_14  and  C_15
REMARK    4  A    between atoms: C_15  and  C_18
REMARK                            x       y       z     vdW  Elec       q    Type
REMARK                         _______ _______ _______ _____ _____    ______ ____
ROOT
ATOM      2  O   UNL     1       0.825   2.338  26.378  0.00  0.00    -0.270 OA
ATOM      3  N   UNL     1      -0.791   3.240  24.977  0.00  0.00    -0.297 N 
ATOM      7  C   UNL     1      -2.823   4.094  24.077  0.00  0.00    +0.095 C 
ATOM      8  C   UNL     1      -2.289   5.055  25.151  0.00  0.00    +0.033 C 
ATOM      9  C   UNL     1      -1.572   3.270  23.739  0.00  0.00    +0.121 C 
ATOM     10  C   UNL     1      -1.295   4.210  25.936  0.00  0.00    +0.109 C 
ATOM     12  C   UNL     1       0.244   2.375  25.295  0.00  0.00    +0.247 C 
ENDROOT
BRANCH  12  13
ATOM      6  N   UNL     1       1.493  -0.402  22.307  0.00  0.00    -0.263 NA
ATOM     13  C   UNL     1       0.674   1.419  24.263  0.00  0.00    +0.040 A 
ATOM     16  C   UNL     1      -0.179   0.397  23.860  0.00  0.00    +0.033 A 
ATOM     17  C   UNL     1       1.936   1.531  23.690  0.00  0.00    +0.033 A 
ATOM     19  C   UNL     1       0.274  -0.479  22.887  0.00  0.00    +0.111 A 
ATOM     20  C   UNL     1       2.293   0.604  22.724  0.00  0.00    +0.111 A 
ENDBRANCH  12  13
BRANCH   7  11
ATOM      1  O   UNL     1      -4.055   1.982  24.312  0.00  0.00    -0.424 OA
ATOM      4  N   UNL     1      -5.090   3.745  25.223  0.00  0.00    -0.112 NA
ATOM      5  N   UNL     1      -5.883   2.631  25.426  0.00  0.00    -0.112 NA
ATOM     11  C   UNL     1      -4.033   3.319  24.571  0.00  0.00    +0.222 A 
ATOM     14  C   UNL     1      -5.240   1.626  24.878  0.00  0.00    +0.222 A 
BRANCH  14  15
ATOM     15  C   UNL     1      -5.614   0.209  24.796  0.00  0.00    +0.132 C 
BRANCH  15  18
ATOM     18  C   UNL     1      -4.440  -0.764  24.813  0.00  0.00    -0.038 A 
ATOM     21  C   UNL     1      -4.385  -1.806  23.887  0.00  0.00    +0.004 A 
ATOM     22  C   UNL     1      -3.421  -0.612  25.754  0.00  0.00    +0.004 A 
ATOM     23  C   UNL     1      -3.311  -2.697  23.902  0.00  0.00    +0.000 A 
ATOM     24  C   UNL     1      -2.348  -1.502  25.769  0.00  0.00    +0.000 A 
ATOM     25  C   UNL     1      -2.293  -2.545  24.843  0.00  0.00    +0.000 A 
ENDBRANCH  15  18
ENDBRANCH  14  15
ENDBRANCH   7  11
TORSDOF 4
ENDMDL
MODEL 2
REMARK VINA RESULT:      -3.3      1.613      5.257
REMARK  Name = 51137827
REMARK  4 active torsions:
REMARK  status: ('A' for Active; 'I' for Inactive)
REMARK    1  A    between atoms: C_7  and  C_11
REMARK    2  A    between atoms: C_12  and  C_13
REMARK    3  A    between atoms: C_14  and  C_15
REMARK    4  A    between atoms: C_15  and  C_18
REMARK                            x       y       z     vdW  Elec       q    Type
REMARK                         _______ _______ _______ _____ _____    ______ ____
ROOT
ATOM      2  O   UNL     1      -4.199   4.581  23.288  0.00  0.00    -0.270 OA
ATOM      3  N   UNL     1      -2.535   3.917  24.765  0.00  0.00    -0.297 N 
ATOM      7  C   UNL     1      -0.501   3.130  25.718  0.00  0.00    +0.095 C 
ATOM      8  C   UNL     1      -0.265   4.493  25.048  0.00  0.00    +0.033 C 
ATOM      9  C   UNL     1      -2.028   3.117  25.881  0.00  0.00    +0.121 C 
ATOM     10  C   UNL     1      -1.462   4.658  24.122  0.00  0.00    +0.109 C 
ATOM     12  C   UNL     1      -3.832   3.948  24.276  0.00  0.00    +0.247 C 
ENDROOT
BRANCH  12  13
ATOM      6  N   UNL     1      -6.769   1.640  26.337  0.00  0.00    -0.263 NA
ATOM     13  C   UNL     1      -4.846   3.153  24.986  0.00  0.00    +0.040 A 
ATOM     16  C   UNL     1      -5.308   3.563  26.232  0.00  0.00    +0.033 A 
ATOM     17  C   UNL     1      -5.345   1.987  24.415  0.00  0.00    +0.033 A 
ATOM     19  C   UNL     1      -6.261   2.779  26.860  0.00  0.00    +0.111 A 
ATOM     20  C   UNL     1      -6.296   1.274  25.125  0.00  0.00    +0.111 A 
ENDBRANCH  12  13
BRANCH   7  11
ATOM      1  O   UNL     1      -0.502   0.782  25.001  0.00  0.00    -0.424 OA
ATOM      4  N   UNL     1       1.150   2.002  24.112  0.00  0.00    -0.112 NA
ATOM      5  N   UNL     1       1.264   0.711  23.629  0.00  0.00    -0.112 NA
ATOM     11  C   UNL     1       0.105   1.996  24.908  0.00  0.00    +0.222 A 
ATOM     14  C   UNL     1       0.280   0.035  24.174  0.00  0.00    +0.222 A 
BRANCH  14  15
ATOM     15  C   UNL     1      -0.083  -1.378  24.017  0.00  0.00    +0.132 C 
BRANCH  15  18
ATOM     18  C   UNL     1      -1.579  -1.666  24.087  0.00  0.00    -0.038 A 
ATOM     21  C   UNL     1      -2.496  -0.690  23.694  0.00  0.00    +0.004 A 
ATOM     22  C   UNL     1      -2.031  -2.904  24.545  0.00  0.00    +0.004 A 
ATOM     23  C   UNL     1      -3.865  -0.953  23.758  0.00  0.00    +0.000 A 
ATOM     24  C   UNL     1      -3.399  -3.167  24.608  0.00  0.00    +0.000 A 
ATOM     25  C   UNL     1      -4.316  -2.192  24.215  0.00  0.00    +0.000 A 
ENDBRANCH  15  18
ENDBRANCH  14  15
ENDBRANCH   7  11
TORSDOF 4
ENDMDL
MODEL 3
REMARK VINA RESULT:      -2.5      2.308      6.747
REMARK  Name = 51137827
REMARK  4 active torsions:
REMARK  status: ('A' for Active; 'I' for Inactive)
REMARK    1  A    between atoms: C_7  and  C_11
REMARK    2  A    between atoms: C_12  and  C_13
REMARK    3  A    between atoms: C_14  and  C_15
REMARK    4  A    between atoms: C_15  and  C_18
REMARK                            x       y       z     vdW  Elec       q    Type
REMARK                         _______ _______ _______ _____ _____    ______ ____
ROOT
ATOM      2  O   UNL     1      -3.715   4.665  23.675  0.00  0.00    -0.270 OA
ATOM      3  N   UNL     1      -2.263   3.378  24.951  0.00  0.00    -0.297 N 
ATOM      7  C   UNL     1      -0.453   2.016  25.684  0.00  0.00    +0.095 C 
ATOM      8  C   UNL     1       0.065   3.420  25.334  0.00  0.00    +0.033 C 
ATOM      9  C   UNL     1      -1.959   2.267  25.855  0.00  0.00    +0.121 C 
ATOM     10  C   UNL     1      -1.045   4.017  24.479  0.00  0.00    +0.109 C 
ATOM     12  C   UNL     1      -3.511   3.770  24.494  0.00  0.00    +0.247 C 
ENDROOT
BRANCH  12  13
ATOM      6  N   UNL     1      -6.909   1.687  26.016  0.00  0.00    -0.263 NA
ATOM     13  C   UNL     1      -4.684   3.053  25.018  0.00  0.00    +0.040 A 
ATOM     16  C   UNL     1      -5.377   3.555  26.114  0.00  0.00    +0.033 A 
ATOM     17  C   UNL     1      -5.103   1.869  24.421  0.00  0.00    +0.033 A 
ATOM     19  C   UNL     1      -6.473   2.841  26.571  0.00  0.00    +0.111 A 
ATOM     20  C   UNL     1      -6.211   1.231  24.953  0.00  0.00    +0.111 A 
ENDBRANCH  12  13
BRANCH   7  11
ATOM      1  O   UNL     1       1.106   1.230  23.958  0.00  0.00    -0.424 OA
ATOM      4  N   UNL     1      -0.657  -0.112  24.269  0.00  0.00    -0.112 NA
ATOM      5  N   UNL     1       0.134  -0.668  23.281  0.00  0.00    -0.112 NA
ATOM     11  C   UNL     1      -0.050   0.993  24.635  0.00  0.00    +0.222 A 
ATOM     14  C   UNL     1       1.151   0.149  23.132  0.00  0.00    +0.222 A 
BRANCH  14  15
ATOM     15  C   UNL     1       2.299   0.057  22.222  0.00  0.00    +0.132 C 
BRANCH  15  18
ATOM     18  C   UNL     1       3.642  -0.172  22.909  0.00  0.00    -0.038 A 
ATOM     21  C   UNL     1       4.594   0.848  22.935  0.00  0.00    +0.004 A 
ATOM     22  C   UNL     1       3.918  -1.400  23.511  0.00  0.00    +0.004 A 
ATOM     23  C   UNL     1       5.822   0.639  23.563  0.00  0.00    +0.000 A 
ATOM     24  C   UNL     1       5.145  -1.609  24.139  0.00  0.00    +0.000 A 
ATOM     25  C   UNL     1       6.097  -0.589  24.165  0.00  0.00    +0.000 A 
ENDBRANCH  15  18
ENDBRANCH  14  15
ENDBRANCH   7  11
TORSDOF 4
ENDMDL
MODEL 4
REMARK VINA RESULT:      -2.4      2.003      4.634
REMARK  Name = 51137827
REMARK  4 active torsions:
REMARK  status: ('A' for Active; 'I' for Inactive)
REMARK    1  A    between atoms: C_7  and  C_11
REMARK    2  A    between atoms: C_12  and  C_13
REMARK    3  A    between atoms: C_14  and  C_15
REMARK    4  A    between atoms: C_15  and  C_18
REMARK                            x       y       z     vdW  Elec       q    Type
REMARK                         _______ _______ _______ _____ _____    ______ ____
ROOT
ATOM      2  O   UNL     1      -0.349  -1.443  26.078  0.00  0.00    -0.270 OA
ATOM      3  N   UNL     1      -0.414   0.224  24.463  0.00  0.00    -0.297 N 
ATOM      7  C   UNL     1      -0.332   2.313  23.325  0.00  0.00    +0.095 C 
ATOM      8  C   UNL     1       1.078   1.926  23.798  0.00  0.00    +0.033 C 
ATOM      9  C   UNL     1      -1.067   0.966  23.383  0.00  0.00    +0.121 C 
ATOM     10  C   UNL     1       0.829   0.865  24.861  0.00  0.00    +0.109 C 
ATOM     12  C   UNL     1      -0.897  -0.895  25.124  0.00  0.00    +0.247 C 
ENDROOT
BRANCH  12  13
ATOM      6  N   UNL     1      -4.595  -2.543  23.778  0.00  0.00    -0.263 NA
ATOM     13  C   UNL     1      -2.172  -1.463  24.658  0.00  0.00    +0.040 A 
ATOM     16  C   UNL     1      -3.284  -0.643  24.498  0.00  0.00    +0.033 A 
ATOM     17  C   UNL     1      -2.270  -2.822  24.379  0.00  0.00    +0.033 A 
ATOM     19  C   UNL     1      -4.461  -1.227  24.059  0.00  0.00    +0.111 A 
ATOM     20  C   UNL     1      -3.493  -3.307  23.946  0.00  0.00    +0.111 A 
ENDBRANCH  12  13
BRANCH   7  11
ATOM      1  O   UNL     1      -2.129   3.216  24.734  0.00  0.00    -0.424 OA
ATOM      4  N   UNL     1      -0.418   4.626  24.429  0.00  0.00    -0.112 NA
ATOM      5  N   UNL     1      -1.351   5.253  25.234  0.00  0.00    -0.112 NA
ATOM     11  C   UNL     1      -0.914   3.440  24.163  0.00  0.00    +0.222 A 
ATOM     14  C   UNL     1      -2.331   4.394  25.385  0.00  0.00    +0.222 A 
BRANCH  14  15
ATOM     15  C   UNL     1      -3.582   4.526  26.142  0.00  0.00    +0.132 C 
BRANCH  15  18
ATOM     18  C   UNL     1      -4.636   3.471  25.825  0.00  0.00    -0.038 A 
ATOM     21  C   UNL     1      -4.787   3.008  24.517  0.00  0.00    +0.004 A 
ATOM     22  C   UNL     1      -5.449   2.968  26.841  0.00  0.00    +0.004 A 
ATOM     23  C   UNL     1      -5.751   2.042  24.227  0.00  0.00    +0.000 A 
ATOM     24  C   UNL     1      -6.412   2.003  26.551  0.00  0.00    +0.000 A 
ATOM     25  C   UNL     1      -6.563   1.540  25.243  0.00  0.00    +0.000 A 
ENDBRANCH  15  18
ENDBRANCH  14  15
ENDBRANCH   7  11
TORSDOF 4
ENDMDL
