MODEL 1
REMARK VINA RESULT:       5.1      0.000      0.000
REMARK  Name = 11887644
REMARK  6 active torsions:
REMARK  status: ('A' for Active; 'I' for Inactive)
REMARK    1  A    between atoms: O_4  and  C_17
REMARK    2  A    between atoms: O_4  and  C_23
REMARK    3  A    between atoms: O_5  and  C_22
REMARK    4  A    between atoms: O_5  and  C_26
REMARK    5  A    between atoms: N_8  and  C_16
REMARK    6  A    between atoms: C_14  and  C_17
REMARK                            x       y       z     vdW  Elec       q    Type
REMARK                         _______ _______ _______ _____ _____    ______ ____
ROOT
ATOM      1  O   UNL     1      -2.450   1.745  24.690  0.00  0.00    -0.273 OA
ATOM      2  O   UNL     1      -4.304   2.623  27.015  0.00  0.00    -0.272 OA
ATOM      3  O   UNL     1      -1.390  -2.823  24.321  0.00  0.00    -0.252 OA
ATOM      6  N   UNL     1      -4.971   1.078  25.427  0.00  0.00    -0.285 N 
ATOM      7  N   UNL     1      -3.486  -2.165  24.846  0.00  0.00    -0.293 N 
ATOM      8  N   UNL     1      -1.824  -0.512  24.473  0.00  0.00    -0.193 N 
ATOM      9  C   UNL     1      -4.488  -1.180  25.130  0.00  0.00    +0.105 C 
ATOM     10  C   UNL     1      -3.904   0.107  25.672  0.00  0.00    +0.183 C 
ATOM     11  C   UNL     1      -5.286  -0.715  23.912  0.00  0.00    +0.043 C 
ATOM     12  C   UNL     1      -5.902   0.588  24.408  0.00  0.00    +0.110 C 
ATOM     13  C   UNL     1      -2.665   0.548  24.896  0.00  0.00    +0.250 C 
ATOM     14  C   UNL     1      -5.111   2.242  26.164  0.00  0.00    +0.254 C 
ATOM     15  C   UNL     1      -2.175  -1.889  24.513  0.00  0.00    +0.313 C 
ATOM     35  H   UNL     1      -3.764  -3.142  24.873  0.00  0.00    +0.151 HD
ENDROOT
BRANCH   8  16
ATOM     16  C   UNL     1      -0.519  -0.165  23.947  0.00  0.00    +0.046 A 
ATOM     18  C   UNL     1       0.006  -0.891  22.886  0.00  0.00    +0.027 A 
ATOM     19  C   UNL     1       0.188   0.888  24.511  0.00  0.00    +0.027 A 
ATOM     20  C   UNL     1       1.263  -0.556  22.380  0.00  0.00    +0.048 A 
ATOM     21  C   UNL     1       1.444   1.222  24.004  0.00  0.00    +0.048 A 
ATOM     22  C   UNL     1       1.982   0.500  22.939  0.00  0.00    +0.129 A 
BRANCH  22   5
ATOM      5  O   UNL     1       3.208   0.824  22.446  0.00  0.00    -0.456 OA
BRANCH   5  26
ATOM     26  C   UNL     1       4.317   0.263  23.058  0.00  0.00    +0.128 A 
ATOM     30  C   UNL     1       5.427   1.052  23.298  0.00  0.00    +0.046 A 
ATOM     31  C   UNL     1       4.285  -1.074  23.414  0.00  0.00    +0.046 A 
ATOM     32  C   UNL     1       6.543   0.487  23.913  0.00  0.00    +0.004 A 
ATOM     33  C   UNL     1       5.401  -1.639  24.030  0.00  0.00    +0.004 A 
ATOM     34  C   UNL     1       6.530  -0.859  24.279  0.00  0.00    +0.000 A 
ENDBRANCH   5  26
ENDBRANCH  22   5
ENDBRANCH   8  16
BRANCH  14  17
ATOM     17  C   UNL     1      -6.342   3.060  25.860  0.00  0.00    +0.324 C 
BRANCH  17   4
ATOM      4  O   UNL     1      -5.891   4.334  25.468  0.00  0.00    -0.483 OA
BRANCH   4  23
ATOM     23  C   UNL     1      -4.559   4.460  25.140  0.00  0.00    +0.121 A 
ATOM     24  C   UNL     1      -4.142   4.152  23.855  0.00  0.00    +0.045 A 
ATOM     25  C   UNL     1      -3.660   4.893  26.104  0.00  0.00    +0.045 A 
ATOM     27  C   UNL     1      -2.792   4.280  23.524  0.00  0.00    +0.004 A 
ATOM     28  C   UNL     1      -2.311   5.019  25.773  0.00  0.00    +0.004 A 
ATOM     29  C   UNL     1      -1.877   4.713  24.483  0.00  0.00    +0.000 A 
ENDBRANCH   4  23
ENDBRANCH  17   4
ENDBRANCH  14  17
TORSDOF 6
ENDMDL
MODEL 2
REMARK VINA RESULT:       6.0      1.843      4.014
REMARK  Name = 11887644
REMARK  6 active torsions:
REMARK  status: ('A' for Active; 'I' for Inactive)
REMARK    1  A    between atoms: O_4  and  C_17
REMARK    2  A    between atoms: O_4  and  C_23
REMARK    3  A    between atoms: O_5  and  C_22
REMARK    4  A    between atoms: O_5  and  C_26
REMARK    5  A    between atoms: N_8  and  C_16
REMARK    6  A    between atoms: C_14  and  C_17
REMARK                            x       y       z     vdW  Elec       q    Type
REMARK                         _______ _______ _______ _____ _____    ______ ____
ROOT
ATOM      1  O   UNL     1      -2.663   1.410  24.146  0.00  0.00    -0.273 OA
ATOM      2  O   UNL     1      -5.583   2.181  23.442  0.00  0.00    -0.272 OA
ATOM      3  O   UNL     1       0.562   4.833  24.233  0.00  0.00    -0.252 OA
ATOM      6  N   UNL     1      -4.466   3.109  25.243  0.00  0.00    -0.285 N 
ATOM      7  N   UNL     1      -1.503   5.171  25.087  0.00  0.00    -0.293 N 
ATOM      8  N   UNL     1      -0.980   3.054  24.150  0.00  0.00    -0.193 N 
ATOM      9  C   UNL     1      -2.842   4.770  25.400  0.00  0.00    +0.105 C 
ATOM     10  C   UNL     1      -3.356   3.683  24.481  0.00  0.00    +0.183 C 
ATOM     11  C   UNL     1      -3.015   4.162  26.791  0.00  0.00    +0.043 C 
ATOM     12  C   UNL     1      -4.353   3.442  26.665  0.00  0.00    +0.110 C 
ATOM     13  C   UNL     1      -2.317   2.589  24.248  0.00  0.00    +0.250 C 
ATOM     14  C   UNL     1      -5.523   2.444  24.645  0.00  0.00    +0.254 C 
ATOM     15  C   UNL     1      -0.554   4.368  24.485  0.00  0.00    +0.313 C 
ATOM     35  H   UNL     1      -1.220   6.113  25.343  0.00  0.00    +0.151 HD
ENDROOT
BRANCH   8  16
ATOM     16  C   UNL     1       0.025   2.116  23.694  0.00  0.00    +0.046 A 
ATOM     18  C   UNL     1      -0.352   0.829  23.333  0.00  0.00    +0.027 A 
ATOM     19  C   UNL     1       1.352   2.516  23.625  0.00  0.00    +0.027 A 
ATOM     20  C   UNL     1       0.617  -0.074  22.893  0.00  0.00    +0.048 A 
ATOM     21  C   UNL     1       2.321   1.613  23.186  0.00  0.00    +0.048 A 
ATOM     22  C   UNL     1       1.953   0.318  22.820  0.00  0.00    +0.129 A 
BRANCH  22   5
ATOM      5  O   UNL     1       2.898  -0.564  22.394  0.00  0.00    -0.456 OA
BRANCH   5  26
ATOM     26  C   UNL     1       4.116  -0.570  23.053  0.00  0.00    +0.128 A 
ATOM     30  C   UNL     1       4.937   0.539  22.964  0.00  0.00    +0.046 A 
ATOM     31  C   UNL     1       4.480  -1.687  23.784  0.00  0.00    +0.046 A 
ATOM     32  C   UNL     1       6.164   0.532  23.628  0.00  0.00    +0.004 A 
ATOM     33  C   UNL     1       5.707  -1.694  24.447  0.00  0.00    +0.004 A 
ATOM     34  C   UNL     1       6.549  -0.585  24.370  0.00  0.00    +0.000 A 
ENDBRANCH   5  26
ENDBRANCH  22   5
ENDBRANCH   8  16
BRANCH  14  17
ATOM     17  C   UNL     1      -6.640   2.033  25.571  0.00  0.00    +0.324 C 
BRANCH  17   4
ATOM      4  O   UNL     1      -6.143   0.977  26.357  0.00  0.00    -0.483 OA
BRANCH   4  23
ATOM     23  C   UNL     1      -5.256   0.108  25.760  0.00  0.00    +0.121 A 
ATOM     24  C   UNL     1      -4.125  -0.294  26.452  0.00  0.00    +0.045 A 
ATOM     25  C   UNL     1      -5.511  -0.347  24.474  0.00  0.00    +0.045 A 
ATOM     27  C   UNL     1      -3.227  -1.173  25.846  0.00  0.00    +0.004 A 
ATOM     28  C   UNL     1      -4.614  -1.225  23.868  0.00  0.00    +0.004 A 
ATOM     29  C   UNL     1      -3.471  -1.639  24.554  0.00  0.00    +0.000 A 
ENDBRANCH   4  23
ENDBRANCH  17   4
ENDBRANCH  14  17
TORSDOF 6
ENDMDL
MODEL 3
REMARK VINA RESULT:       7.2      1.410      1.906
REMARK  Name = 11887644
REMARK  6 active torsions:
REMARK  status: ('A' for Active; 'I' for Inactive)
REMARK    1  A    between atoms: O_4  and  C_17
REMARK    2  A    between atoms: O_4  and  C_23
REMARK    3  A    between atoms: O_5  and  C_22
REMARK    4  A    between atoms: O_5  and  C_26
REMARK    5  A    between atoms: N_8  and  C_16
REMARK    6  A    between atoms: C_14  and  C_17
REMARK                            x       y       z     vdW  Elec       q    Type
REMARK                         _______ _______ _______ _____ _____    ______ ____
ROOT
ATOM      1  O   UNL     1      -1.897   1.635  25.118  0.00  0.00    -0.273 OA
ATOM      2  O   UNL     1      -3.410   3.443  27.132  0.00  0.00    -0.272 OA
ATOM      3  O   UNL     1      -3.105  -2.906  24.893  0.00  0.00    -0.252 OA
ATOM      6  N   UNL     1      -4.505   2.291  25.451  0.00  0.00    -0.285 N 
ATOM      7  N   UNL     1      -4.683  -1.301  25.090  0.00  0.00    -0.293 N 
ATOM      8  N   UNL     1      -2.400  -0.659  24.989  0.00  0.00    -0.193 N 
ATOM      9  C   UNL     1      -5.121   0.057  25.220  0.00  0.00    +0.105 C 
ATOM     10  C   UNL     1      -4.077   0.950  25.854  0.00  0.00    +0.183 C 
ATOM     11  C   UNL     1      -5.423   0.759  23.896  0.00  0.00    +0.043 C 
ATOM     12  C   UNL     1      -5.405   2.229  24.298  0.00  0.00    +0.110 C 
ATOM     13  C   UNL     1      -2.683   0.699  25.282  0.00  0.00    +0.250 C 
ATOM     14  C   UNL     1      -4.173   3.431  26.165  0.00  0.00    +0.254 C 
ATOM     15  C   UNL     1      -3.367  -1.701  24.966  0.00  0.00    +0.313 C 
ATOM     35  H   UNL     1      -5.394  -2.026  25.068  0.00  0.00    +0.151 HD
ENDROOT
BRANCH   8  16
ATOM     16  C   UNL     1      -1.029  -1.007  24.673  0.00  0.00    +0.046 A 
ATOM     18  C   UNL     1      -0.375  -1.969  25.431  0.00  0.00    +0.027 A 
ATOM     19  C   UNL     1      -0.388  -0.372  23.619  0.00  0.00    +0.027 A 
ATOM     20  C   UNL     1       0.945  -2.303  25.127  0.00  0.00    +0.048 A 
ATOM     21  C   UNL     1       0.932  -0.706  23.315  0.00  0.00    +0.048 A 
ATOM     22  C   UNL     1       1.598  -1.671  24.069  0.00  0.00    +0.129 A 
BRANCH  22   5
ATOM      5  O   UNL     1       2.887  -1.996  23.774  0.00  0.00    -0.456 OA
BRANCH   5  26
ATOM     26  C   UNL     1       3.793  -0.959  23.624  0.00  0.00    +0.128 A 
ATOM     30  C   UNL     1       5.041  -1.065  24.212  0.00  0.00    +0.046 A 
ATOM     31  C   UNL     1       3.428   0.155  22.890  0.00  0.00    +0.046 A 
ATOM     32  C   UNL     1       5.953  -0.021  24.061  0.00  0.00    +0.004 A 
ATOM     33  C   UNL     1       4.340   1.198  22.740  0.00  0.00    +0.004 A 
ATOM     34  C   UNL     1       5.603   1.111  23.325  0.00  0.00    +0.000 A 
ENDBRANCH   5  26
ENDBRANCH  22   5
ENDBRANCH   8  16
BRANCH  14  17
ATOM     17  C   UNL     1      -4.808   4.709  25.677  0.00  0.00    +0.324 C 
BRANCH  17   4
ATOM      4  O   UNL     1      -4.180   5.032  24.460  0.00  0.00    -0.483 OA
BRANCH   4  23
ATOM     23  C   UNL     1      -2.842   4.728  24.340  0.00  0.00    +0.121 A 
ATOM     24  C   UNL     1      -2.442   3.759  23.434  0.00  0.00    +0.045 A 
ATOM     25  C   UNL     1      -1.918   5.398  25.129  0.00  0.00    +0.045 A 
ATOM     27  C   UNL     1      -1.086   3.451  23.313  0.00  0.00    +0.004 A 
ATOM     28  C   UNL     1      -0.563   5.090  25.009  0.00  0.00    +0.004 A 
ATOM     29  C   UNL     1      -0.147   4.117  24.101  0.00  0.00    +0.000 A 
ENDBRANCH   4  23
ENDBRANCH  17   4
ENDBRANCH  14  17
TORSDOF 6
ENDMDL
