MODEL 1
REMARK VINA RESULT:       0.5      0.000      0.000
REMARK  Name = 51137535
REMARK  7 active torsions:
REMARK  status: ('A' for Active; 'I' for Inactive)
REMARK    1  A    between atoms: N_2  and  C_7
REMARK    2  A    between atoms: N_3  and  C_17
REMARK    3  A    between atoms: N_6  and  C_24
REMARK    4  A    between atoms: N_6  and  C_25
REMARK    5  A    between atoms: N_6  and  C_26
REMARK    6  A    between atoms: C_9  and  C_16
REMARK    7  A    between atoms: C_18  and  C_19
REMARK                            x       y       z     vdW  Elec       q    Type
REMARK                         _______ _______ _______ _____ _____    ______ ____
ROOT
ATOM      1  O   UNL     1      -4.040  -9.498  11.069  0.00  0.00    -0.420 OA
ATOM      4  N   UNL     1      -2.086  -8.951  10.130  0.00  0.00    -0.112 NA
ATOM      5  N   UNL     1      -3.098  -8.473   9.319  0.00  0.00    -0.107 NA
ATOM     16  C   UNL     1      -2.682  -9.542  11.139  0.00  0.00    +0.222 A 
ATOM     18  C   UNL     1      -4.221  -8.816   9.906  0.00  0.00    +0.248 A 
ENDROOT
BRANCH  18  19
ATOM     19  C   UNL     1      -5.583  -8.585   9.518  0.00  0.00    +0.039 A 
ATOM     20  C   UNL     1      -6.006  -7.296   9.192  0.00  0.00    +0.015 A 
ATOM     21  C   UNL     1      -6.483  -9.649   9.466  0.00  0.00    +0.015 A 
ATOM     22  C   UNL     1      -7.329  -7.072   8.814  0.00  0.00    +0.024 A 
ATOM     23  C   UNL     1      -7.807  -9.425   9.088  0.00  0.00    +0.024 A 
ATOM     24  C   UNL     1      -8.230  -8.136   8.763  0.00  0.00    +0.029 A 
BRANCH  24   6
ATOM      6  N   UNL     1      -9.569  -7.909   8.382  0.00  0.00    -0.336 N 
ATOM     25  C   UNL     1     -10.490  -9.019   8.242  0.00  0.00    +0.129 C 
ATOM     26  C   UNL     1     -10.043  -6.563   8.131  0.00  0.00    +0.129 C 
ENDBRANCH  24   6
ENDBRANCH  18  19
BRANCH  16   9
ATOM      2  N   UNL     1      -2.428 -10.681  14.612  0.00  0.00    -0.299 NA
ATOM      8  C   UNL     1      -3.137 -10.737  13.332  0.00  0.00    +0.097 C 
ATOM      9  C   UNL     1      -2.081 -10.244  12.334  0.00  0.00    +0.092 C 
ATOM     10  C   UNL     1      -1.700  -9.412  14.585  0.00  0.00    +0.085 C 
ATOM     11  C   UNL     1      -1.123  -9.383  13.175  0.00  0.00    +0.029 C 
BRANCH   2   7
ATOM      3  N   UNL     1      -5.496  -9.640  17.363  0.00  0.00    -0.305 NA
ATOM      7  C   UNL     1      -3.332 -10.779  15.756  0.00  0.00    +0.059 C 
ATOM     12  C   UNL     1      -3.101  -9.625  16.736  0.00  0.00    +0.034 C 
ATOM     13  C   UNL     1      -4.787 -10.779  15.283  0.00  0.00    +0.034 C 
ATOM     14  C   UNL     1      -4.120  -9.665  17.879  0.00  0.00    +0.085 C 
ATOM     15  C   UNL     1      -5.751 -10.781  16.472  0.00  0.00    +0.085 C 
ATOM     17  C   UNL     1      -6.455  -9.627  18.466  0.00  0.00    +0.104 C 
ENDBRANCH   2   7
ENDBRANCH  16   9
TORSDOF 4
ENDMDL
