MODEL 1
REMARK VINA RESULT:      -5.5      0.000      0.000
REMARK  Name = 75536815
REMARK  8 active torsions:
REMARK  status: ('A' for Active; 'I' for Inactive)
REMARK    1  A    between atoms: O_3  and  C_9
REMARK    2  A    between atoms: O_5  and  C_17
REMARK    3  A    between atoms: O_5  and  C_18
REMARK    4  A    between atoms: N_6  and  C_8
REMARK    5  A    between atoms: N_6  and  C_11
REMARK    6  A    between atoms: N_7  and  C_15
REMARK    7  A    between atoms: C_10  and  C_15
REMARK    8  A    between atoms: C_16  and  C_17
REMARK                            x       y       z     vdW  Elec       q    Type
REMARK                         _______ _______ _______ _____ _____    ______ ____
ROOT
ATOM      1  O   UNL     1      -0.639   1.212  26.102  0.00  0.00    -0.371 OA
ATOM      8  C   UNL     1      -0.639  -0.780  24.809  0.00  0.00    +0.111 C 
ATOM      9  C   UNL     1      -0.486   0.411  23.882  0.00  0.00    +0.164 C 
ATOM     10  C   UNL     1       0.017   1.473  24.850  0.00  0.00    +0.165 C 
ATOM     12  C   UNL     1      -1.185  -0.118  26.063  0.00  0.00    +0.181 C 
ENDROOT
BRANCH   9   3
ATOM      3  O   UNL     1       0.434   0.173  22.834  0.00  0.00    -0.388 OA
ATOM     20  H   UNL     1       0.976   0.971  22.716  0.00  0.00    +0.210 HD
ENDBRANCH   9   3
BRANCH   8   6
ATOM      6  N   UNL     1      -1.515  -1.817  24.288  0.00  0.00    -0.302 NA
ATOM     19  H   UNL     1      -1.562  -1.755  23.272  0.00  0.00    +0.123 HD
BRANCH   6  11
ATOM      2  O   UNL     1      -4.346  -2.443  23.644  0.00  0.00    -0.377 OA
ATOM     11  C   UNL     1      -2.820  -1.739  24.958  0.00  0.00    +0.106 C 
ATOM     13  C   UNL     1      -3.585  -3.042  24.724  0.00  0.00    +0.180 C 
ATOM     14  C   UNL     1      -3.838  -1.131  23.993  0.00  0.00    +0.180 C 
ENDBRANCH   6  11
ENDBRANCH   8   6
BRANCH  10  15
ATOM     15  C   UNL     1      -0.288   2.890  24.397  0.00  0.00    +0.138 C 
BRANCH  15   7
ATOM      4  O   UNL     1      -2.389   4.109  25.968  0.00  0.00    -0.273 OA
ATOM      7  N   UNL     1      -1.668   3.036  24.032  0.00  0.00    -0.311 N 
ATOM     16  C   UNL     1      -2.614   3.640  24.857  0.00  0.00    +0.239 C 
ATOM     21  H   UNL     1      -1.962   2.669  23.133  0.00  0.00    +0.149 HD
BRANCH  16  17
ATOM     17  C   UNL     1      -3.989   3.659  24.223  0.00  0.00    +0.255 C 
BRANCH  17   5
ATOM      5  O   UNL     1      -4.581   2.379  24.279  0.00  0.00    -0.374 OA
ATOM     18  C   UNL     1      -5.504   2.267  25.358  0.00  0.00    +0.194 C 
ENDBRANCH  17   5
ENDBRANCH  16  17
ENDBRANCH  15   7
ENDBRANCH  10  15
TORSDOF 7
ENDMDL
MODEL 2
REMARK VINA RESULT:      -5.5      1.675      5.741
REMARK  Name = 75536815
REMARK  8 active torsions:
REMARK  status: ('A' for Active; 'I' for Inactive)
REMARK    1  A    between atoms: O_3  and  C_9
REMARK    2  A    between atoms: O_5  and  C_17
REMARK    3  A    between atoms: O_5  and  C_18
REMARK    4  A    between atoms: N_6  and  C_8
REMARK    5  A    between atoms: N_6  and  C_11
REMARK    6  A    between atoms: N_7  and  C_15
REMARK    7  A    between atoms: C_10  and  C_15
REMARK    8  A    between atoms: C_16  and  C_17
REMARK                            x       y       z     vdW  Elec       q    Type
REMARK                         _______ _______ _______ _____ _____    ______ ____
ROOT
ATOM      1  O   UNL     1      -5.351   1.449  25.696  0.00  0.00    -0.371 OA
ATOM      8  C   UNL     1      -4.249   2.889  24.160  0.00  0.00    +0.111 C 
ATOM      9  C   UNL     1      -3.524   1.557  24.197  0.00  0.00    +0.164 C 
ATOM     10  C   UNL     1      -4.607   0.648  24.762  0.00  0.00    +0.165 C 
ATOM     12  C   UNL     1      -5.046   2.834  25.453  0.00  0.00    +0.181 C 
ENDROOT
BRANCH   9   3
ATOM      3  O   UNL     1      -3.094   1.134  22.917  0.00  0.00    -0.388 OA
ATOM     20  H   UNL     1      -2.385   1.729  22.621  0.00  0.00    +0.210 HD
ENDBRANCH   9   3
BRANCH   8   6
ATOM      6  N   UNL     1      -3.360   4.037  24.091  0.00  0.00    -0.302 NA
ATOM     19  H   UNL     1      -2.915   4.078  23.174  0.00  0.00    +0.123 HD
BRANCH   6  11
ATOM      2  O   UNL     1      -0.531   4.783  24.604  0.00  0.00    -0.377 OA
ATOM     11  C   UNL     1      -2.417   3.997  25.217  0.00  0.00    +0.106 C 
ATOM     13  C   UNL     1      -1.678   5.332  25.302  0.00  0.00    +0.180 C 
ATOM     14  C   UNL     1      -1.079   3.446  24.725  0.00  0.00    +0.180 C 
ENDBRANCH   6  11
ENDBRANCH   8   6
BRANCH  10  15
ATOM     15  C   UNL     1      -4.055  -0.579  25.465  0.00  0.00    +0.138 C 
BRANCH  15   7
ATOM      4  O   UNL     1      -2.405  -2.643  24.287  0.00  0.00    -0.273 OA
ATOM      7  N   UNL     1      -2.621  -0.613  25.405  0.00  0.00    -0.311 N 
ATOM     16  C   UNL     1      -1.908  -1.653  24.816  0.00  0.00    +0.239 C 
ATOM     21  H   UNL     1      -2.111   0.158  25.825  0.00  0.00    +0.149 HD
BRANCH  16  17
ATOM     17  C   UNL     1      -0.412  -1.431  24.894  0.00  0.00    +0.255 C 
BRANCH  17   5
ATOM      5  O   UNL     1      -0.087  -0.100  24.555  0.00  0.00    -0.374 OA
ATOM     18  C   UNL     1       0.553  -0.017  23.285  0.00  0.00    +0.194 C 
ENDBRANCH  17   5
ENDBRANCH  16  17
ENDBRANCH  15   7
ENDBRANCH  10  15
TORSDOF 7
ENDMDL
MODEL 3
REMARK VINA RESULT:      -5.1      1.567      4.639
REMARK  Name = 75536815
REMARK  8 active torsions:
REMARK  status: ('A' for Active; 'I' for Inactive)
REMARK    1  A    between atoms: O_3  and  C_9
REMARK    2  A    between atoms: O_5  and  C_17
REMARK    3  A    between atoms: O_5  and  C_18
REMARK    4  A    between atoms: N_6  and  C_8
REMARK    5  A    between atoms: N_6  and  C_11
REMARK    6  A    between atoms: N_7  and  C_15
REMARK    7  A    between atoms: C_10  and  C_15
REMARK    8  A    between atoms: C_16  and  C_17
REMARK                            x       y       z     vdW  Elec       q    Type
REMARK                         _______ _______ _______ _____ _____    ______ ____
ROOT
ATOM      1  O   UNL     1      -1.416   1.527  22.960  0.00  0.00    -0.371 OA
ATOM      8  C   UNL     1      -2.158   3.077  24.600  0.00  0.00    +0.111 C 
ATOM      9  C   UNL     1      -1.064   2.211  25.196  0.00  0.00    +0.164 C 
ATOM     10  C   UNL     1      -0.377   1.698  23.938  0.00  0.00    +0.165 C 
ATOM     12  C   UNL     1      -2.582   2.243  23.403  0.00  0.00    +0.181 C 
ENDROOT
BRANCH   9   3
ATOM      3  O   UNL     1      -0.177   2.943  26.021  0.00  0.00    -0.388 OA
ATOM     20  H   UNL     1       0.215   3.657  25.490  0.00  0.00    +0.210 HD
ENDBRANCH   9   3
BRANCH   8   6
ATOM      6  N   UNL     1      -3.252   3.349  25.518  0.00  0.00    -0.302 NA
ATOM     19  H   UNL     1      -3.113   2.835  26.388  0.00  0.00    +0.123 HD
BRANCH   6  11
ATOM      2  O   UNL     1      -6.026   2.647  26.315  0.00  0.00    -0.377 OA
ATOM     11  C   UNL     1      -4.532   3.071  24.852  0.00  0.00    +0.106 C 
ATOM     13  C   UNL     1      -5.647   3.832  25.569  0.00  0.00    +0.180 C 
ATOM     14  C   UNL     1      -5.162   1.831  25.485  0.00  0.00    +0.180 C 
ENDBRANCH   6  11
ENDBRANCH   8   6
BRANCH  10  15
ATOM     15  C   UNL     1       0.353   0.384  24.146  0.00  0.00    +0.138 C 
BRANCH  15   7
ATOM      4  O   UNL     1      -1.179  -1.015  26.163  0.00  0.00    -0.273 OA
ATOM      7  N   UNL     1      -0.521  -0.736  23.947  0.00  0.00    -0.311 N 
ATOM     16  C   UNL     1      -1.222  -1.350  24.982  0.00  0.00    +0.239 C 
ATOM     21  H   UNL     1      -0.619  -1.099  23.004  0.00  0.00    +0.149 HD
BRANCH  16  17
ATOM     17  C   UNL     1      -2.068  -2.504  24.489  0.00  0.00    +0.255 C 
BRANCH  17   5
ATOM      5  O   UNL     1      -3.405  -2.361  24.918  0.00  0.00    -0.374 OA
ATOM     18  C   UNL     1      -4.208  -1.701  23.944  0.00  0.00    +0.194 C 
ENDBRANCH  17   5
ENDBRANCH  16  17
ENDBRANCH  15   7
ENDBRANCH  10  15
TORSDOF 7
ENDMDL
MODEL 4
REMARK VINA RESULT:      -5.1      1.630      3.929
REMARK  Name = 75536815
REMARK  8 active torsions:
REMARK  status: ('A' for Active; 'I' for Inactive)
REMARK    1  A    between atoms: O_3  and  C_9
REMARK    2  A    between atoms: O_5  and  C_17
REMARK    3  A    between atoms: O_5  and  C_18
REMARK    4  A    between atoms: N_6  and  C_8
REMARK    5  A    between atoms: N_6  and  C_11
REMARK    6  A    between atoms: N_7  and  C_15
REMARK    7  A    between atoms: C_10  and  C_15
REMARK    8  A    between atoms: C_16  and  C_17
REMARK                            x       y       z     vdW  Elec       q    Type
REMARK                         _______ _______ _______ _____ _____    ______ ____
ROOT
ATOM      1  O   UNL     1      -3.135  -1.993  24.729  0.00  0.00    -0.371 OA
ATOM      8  C   UNL     1      -0.961  -1.159  25.198  0.00  0.00    +0.111 C 
ATOM      9  C   UNL     1      -1.908   0.010  25.002  0.00  0.00    +0.164 C 
ATOM     10  C   UNL     1      -3.254  -0.658  25.247  0.00  0.00    +0.165 C 
ATOM     12  C   UNL     1      -1.739  -2.289  24.546  0.00  0.00    +0.181 C 
ENDROOT
BRANCH   9   3
ATOM      3  O   UNL     1      -1.668   1.066  25.913  0.00  0.00    -0.388 OA
ATOM     20  H   UNL     1      -2.489   1.237  26.405  0.00  0.00    +0.210 HD
ENDBRANCH   9   3
BRANCH   8   6
ATOM      6  N   UNL     1       0.350  -0.955  24.602  0.00  0.00    -0.302 NA
ATOM     19  H   UNL     1       1.023  -0.697  25.323  0.00  0.00    +0.123 HD
BRANCH   6  11
ATOM      2  O   UNL     1       2.177   0.783  23.034  0.00  0.00    -0.377 OA
ATOM     11  C   UNL     1       0.244   0.010  23.501  0.00  0.00    +0.106 C 
ATOM     13  C   UNL     1       1.346  -0.269  22.479  0.00  0.00    +0.180 C 
ATOM     14  C   UNL     1       1.071   1.249  23.846  0.00  0.00    +0.180 C 
ENDBRANCH   6  11
ENDBRANCH   8   6
BRANCH  10  15
ATOM     15  C   UNL     1      -4.409   0.055  24.568  0.00  0.00    +0.138 C 
BRANCH  15   7
ATOM      4  O   UNL     1      -5.978   1.991  26.040  0.00  0.00    -0.273 OA
ATOM      7  N   UNL     1      -4.230   1.479  24.590  0.00  0.00    -0.311 N 
ATOM     16  C   UNL     1      -5.037   2.338  25.331  0.00  0.00    +0.239 C 
ATOM     21  H   UNL     1      -3.482   1.871  24.026  0.00  0.00    +0.149 HD
BRANCH  16  17
ATOM     17  C   UNL     1      -4.623   3.785  25.170  0.00  0.00    +0.255 C 
BRANCH  17   5
ATOM      5  O   UNL     1      -3.332   3.875  24.608  0.00  0.00    -0.374 OA
ATOM     18  C   UNL     1      -2.392   4.434  25.522  0.00  0.00    +0.194 C 
ENDBRANCH  17   5
ENDBRANCH  16  17
ENDBRANCH  15   7
ENDBRANCH  10  15
TORSDOF 7
ENDMDL
MODEL 5
REMARK VINA RESULT:      -4.6      1.912      2.688
REMARK  Name = 75536815
REMARK  8 active torsions:
REMARK  status: ('A' for Active; 'I' for Inactive)
REMARK    1  A    between atoms: O_3  and  C_9
REMARK    2  A    between atoms: O_5  and  C_17
REMARK    3  A    between atoms: O_5  and  C_18
REMARK    4  A    between atoms: N_6  and  C_8
REMARK    5  A    between atoms: N_6  and  C_11
REMARK    6  A    between atoms: N_7  and  C_15
REMARK    7  A    between atoms: C_10  and  C_15
REMARK    8  A    between atoms: C_16  and  C_17
REMARK                            x       y       z     vdW  Elec       q    Type
REMARK                         _______ _______ _______ _____ _____    ______ ____
ROOT
ATOM      1  O   UNL     1      -0.532   3.388  25.707  0.00  0.00    -0.371 OA
ATOM      8  C   UNL     1      -0.427   1.648  24.093  0.00  0.00    +0.111 C 
ATOM      9  C   UNL     1      -1.836   2.209  24.126  0.00  0.00    +0.164 C 
ATOM     10  C   UNL     1      -1.595   3.572  24.758  0.00  0.00    +0.165 C 
ATOM     12  C   UNL     1       0.123   2.139  25.422  0.00  0.00    +0.181 C 
ENDROOT
BRANCH   9   3
ATOM      3  O   UNL     1      -2.410   2.318  22.837  0.00  0.00    -0.388 OA
ATOM     20  H   UNL     1      -1.824   1.871  22.203  0.00  0.00    +0.210 HD
ENDBRANCH   9   3
BRANCH   8   6
ATOM      6  N   UNL     1      -0.376   0.201  23.960  0.00  0.00    -0.302 NA
ATOM     19  H   UNL     1      -0.726  -0.076  23.043  0.00  0.00    +0.123 HD
BRANCH   6  11
ATOM      2  O   UNL     1      -1.398  -2.492  24.684  0.00  0.00    -0.377 OA
ATOM     11  C   UNL     1      -1.081  -0.421  25.088  0.00  0.00    +0.106 C 
ATOM     13  C   UNL     1      -0.405  -1.747  25.434  0.00  0.00    +0.180 C 
ATOM     14  C   UNL     1      -2.210  -1.298  24.545  0.00  0.00    +0.180 C 
ENDBRANCH   6  11
ENDBRANCH   8   6
BRANCH  10  15
ATOM     15  C   UNL     1      -2.819   4.132  25.461  0.00  0.00    +0.138 C 
BRANCH  15   7
ATOM      4  O   UNL     1      -5.673   4.547  25.685  0.00  0.00    -0.273 OA
ATOM      7  N   UNL     1      -3.829   3.127  25.630  0.00  0.00    -0.311 N 
ATOM     16  C   UNL     1      -5.187   3.420  25.729  0.00  0.00    +0.239 C 
ATOM     21  H   UNL     1      -3.530   2.159  25.689  0.00  0.00    +0.149 HD
BRANCH  16  17
ATOM     17  C   UNL     1      -6.026   2.172  25.900  0.00  0.00    +0.255 C 
BRANCH  17   5
ATOM      5  O   UNL     1      -5.988   1.381  24.732  0.00  0.00    -0.374 OA
ATOM     18  C   UNL     1      -5.008   0.351  24.819  0.00  0.00    +0.194 C 
ENDBRANCH  17   5
ENDBRANCH  16  17
ENDBRANCH  15   7
ENDBRANCH  10  15
TORSDOF 7
ENDMDL
MODEL 6
REMARK VINA RESULT:      -4.6      2.819      5.740
REMARK  Name = 75536815
REMARK  8 active torsions:
REMARK  status: ('A' for Active; 'I' for Inactive)
REMARK    1  A    between atoms: O_3  and  C_9
REMARK    2  A    between atoms: O_5  and  C_17
REMARK    3  A    between atoms: O_5  and  C_18
REMARK    4  A    between atoms: N_6  and  C_8
REMARK    5  A    between atoms: N_6  and  C_11
REMARK    6  A    between atoms: N_7  and  C_15
REMARK    7  A    between atoms: C_10  and  C_15
REMARK    8  A    between atoms: C_16  and  C_17
REMARK                            x       y       z     vdW  Elec       q    Type
REMARK                         _______ _______ _______ _____ _____    ______ ____
ROOT
ATOM      1  O   UNL     1       0.256   2.226  24.549  0.00  0.00    -0.371 OA
ATOM      8  C   UNL     1      -2.073   2.130  25.007  0.00  0.00    +0.111 C 
ATOM      9  C   UNL     1      -1.678   0.910  24.197  0.00  0.00    +0.164 C 
ATOM     10  C   UNL     1      -0.178   0.859  24.456  0.00  0.00    +0.165 C 
ATOM     12  C   UNL     1      -0.901   3.060  24.743  0.00  0.00    +0.181 C 
ENDROOT
BRANCH   9   3
ATOM      3  O   UNL     1      -2.329  -0.268  24.632  0.00  0.00    -0.388 OA
ATOM     20  H   UNL     1      -1.747  -0.724  25.264  0.00  0.00    +0.210 HD
ENDBRANCH   9   3
BRANCH   8   6
ATOM      6  N   UNL     1      -3.350   2.703  24.613  0.00  0.00    -0.302 NA
ATOM     19  H   UNL     1      -3.224   3.675  24.331  0.00  0.00    +0.123 HD
BRANCH   6  11
ATOM      2  O   UNL     1      -6.272   2.226  24.857  0.00  0.00    -0.377 OA
ATOM     11  C   UNL     1      -4.329   2.511  25.691  0.00  0.00    +0.106 C 
ATOM     13  C   UNL     1      -5.237   1.332  25.342  0.00  0.00    +0.180 C 
ATOM     14  C   UNL     1      -5.562   3.367  25.402  0.00  0.00    +0.180 C 
ENDBRANCH   6  11
ENDBRANCH   8   6
BRANCH  10  15
ATOM     15  C   UNL     1       0.596   0.148  23.361  0.00  0.00    +0.138 C 
BRANCH  15   7
ATOM      4  O   UNL     1       2.495  -0.231  21.211  0.00  0.00    -0.273 OA
ATOM      7  N   UNL     1       1.966   0.572  23.331  0.00  0.00    -0.311 N 
ATOM     16  C   UNL     1       2.811   0.346  22.248  0.00  0.00    +0.239 C 
ATOM     21  H   UNL     1       2.332   1.052  24.148  0.00  0.00    +0.149 HD
BRANCH  16  17
ATOM     17  C   UNL     1       4.200   0.899  22.485  0.00  0.00    +0.255 C 
BRANCH  17   5
ATOM      5  O   UNL     1       4.612   0.659  23.814  0.00  0.00    -0.374 OA
ATOM     18  C   UNL     1       5.303  -0.580  23.941  0.00  0.00    +0.194 C 
ENDBRANCH  17   5
ENDBRANCH  16  17
ENDBRANCH  15   7
ENDBRANCH  10  15
TORSDOF 7
ENDMDL
MODEL 7
REMARK VINA RESULT:      -3.9      1.828      4.756
REMARK  Name = 75536815
REMARK  8 active torsions:
REMARK  status: ('A' for Active; 'I' for Inactive)
REMARK    1  A    between atoms: O_3  and  C_9
REMARK    2  A    between atoms: O_5  and  C_17
REMARK    3  A    between atoms: O_5  and  C_18
REMARK    4  A    between atoms: N_6  and  C_8
REMARK    5  A    between atoms: N_6  and  C_11
REMARK    6  A    between atoms: N_7  and  C_15
REMARK    7  A    between atoms: C_10  and  C_15
REMARK    8  A    between atoms: C_16  and  C_17
REMARK                            x       y       z     vdW  Elec       q    Type
REMARK                         _______ _______ _______ _____ _____    ______ ____
ROOT
ATOM      1  O   UNL     1      -0.989   4.153  25.488  0.00  0.00    -0.371 OA
ATOM      8  C   UNL     1      -3.234   3.452  25.160  0.00  0.00    +0.111 C 
ATOM      9  C   UNL     1      -2.313   2.259  24.986  0.00  0.00    +0.164 C 
ATOM     10  C   UNL     1      -1.071   2.737  25.724  0.00  0.00    +0.165 C 
ATOM     12  C   UNL     1      -2.263   4.609  24.999  0.00  0.00    +0.181 C 
ENDROOT
BRANCH   9   3
ATOM      3  O   UNL     1      -2.841   1.075  25.553  0.00  0.00    -0.388 OA
ATOM     20  H   UNL     1      -3.680   1.293  25.993  0.00  0.00    +0.210 HD
ENDBRANCH   9   3
BRANCH   8   6
ATOM      6  N   UNL     1      -4.326   3.491  24.201  0.00  0.00    -0.302 NA
ATOM     19  H   UNL     1      -4.231   4.309  23.599  0.00  0.00    +0.123 HD
BRANCH   6  11
ATOM      2  O   UNL     1      -5.696   1.601  26.038  0.00  0.00    -0.377 OA
ATOM     11  C   UNL     1      -5.609   3.412  24.912  0.00  0.00    +0.106 C 
ATOM     13  C   UNL     1      -5.357   2.976  26.356  0.00  0.00    +0.180 C 
ATOM     14  C   UNL     1      -6.188   2.009  24.736  0.00  0.00    +0.180 C 
ENDBRANCH   6  11
ENDBRANCH   8   6
BRANCH  10  15
ATOM     15  C   UNL     1       0.205   2.064  25.251  0.00  0.00    +0.138 C 
BRANCH  15   7
ATOM      4  O   UNL     1       0.043   0.373  22.909  0.00  0.00    -0.273 OA
ATOM      7  N   UNL     1       0.061   0.636  25.222  0.00  0.00    -0.311 N 
ATOM     16  C   UNL     1      -0.009  -0.099  24.042  0.00  0.00    +0.239 C 
ATOM     21  H   UNL     1      -0.002   0.148  26.110  0.00  0.00    +0.149 HD
BRANCH  16  17
ATOM     17  C   UNL     1      -0.159  -1.582  24.305  0.00  0.00    +0.255 C 
BRANCH  17   5
ATOM      5  O   UNL     1      -1.262  -1.829  25.149  0.00  0.00    -0.374 OA
ATOM     18  C   UNL     1      -2.383  -2.330  24.425  0.00  0.00    +0.194 C 
ENDBRANCH  17   5
ENDBRANCH  16  17
ENDBRANCH  15   7
ENDBRANCH  10  15
TORSDOF 7
ENDMDL
MODEL 8
REMARK VINA RESULT:      -3.9     16.289     18.411
REMARK  Name = 75536815
REMARK  8 active torsions:
REMARK  status: ('A' for Active; 'I' for Inactive)
REMARK    1  A    between atoms: O_3  and  C_9
REMARK    2  A    between atoms: O_5  and  C_17
REMARK    3  A    between atoms: O_5  and  C_18
REMARK    4  A    between atoms: N_6  and  C_8
REMARK    5  A    between atoms: N_6  and  C_11
REMARK    6  A    between atoms: N_7  and  C_15
REMARK    7  A    between atoms: C_10  and  C_15
REMARK    8  A    between atoms: C_16  and  C_17
REMARK                            x       y       z     vdW  Elec       q    Type
REMARK                         _______ _______ _______ _____ _____    ______ ____
ROOT
ATOM      1  O   UNL     1      12.016   6.692  19.981  0.00  0.00    -0.371 OA
ATOM      8  C   UNL     1      13.386   7.134  21.871  0.00  0.00    +0.111 C 
ATOM      9  C   UNL     1      12.563   8.368  21.557  0.00  0.00    +0.164 C 
ATOM     10  C   UNL     1      11.431   7.766  20.736  0.00  0.00    +0.165 C 
ATOM     12  C   UNL     1      13.293   6.369  20.561  0.00  0.00    +0.181 C 
ENDROOT
BRANCH   9   3
ATOM      3  O   UNL     1      12.084   9.015  22.721  0.00  0.00    -0.388 OA
ATOM     20  H   UNL     1      11.258   9.477  22.497  0.00  0.00    +0.210 HD
ENDBRANCH   9   3
BRANCH   8   6
ATOM      6  N   UNL     1      14.757   7.429  22.258  0.00  0.00    -0.302 NA
ATOM     19  H   UNL     1      14.764   8.093  23.031  0.00  0.00    +0.123 HD
BRANCH   6  11
ATOM      2  O   UNL     1      17.405   6.874  21.034  0.00  0.00    -0.377 OA
ATOM     11  C   UNL     1      15.517   7.866  21.080  0.00  0.00    +0.106 C 
ATOM     13  C   UNL     1      16.125   6.644  20.392  0.00  0.00    +0.180 C 
ATOM     14  C   UNL     1      16.954   8.170  21.501  0.00  0.00    +0.180 C 
ENDBRANCH   6  11
ENDBRANCH   8   6
BRANCH  10  15
ATOM     15  C   UNL     1      10.779   8.761  19.793  0.00  0.00    +0.138 C 
BRANCH  15   7
ATOM      4  O   UNL     1      10.559   7.833  17.061  0.00  0.00    -0.273 OA
ATOM      7  N   UNL     1      11.645   9.085  18.696  0.00  0.00    -0.311 N 
ATOM     16  C   UNL     1      11.462   8.589  17.407  0.00  0.00    +0.239 C 
ATOM     21  H   UNL     1      12.433   9.698  18.879  0.00  0.00    +0.149 HD
BRANCH  16  17
ATOM     17  C   UNL     1      12.520   9.093  16.450  0.00  0.00    +0.255 C 
BRANCH  17   5
ATOM      5  O   UNL     1      13.629   8.220  16.428  0.00  0.00    -0.374 OA
ATOM     18  C   UNL     1      14.677   8.712  15.597  0.00  0.00    +0.194 C 
ENDBRANCH  17   5
ENDBRANCH  16  17
ENDBRANCH  15   7
ENDBRANCH  10  15
TORSDOF 7
ENDMDL
MODEL 9
REMARK VINA RESULT:      -3.7     13.845     15.176
REMARK  Name = 75536815
REMARK  8 active torsions:
REMARK  status: ('A' for Active; 'I' for Inactive)
REMARK    1  A    between atoms: O_3  and  C_9
REMARK    2  A    between atoms: O_5  and  C_17
REMARK    3  A    between atoms: O_5  and  C_18
REMARK    4  A    between atoms: N_6  and  C_8
REMARK    5  A    between atoms: N_6  and  C_11
REMARK    6  A    between atoms: N_7  and  C_15
REMARK    7  A    between atoms: C_10  and  C_15
REMARK    8  A    between atoms: C_16  and  C_17
REMARK                            x       y       z     vdW  Elec       q    Type
REMARK                         _______ _______ _______ _____ _____    ______ ____
ROOT
ATOM      1  O   UNL     1      -5.507  -9.691  15.340  0.00  0.00    -0.371 OA
ATOM      8  C   UNL     1      -7.097  -9.929  17.089  0.00  0.00    +0.111 C 
ATOM      9  C   UNL     1      -5.808 -10.620  17.494  0.00  0.00    +0.164 C 
ATOM     10  C   UNL     1      -4.807  -9.939  16.570  0.00  0.00    +0.165 C 
ATOM     12  C   UNL     1      -6.919  -9.819  15.584  0.00  0.00    +0.181 C 
ENDROOT
BRANCH   9   3
ATOM      3  O   UNL     1      -5.488 -10.422  18.858  0.00  0.00    -0.388 OA
ATOM     20  H   UNL     1      -5.272 -11.285  19.250  0.00  0.00    +0.210 HD
ENDBRANCH   9   3
BRANCH   8   6
ATOM      6  N   UNL     1      -8.295 -10.660  17.466  0.00  0.00    -0.302 NA
ATOM     19  H   UNL     1      -8.173 -11.654  17.271  0.00  0.00    +0.123 HD
BRANCH   6  11
ATOM      2  O   UNL     1     -10.687  -9.095  18.272  0.00  0.00    -0.377 OA
ATOM     11  C   UNL     1      -9.464 -10.058  16.813  0.00  0.00    +0.106 C 
ATOM     13  C   UNL     1      -9.665  -8.640  17.349  0.00  0.00    +0.180 C 
ATOM     14  C   UNL     1     -10.715 -10.392  17.626  0.00  0.00    +0.180 C 
ENDBRANCH   6  11
ENDBRANCH   8   6
BRANCH  10  15
ATOM     15  C   UNL     1      -3.574 -10.781  16.298  0.00  0.00    +0.138 C 
BRANCH  15   7
ATOM      4  O   UNL     1      -0.877 -10.014  15.585  0.00  0.00    -0.273 OA
ATOM      7  N   UNL     1      -3.061 -10.545  14.979  0.00  0.00    -0.311 N 
ATOM     16  C   UNL     1      -1.742 -10.177  14.729  0.00  0.00    +0.239 C 
ATOM     21  H   UNL     1      -3.701 -10.643  14.197  0.00  0.00    +0.149 HD
BRANCH  16  17
ATOM     17  C   UNL     1      -1.475  -9.994  13.250  0.00  0.00    +0.255 C 
BRANCH  17   5
ATOM      5  O   UNL     1      -2.421 -10.706  12.481  0.00  0.00    -0.374 OA
ATOM     18  C   UNL     1      -2.522 -10.193  11.156  0.00  0.00    +0.194 C 
ENDBRANCH  17   5
ENDBRANCH  16  17
ENDBRANCH  15   7
ENDBRANCH  10  15
TORSDOF 7
ENDMDL
MODEL 10
REMARK VINA RESULT:      -3.7     14.034     16.096
REMARK  Name = 75536815
REMARK  8 active torsions:
REMARK  status: ('A' for Active; 'I' for Inactive)
REMARK    1  A    between atoms: O_3  and  C_9
REMARK    2  A    between atoms: O_5  and  C_17
REMARK    3  A    between atoms: O_5  and  C_18
REMARK    4  A    between atoms: N_6  and  C_8
REMARK    5  A    between atoms: N_6  and  C_11
REMARK    6  A    between atoms: N_7  and  C_15
REMARK    7  A    between atoms: C_10  and  C_15
REMARK    8  A    between atoms: C_16  and  C_17
REMARK                            x       y       z     vdW  Elec       q    Type
REMARK                         _______ _______ _______ _____ _____    ______ ____
ROOT
ATOM      1  O   UNL     1      -4.072 -10.597  14.454  0.00  0.00    -0.371 OA
ATOM      8  C   UNL     1      -5.014 -10.045  12.344  0.00  0.00    +0.111 C 
ATOM      9  C   UNL     1      -6.129 -10.176  13.365  0.00  0.00    +0.164 C 
ATOM     10  C   UNL     1      -5.359  -9.993  14.666  0.00  0.00    +0.165 C 
ATOM     12  C   UNL     1      -3.881 -10.781  13.040  0.00  0.00    +0.181 C 
ENDROOT
BRANCH   9   3
ATOM      3  O   UNL     1      -7.134  -9.194  13.204  0.00  0.00    -0.388 OA
ATOM     20  H   UNL     1      -7.995  -9.603  13.397  0.00  0.00    +0.210 HD
ENDBRANCH   9   3
BRANCH   8   6
ATOM      6  N   UNL     1      -5.343 -10.610  11.045  0.00  0.00    -0.302 NA
ATOM     19  H   UNL     1      -4.594 -11.229  10.735  0.00  0.00    +0.123 HD
BRANCH   6  11
ATOM      2  O   UNL     1      -3.870  -8.866   9.144  0.00  0.00    -0.377 OA
ATOM     11  C   UNL     1      -5.658  -9.527  10.104  0.00  0.00    +0.106 C 
ATOM     13  C   UNL     1      -4.935  -9.783   8.782  0.00  0.00    +0.180 C 
ATOM     14  C   UNL     1      -4.638  -8.402  10.283  0.00  0.00    +0.180 C 
ENDBRANCH   6  11
ENDBRANCH   8   6
BRANCH  10  15
ATOM     15  C   UNL     1      -6.038 -10.638  15.860  0.00  0.00    +0.138 C 
BRANCH  15   7
ATOM      4  O   UNL     1      -7.118  -9.911  18.444  0.00  0.00    -0.273 OA
ATOM      7  N   UNL     1      -7.310 -10.031  16.127  0.00  0.00    -0.311 N 
ATOM     16  C   UNL     1      -7.750  -9.715  17.410  0.00  0.00    +0.239 C 
ATOM     21  H   UNL     1      -7.918  -9.836  15.338  0.00  0.00    +0.149 HD
BRANCH  16  17
ATOM     17  C   UNL     1      -9.127  -9.085  17.399  0.00  0.00    +0.255 C 
BRANCH  17   5
ATOM      5  O   UNL     1      -9.280  -8.242  16.278  0.00  0.00    -0.374 OA
ATOM     18  C   UNL     1     -10.328  -7.295  16.465  0.00  0.00    +0.194 C 
ENDBRANCH  17   5
ENDBRANCH  16  17
ENDBRANCH  15   7
ENDBRANCH  10  15
TORSDOF 7
ENDMDL
