MODEL 1
REMARK VINA RESULT:      -0.2      0.000      0.000
REMARK  Name = 26743820
REMARK  7 active torsions:
REMARK  status: ('A' for Active; 'I' for Inactive)
REMARK    1  A    between atoms: O_2  and  C_11
REMARK    2  A    between atoms: N_4  and  C_13
REMARK    3  A    between atoms: N_5  and  C_19
REMARK    4  A    between atoms: C_9  and  C_14
REMARK    5  A    between atoms: C_13  and  C_15
REMARK    6  A    between atoms: C_18  and  C_22
REMARK    7  A    between atoms: C_29  and  C_30
REMARK                            x       y       z     vdW  Elec       q    Type
REMARK                         _______ _______ _______ _____ _____    ______ ____
ROOT
ATOM      4  N   UNL     1      -3.281  -0.696  24.662  0.00  0.00    -0.282 NA
ATOM      9  C   UNL     1      -2.116  -1.604  24.656  0.00  0.00    +0.149 C 
ATOM     10  C   UNL     1      -2.576  -2.831  23.848  0.00  0.00    +0.061 C 
ATOM     11  C   UNL     1      -4.026  -2.541  23.481  0.00  0.00    +0.130 C 
ATOM     12  C   UNL     1      -4.465  -1.544  24.536  0.00  0.00    +0.117 C 
ENDROOT
BRANCH   9  14
ATOM      3  O   UNL     1      -1.077   0.064  23.203  0.00  0.00    -0.336 OA
ATOM      6  N   UNL     1       0.386  -1.232  24.297  0.00  0.00    -0.190 NA
ATOM      8  N   UNL     1       0.197   0.497  22.811  0.00  0.00    -0.056 NA
ATOM     14  C   UNL     1      -0.875  -0.954  24.079  0.00  0.00    +0.245 A 
ATOM     18  C   UNL     1       1.004  -0.316  23.499  0.00  0.00    +0.202 A 
BRANCH  18  22
ATOM      1  F   UNL     1       5.354  -2.276  24.138  0.00  0.00    -0.205 F 
ATOM     22  C   UNL     1       2.434  -0.237  23.410  0.00  0.00    +0.025 A 
ATOM     25  C   UNL     1       3.219  -1.314  23.824  0.00  0.00    +0.050 A 
ATOM     26  C   UNL     1       3.040   0.915  22.908  0.00  0.00    +0.012 A 
ATOM     27  C   UNL     1       4.609  -1.238  23.737  0.00  0.00    +0.127 A 
ATOM     28  C   UNL     1       4.430   0.991  22.821  0.00  0.00    +0.007 A 
ATOM     29  C   UNL     1       5.215  -0.085  23.236  0.00  0.00    -0.015 A 
ATOM     30  C   UNL     1       6.700  -0.001  23.142  0.00  0.00    +0.047 C 
ENDBRANCH  18  22
ENDBRANCH   9  14
BRANCH  11   2
ATOM      2  O   UNL     1      -4.801  -3.725  23.522  0.00  0.00    -0.390 OA
ATOM     31  H   UNL     1      -4.329  -4.362  24.085  0.00  0.00    +0.210 HD
ENDBRANCH  11   2
BRANCH   4  13
ATOM     13  C   UNL     1      -3.340   0.156  25.841  0.00  0.00    +0.159 C 
BRANCH  13  15
ATOM      5  N   UNL     1      -3.563   2.613  25.349  0.00  0.00    -0.330 N 
ATOM      7  N   UNL     1      -1.491   1.828  25.524  0.00  0.00    -0.231 NA
ATOM     15  C   UNL     1      -2.769   1.524  25.573  0.00  0.00    +0.125 A 
ATOM     16  C   UNL     1      -2.744   3.693  25.140  0.00  0.00    +0.069 A 
ATOM     17  C   UNL     1      -1.457   3.177  25.255  0.00  0.00    +0.089 A 
ATOM     19  C   UNL     1      -5.009   2.629  25.332  0.00  0.00    +0.150 C 
ATOM     20  C   UNL     1      -3.012   5.036  24.870  0.00  0.00    +0.028 A 
ATOM     21  C   UNL     1      -0.358   4.039  25.093  0.00  0.00    +0.030 A 
ATOM     23  C   UNL     1      -1.907   5.878  24.713  0.00  0.00    +0.002 A 
ATOM     24  C   UNL     1      -0.601   5.391  24.821  0.00  0.00    +0.002 A 
ENDBRANCH  13  15
ENDBRANCH   4  13
TORSDOF 5
ENDMDL
MODEL 2
REMARK VINA RESULT:       0.7      2.594      5.029
REMARK  Name = 26743820
REMARK  7 active torsions:
REMARK  status: ('A' for Active; 'I' for Inactive)
REMARK    1  A    between atoms: O_2  and  C_11
REMARK    2  A    between atoms: N_4  and  C_13
REMARK    3  A    between atoms: N_5  and  C_19
REMARK    4  A    between atoms: C_9  and  C_14
REMARK    5  A    between atoms: C_13  and  C_15
REMARK    6  A    between atoms: C_18  and  C_22
REMARK    7  A    between atoms: C_29  and  C_30
REMARK                            x       y       z     vdW  Elec       q    Type
REMARK                         _______ _______ _______ _____ _____    ______ ____
ROOT
ATOM      4  N   UNL     1      -4.851   2.112  25.431  0.00  0.00    -0.282 NA
ATOM      9  C   UNL     1      -4.271   2.883  24.313  0.00  0.00    +0.149 C 
ATOM     10  C   UNL     1      -4.723   4.335  24.560  0.00  0.00    +0.061 C 
ATOM     11  C   UNL     1      -5.588   4.271  25.812  0.00  0.00    +0.130 C 
ATOM     12  C   UNL     1      -6.055   2.828  25.847  0.00  0.00    +0.117 C 
ENDROOT
BRANCH   9  14
ATOM      3  O   UNL     1      -2.034   3.743  24.791  0.00  0.00    -0.336 OA
ATOM      6  N   UNL     1      -2.047   1.795  23.685  0.00  0.00    -0.190 NA
ATOM      8  N   UNL     1      -0.690   3.401  24.591  0.00  0.00    -0.056 NA
ATOM     14  C   UNL     1      -2.765   2.746  24.229  0.00  0.00    +0.245 A 
ATOM     18  C   UNL     1      -0.781   2.241  23.933  0.00  0.00    +0.202 A 
BRANCH  18  22
ATOM      1  F   UNL     1       3.956   1.981  23.117  0.00  0.00    -0.205 F 
ATOM     22  C   UNL     1       0.373   1.502  23.510  0.00  0.00    +0.025 A 
ATOM     25  C   UNL     1       1.631   2.108  23.518  0.00  0.00    +0.050 A 
ATOM     26  C   UNL     1       0.241   0.178  23.092  0.00  0.00    +0.012 A 
ATOM     27  C   UNL     1       2.753   1.390  23.107  0.00  0.00    +0.127 A 
ATOM     28  C   UNL     1       1.364  -0.540  22.681  0.00  0.00    +0.007 A 
ATOM     29  C   UNL     1       2.620   0.066  22.689  0.00  0.00    -0.015 A 
ATOM     30  C   UNL     1       3.819  -0.704  22.249  0.00  0.00    +0.047 C 
ENDBRANCH  18  22
ENDBRANCH   9  14
BRANCH  11   2
ATOM      2  O   UNL     1      -6.675   5.172  25.717  0.00  0.00    -0.390 OA
ATOM     31  H   UNL     1      -6.307   6.055  25.539  0.00  0.00    +0.210 HD
ENDBRANCH  11   2
BRANCH   4  13
ATOM     13  C   UNL     1      -5.130   0.724  25.087  0.00  0.00    +0.159 C 
BRANCH  13  15
ATOM      5  N   UNL     1      -3.755  -1.272  24.413  0.00  0.00    -0.330 N 
ATOM      7  N   UNL     1      -2.829   0.108  25.888  0.00  0.00    -0.231 NA
ATOM     15  C   UNL     1      -3.889  -0.129  25.150  0.00  0.00    +0.125 A 
ATOM     16  C   UNL     1      -2.525  -1.809  24.694  0.00  0.00    +0.069 A 
ATOM     17  C   UNL     1      -1.966  -0.929  25.616  0.00  0.00    +0.089 A 
ATOM     19  C   UNL     1      -4.732  -1.821  23.499  0.00  0.00    +0.150 C 
ATOM     20  C   UNL     1      -1.872  -2.954  24.233  0.00  0.00    +0.028 A 
ATOM     21  C   UNL     1      -0.681  -1.192  26.121  0.00  0.00    +0.030 A 
ATOM     23  C   UNL     1      -0.595  -3.198  24.745  0.00  0.00    +0.002 A 
ATOM     24  C   UNL     1      -0.007  -2.335  25.673  0.00  0.00    +0.002 A 
ENDBRANCH  13  15
ENDBRANCH   4  13
TORSDOF 5
ENDMDL
MODEL 3
REMARK VINA RESULT:       1.4      1.599      4.559
REMARK  Name = 26743820
REMARK  7 active torsions:
REMARK  status: ('A' for Active; 'I' for Inactive)
REMARK    1  A    between atoms: O_2  and  C_11
REMARK    2  A    between atoms: N_4  and  C_13
REMARK    3  A    between atoms: N_5  and  C_19
REMARK    4  A    between atoms: C_9  and  C_14
REMARK    5  A    between atoms: C_13  and  C_15
REMARK    6  A    between atoms: C_18  and  C_22
REMARK    7  A    between atoms: C_29  and  C_30
REMARK                            x       y       z     vdW  Elec       q    Type
REMARK                         _______ _______ _______ _____ _____    ______ ____
ROOT
ATOM      4  N   UNL     1      -1.113   2.898  25.713  0.00  0.00    -0.282 NA
ATOM      9  C   UNL     1      -1.277   2.521  24.294  0.00  0.00    +0.149 C 
ATOM     10  C   UNL     1      -1.350   3.860  23.537  0.00  0.00    +0.061 C 
ATOM     11  C   UNL     1      -1.266   4.930  24.618  0.00  0.00    +0.130 C 
ATOM     12  C   UNL     1      -1.739   4.210  25.866  0.00  0.00    +0.117 C 
ENDROOT
BRANCH   9  14
ATOM      3  O   UNL     1      -0.518   0.614  22.967  0.00  0.00    -0.336 OA
ATOM      6  N   UNL     1       1.124   1.683  24.052  0.00  0.00    -0.190 NA
ATOM      8  N   UNL     1       0.666  -0.063  22.646  0.00  0.00    -0.056 NA
ATOM     14  C   UNL     1      -0.159   1.628  23.797  0.00  0.00    +0.245 A 
ATOM     18  C   UNL     1       1.588   0.627  23.323  0.00  0.00    +0.202 A 
BRANCH  18  22
ATOM      1  F   UNL     1       5.141  -2.546  24.015  0.00  0.00    -0.205 F 
ATOM     22  C   UNL     1       2.981   0.288  23.292  0.00  0.00    +0.025 A 
ATOM     25  C   UNL     1       3.397  -0.988  23.675  0.00  0.00    +0.050 A 
ATOM     26  C   UNL     1       3.921   1.231  22.877  0.00  0.00    +0.012 A 
ATOM     27  C   UNL     1       4.751  -1.319  23.644  0.00  0.00    +0.127 A 
ATOM     28  C   UNL     1       5.276   0.900  22.846  0.00  0.00    +0.007 A 
ATOM     29  C   UNL     1       5.691  -0.375  23.230  0.00  0.00    -0.015 A 
ATOM     30  C   UNL     1       7.140  -0.726  23.196  0.00  0.00    +0.047 C 
ENDBRANCH  18  22
ENDBRANCH   9  14
BRANCH  11   2
ATOM      2  O   UNL     1      -2.096   6.031  24.300  0.00  0.00    -0.390 OA
ATOM     31  H   UNL     1      -2.636   5.777  23.532  0.00  0.00    +0.210 HD
ENDBRANCH  11   2
BRANCH   4  13
ATOM     13  C   UNL     1      -1.667   1.916  26.636  0.00  0.00    +0.159 C 
BRANCH  13  15
ATOM      5  N   UNL     1      -3.339   0.611  25.284  0.00  0.00    -0.330 N 
ATOM      7  N   UNL     1      -1.465  -0.454  25.824  0.00  0.00    -0.231 NA
ATOM     15  C   UNL     1      -2.132   0.674  25.920  0.00  0.00    +0.125 A 
ATOM     16  C   UNL     1      -3.461  -0.641  24.739  0.00  0.00    +0.069 A 
ATOM     17  C   UNL     1      -2.278  -1.286  25.089  0.00  0.00    +0.089 A 
ATOM     19  C   UNL     1      -4.318   1.672  25.198  0.00  0.00    +0.150 C 
ATOM     20  C   UNL     1      -4.472  -1.247  23.992  0.00  0.00    +0.028 A 
ATOM     21  C   UNL     1      -2.075  -2.615  24.679  0.00  0.00    +0.030 A 
ATOM     23  C   UNL     1      -4.253  -2.569  23.592  0.00  0.00    +0.002 A 
ATOM     24  C   UNL     1      -3.077  -3.244  23.929  0.00  0.00    +0.002 A 
ENDBRANCH  13  15
ENDBRANCH   4  13
TORSDOF 5
ENDMDL
MODEL 4
REMARK VINA RESULT:       3.2      3.267      7.153
REMARK  Name = 26743820
REMARK  7 active torsions:
REMARK  status: ('A' for Active; 'I' for Inactive)
REMARK    1  A    between atoms: O_2  and  C_11
REMARK    2  A    between atoms: N_4  and  C_13
REMARK    3  A    between atoms: N_5  and  C_19
REMARK    4  A    between atoms: C_9  and  C_14
REMARK    5  A    between atoms: C_13  and  C_15
REMARK    6  A    between atoms: C_18  and  C_22
REMARK    7  A    between atoms: C_29  and  C_30
REMARK                            x       y       z     vdW  Elec       q    Type
REMARK                         _______ _______ _______ _____ _____    ______ ____
ROOT
ATOM      4  N   UNL     1       1.547  -0.314  23.299  0.00  0.00    -0.282 NA
ATOM      9  C   UNL     1       1.928   0.961  23.939  0.00  0.00    +0.149 C 
ATOM     10  C   UNL     1       3.068   1.516  23.065  0.00  0.00    +0.061 C 
ATOM     11  C   UNL     1       3.287   0.462  21.987  0.00  0.00    +0.130 C 
ATOM     12  C   UNL     1       2.742  -0.806  22.616  0.00  0.00    +0.117 C 
ENDROOT
BRANCH   9  14
ATOM      3  O   UNL     1       0.970   3.185  23.603  0.00  0.00    -0.336 OA
ATOM      6  N   UNL     1      -0.433   1.719  24.552  0.00  0.00    -0.190 NA
ATOM      8  N   UNL     1      -0.228   3.877  23.819  0.00  0.00    -0.056 NA
ATOM     14  C   UNL     1       0.763   1.923  24.061  0.00  0.00    +0.245 A 
ATOM     18  C   UNL     1      -1.005   2.946  24.381  0.00  0.00    +0.202 A 
BRANCH  18  22
ATOM      1  F   UNL     1      -5.727   2.086  24.011  0.00  0.00    -0.205 F 
ATOM     22  C   UNL     1      -2.356   3.210  24.783  0.00  0.00    +0.025 A 
ATOM     25  C   UNL     1      -3.409   2.508  24.193  0.00  0.00    +0.050 A 
ATOM     26  C   UNL     1      -2.620   4.166  25.764  0.00  0.00    +0.012 A 
ATOM     27  C   UNL     1      -4.723   2.764  24.583  0.00  0.00    +0.127 A 
ATOM     28  C   UNL     1      -3.934   4.422  26.155  0.00  0.00    +0.007 A 
ATOM     29  C   UNL     1      -4.986   3.721  25.564  0.00  0.00    -0.015 A 
ATOM     30  C   UNL     1      -6.390   3.996  25.984  0.00  0.00    +0.047 C 
ENDBRANCH  18  22
ENDBRANCH   9  14
BRANCH  11   2
ATOM      2  O   UNL     1       4.662   0.343  21.674  0.00  0.00    -0.390 OA
ATOM     31  H   UNL     1       5.087  -0.139  22.405  0.00  0.00    +0.210 HD
ENDBRANCH  11   2
BRANCH   4  13
ATOM     13  C   UNL     1       1.012  -1.290  24.238  0.00  0.00    +0.159 C 
BRANCH  13  15
ATOM      5  N   UNL     1      -1.103  -0.925  25.551  0.00  0.00    -0.330 N 
ATOM      7  N   UNL     1      -1.350  -1.331  23.380  0.00  0.00    -0.231 NA
ATOM     15  C   UNL     1      -0.487  -1.187  24.360  0.00  0.00    +0.125 A 
ATOM     16  C   UNL     1      -2.455  -0.897  25.325  0.00  0.00    +0.069 A 
ATOM     17  C   UNL     1      -2.584  -1.152  23.963  0.00  0.00    +0.089 A 
ATOM     19  C   UNL     1      -0.451  -0.714  26.824  0.00  0.00    +0.150 C 
ATOM     20  C   UNL     1      -3.544  -0.676  26.170  0.00  0.00    +0.028 A 
ATOM     21  C   UNL     1      -3.868  -1.194  23.392  0.00  0.00    +0.030 A 
ATOM     23  C   UNL     1      -4.813  -0.721  25.585  0.00  0.00    +0.002 A 
ATOM     24  C   UNL     1      -4.975  -0.976  24.221  0.00  0.00    +0.002 A 
ENDBRANCH  13  15
ENDBRANCH   4  13
TORSDOF 5
ENDMDL
