MODEL 1
REMARK VINA RESULT:      -2.1      0.000      0.000
REMARK  Name = 45784112
REMARK  15 active torsions:
REMARK  status: ('A' for Active; 'I' for Inactive)
REMARK    1  A    between atoms: N_2  and  C_13
REMARK    2  A    between atoms: N_2  and  C_19
REMARK    3  A    between atoms: C_6  and  C_10
REMARK    4  A    between atoms: C_7  and  C_13
REMARK    5  A    between atoms: C_9  and  C_14
REMARK    6  A    between atoms: C_10  and  C_15
REMARK    7  A    between atoms: C_10  and  C_16
REMARK    8  A    between atoms: C_11  and  C_17
REMARK    9  A    between atoms: C_14  and  C_18
REMARK   10  A    between atoms: C_19  and  C_22
REMARK   11  A    between atoms: C_20  and  C_21
REMARK   12  A    between atoms: C_21  and  C_23
REMARK   13  A    between atoms: C_21  and  C_24
REMARK   14  A    between atoms: C_21  and  C_25
REMARK   15  A    between atoms: C_30  and  C_31
REMARK                            x       y       z     vdW  Elec       q    Type
REMARK                         _______ _______ _______ _____ _____    ______ ____
ROOT
ATOM      6  C   UNL     1      -2.246   4.197  25.856  0.00  0.00    +0.000 C 
ATOM      7  C   UNL     1      -3.595   4.069  25.110  0.00  0.00    +0.029 C 
ATOM      8  C   UNL     1      -1.533   2.839  25.912  0.00  0.00    +0.012 C 
ATOM      9  C   UNL     1      -1.294   2.215  24.521  0.00  0.00    +0.024 C 
ATOM     11  C   UNL     1      -2.463   2.416  23.569  0.00  0.00    -0.073 C 
ATOM     12  C   UNL     1      -3.488   3.239  23.856  0.00  0.00    -0.023 C 
ATOM     17  C   UNL     1      -2.414   1.699  22.247  0.00  0.00    +0.039 C 
ENDROOT
BRANCH   6  10
ATOM     10  C   UNL     1      -1.353   5.268  25.216  0.00  0.00    -0.013 C 
ATOM     15  C   UNL     1      -0.177   4.618  24.494  0.00  0.00    +0.007 C 
ATOM     16  C   UNL     1      -2.165   6.134  24.258  0.00  0.00    +0.007 C 
ENDBRANCH   6  10
BRANCH   7  13
ATOM     13  C   UNL     1      -4.686   3.482  26.011  0.00  0.00    +0.089 C 
BRANCH  13   2
ATOM      2  N   UNL     1      -5.691   2.795  25.219  0.00  0.00    -0.311 NA
ATOM     32  H   UNL     1      -5.335   2.659  24.273  0.00  0.00    +0.122 HD
BRANCH   2  19
ATOM     19  C   UNL     1      -6.036   1.507  25.809  0.00  0.00    +0.116 C 
BRANCH  19  22
ATOM     22  C   UNL     1      -5.066   0.429  25.407  0.00  0.00    -0.034 A 
ATOM     26  C   UNL     1      -5.063  -0.056  24.099  0.00  0.00    +0.006 A 
ATOM     27  C   UNL     1      -4.168  -0.086  26.343  0.00  0.00    +0.006 A 
ATOM     28  C   UNL     1      -4.164  -1.055  23.727  0.00  0.00    +0.019 A 
ATOM     29  C   UNL     1      -3.269  -1.086  25.971  0.00  0.00    +0.019 A 
ATOM     30  C   UNL     1      -3.267  -1.570  24.662  0.00  0.00    +0.052 A 
BRANCH  30  31
ATOM      5  N   UNL     1      -1.598  -3.426  23.970  0.00  0.00    -0.191 NA
ATOM     31  C   UNL     1      -2.346  -2.594  24.280  0.00  0.00    +0.099 C 
ENDBRANCH  30  31
ENDBRANCH  19  22
ENDBRANCH   2  19
ENDBRANCH  13   2
ENDBRANCH   7  13
BRANCH   9  14
ATOM     14  C   UNL     1      -0.920   0.739  24.703  0.00  0.00    +0.105 C 
BRANCH  14  18
ATOM      1  O   UNL     1       1.369   0.808  23.859  0.00  0.00    -0.424 OA
ATOM      3  N   UNL     1      -0.005  -0.498  22.672  0.00  0.00    -0.112 NA
ATOM      4  N   UNL     1       1.247  -0.552  22.088  0.00  0.00    -0.112 NA
ATOM     18  C   UNL     1       0.113   0.307  23.701  0.00  0.00    +0.218 A 
ATOM     20  C   UNL     1       2.016   0.224  22.814  0.00  0.00    +0.223 A 
BRANCH  20  21
ATOM     21  C   UNL     1       3.442   0.539  22.657  0.00  0.00    +0.040 C 
ATOM     23  C   UNL     1       3.749   2.045  22.969  0.00  0.00    +0.020 C 
ATOM     24  C   UNL     1       3.948   0.268  21.197  0.00  0.00    +0.020 C 
ATOM     25  C   UNL     1       4.437  -0.265  23.577  0.00  0.00    +0.020 C 
ENDBRANCH  20  21
ENDBRANCH  14  18
ENDBRANCH   9  14
TORSDOF 9
ENDMDL
MODEL 2
REMARK VINA RESULT:      -0.6      1.599      4.592
REMARK  Name = 45784112
REMARK  15 active torsions:
REMARK  status: ('A' for Active; 'I' for Inactive)
REMARK    1  A    between atoms: N_2  and  C_13
REMARK    2  A    between atoms: N_2  and  C_19
REMARK    3  A    between atoms: C_6  and  C_10
REMARK    4  A    between atoms: C_7  and  C_13
REMARK    5  A    between atoms: C_9  and  C_14
REMARK    6  A    between atoms: C_10  and  C_15
REMARK    7  A    between atoms: C_10  and  C_16
REMARK    8  A    between atoms: C_11  and  C_17
REMARK    9  A    between atoms: C_14  and  C_18
REMARK   10  A    between atoms: C_19  and  C_22
REMARK   11  A    between atoms: C_20  and  C_21
REMARK   12  A    between atoms: C_21  and  C_23
REMARK   13  A    between atoms: C_21  and  C_24
REMARK   14  A    between atoms: C_21  and  C_25
REMARK   15  A    between atoms: C_30  and  C_31
REMARK                            x       y       z     vdW  Elec       q    Type
REMARK                         _______ _______ _______ _____ _____    ______ ____
ROOT
ATOM      6  C   UNL     1      -3.434  -1.073  24.088  0.00  0.00    +0.000 C 
ATOM      7  C   UNL     1      -4.028  -0.149  25.176  0.00  0.00    +0.029 C 
ATOM      8  C   UNL     1      -2.327  -0.347  23.312  0.00  0.00    +0.012 C 
ATOM      9  C   UNL     1      -1.191   0.179  24.214  0.00  0.00    +0.024 C 
ATOM     11  C   UNL     1      -1.693   0.753  25.530  0.00  0.00    -0.073 C 
ATOM     12  C   UNL     1      -2.967   0.606  25.937  0.00  0.00    -0.023 C 
ATOM     17  C   UNL     1      -0.693   1.453  26.409  0.00  0.00    +0.039 C 
ENDROOT
BRANCH   6  10
ATOM     10  C   UNL     1      -2.920  -2.388  24.690  0.00  0.00    -0.013 C 
ATOM     15  C   UNL     1      -3.815  -3.550  24.273  0.00  0.00    +0.007 C 
ATOM     16  C   UNL     1      -1.476  -2.637  24.267  0.00  0.00    +0.007 C 
ENDBRANCH   6  10
BRANCH   7  13
ATOM     13  C   UNL     1      -5.031   0.847  24.588  0.00  0.00    +0.089 C 
BRANCH  13   2
ATOM      2  N   UNL     1      -5.975   1.285  25.601  0.00  0.00    -0.311 NA
ATOM     32  H   UNL     1      -5.698   0.898  26.504  0.00  0.00    +0.122 HD
BRANCH   2  19
ATOM     19  C   UNL     1      -6.025   2.740  25.679  0.00  0.00    +0.116 C 
BRANCH  19  22
ATOM     22  C   UNL     1      -4.676   3.361  25.439  0.00  0.00    -0.034 A 
ATOM     26  C   UNL     1      -4.163   3.439  24.144  0.00  0.00    +0.006 A 
ATOM     27  C   UNL     1      -3.936   3.860  26.512  0.00  0.00    +0.006 A 
ATOM     28  C   UNL     1      -2.913   4.015  23.921  0.00  0.00    +0.019 A 
ATOM     29  C   UNL     1      -2.684   4.435  26.289  0.00  0.00    +0.019 A 
ATOM     30  C   UNL     1      -2.173   4.512  24.994  0.00  0.00    +0.052 A 
BRANCH  30  31
ATOM      5  N   UNL     1       0.150   5.580  24.579  0.00  0.00    -0.191 NA
ATOM     31  C   UNL     1      -0.892   5.102  24.765  0.00  0.00    +0.099 C 
ENDBRANCH  30  31
ENDBRANCH  19  22
ENDBRANCH   2  19
ENDBRANCH  13   2
ENDBRANCH   7  13
BRANCH   9  14
ATOM     14  C   UNL     1      -0.349   1.177  23.411  0.00  0.00    +0.105 C 
BRANCH  14  18
ATOM      1  O   UNL     1       2.030   0.651  23.556  0.00  0.00    -0.424 OA
ATOM      3  N   UNL     1       1.021  -0.164  21.733  0.00  0.00    -0.112 NA
ATOM      4  N   UNL     1       2.353  -0.534  21.686  0.00  0.00    -0.112 NA
ATOM     18  C   UNL     1       0.878   0.526  22.840  0.00  0.00    +0.218 A 
ATOM     20  C   UNL     1       2.902  -0.038  22.769  0.00  0.00    +0.223 A 
BRANCH  20  21
ATOM     21  C   UNL     1       4.291  -0.123  23.237  0.00  0.00    +0.040 C 
ATOM     23  C   UNL     1       5.318  -0.011  22.057  0.00  0.00    +0.020 C 
ATOM     24  C   UNL     1       4.586  -1.482  23.964  0.00  0.00    +0.020 C 
ATOM     25  C   UNL     1       4.748   0.982  24.264  0.00  0.00    +0.020 C 
ENDBRANCH  20  21
ENDBRANCH  14  18
ENDBRANCH   9  14
TORSDOF 9
ENDMDL
MODEL 3
REMARK VINA RESULT:      -0.2      1.968      6.811
REMARK  Name = 45784112
REMARK  15 active torsions:
REMARK  status: ('A' for Active; 'I' for Inactive)
REMARK    1  A    between atoms: N_2  and  C_13
REMARK    2  A    between atoms: N_2  and  C_19
REMARK    3  A    between atoms: C_6  and  C_10
REMARK    4  A    between atoms: C_7  and  C_13
REMARK    5  A    between atoms: C_9  and  C_14
REMARK    6  A    between atoms: C_10  and  C_15
REMARK    7  A    between atoms: C_10  and  C_16
REMARK    8  A    between atoms: C_11  and  C_17
REMARK    9  A    between atoms: C_14  and  C_18
REMARK   10  A    between atoms: C_19  and  C_22
REMARK   11  A    between atoms: C_20  and  C_21
REMARK   12  A    between atoms: C_21  and  C_23
REMARK   13  A    between atoms: C_21  and  C_24
REMARK   14  A    between atoms: C_21  and  C_25
REMARK   15  A    between atoms: C_30  and  C_31
REMARK                            x       y       z     vdW  Elec       q    Type
REMARK                         _______ _______ _______ _____ _____    ______ ____
ROOT
ATOM      6  C   UNL     1      -2.785  -1.837  25.330  0.00  0.00    +0.000 C 
ATOM      7  C   UNL     1      -1.685  -1.131  24.504  0.00  0.00    +0.029 C 
ATOM      8  C   UNL     1      -3.773  -0.809  25.898  0.00  0.00    +0.012 C 
ATOM      9  C   UNL     1      -4.430   0.073  24.814  0.00  0.00    +0.024 C 
ATOM     11  C   UNL     1      -3.464   0.481  23.713  0.00  0.00    -0.073 C 
ATOM     12  C   UNL     1      -2.238  -0.060  23.598  0.00  0.00    -0.023 C 
ATOM     17  C   UNL     1      -3.949   1.483  22.700  0.00  0.00    +0.039 C 
ENDROOT
BRANCH   6  10
ATOM     10  C   UNL     1      -3.511  -2.904  24.499  0.00  0.00    -0.013 C 
ATOM     15  C   UNL     1      -4.641  -2.274  23.693  0.00  0.00    +0.007 C 
ATOM     16  C   UNL     1      -2.526  -3.623  23.582  0.00  0.00    +0.007 C 
ENDBRANCH   6  10
BRANCH   7  13
ATOM     13  C   UNL     1      -0.605  -0.522  25.403  0.00  0.00    +0.089 C 
BRANCH  13   2
ATOM      2  N   UNL     1       0.211   0.420  24.659  0.00  0.00    -0.311 NA
ATOM     32  H   UNL     1       1.004   0.704  25.235  0.00  0.00    +0.122 HD
BRANCH   2  19
ATOM     19  C   UNL     1       0.690  -0.169  23.413  0.00  0.00    +0.116 C 
BRANCH  19  22
ATOM     22  C   UNL     1       2.193  -0.179  23.339  0.00  0.00    -0.034 A 
ATOM     26  C   UNL     1       2.904  -1.311  23.738  0.00  0.00    +0.006 A 
ATOM     27  C   UNL     1       2.876   0.945  22.871  0.00  0.00    +0.006 A 
ATOM     28  C   UNL     1       4.297  -1.320  23.669  0.00  0.00    +0.019 A 
ATOM     29  C   UNL     1       4.269   0.935  22.802  0.00  0.00    +0.019 A 
ATOM     30  C   UNL     1       4.979  -0.197  23.201  0.00  0.00    +0.052 A 
BRANCH  30  31
ATOM      5  N   UNL     1       7.566  -0.214  23.074  0.00  0.00    -0.191 NA
ATOM     31  C   UNL     1       6.406  -0.207  23.131  0.00  0.00    +0.099 C 
ENDBRANCH  30  31
ENDBRANCH  19  22
ENDBRANCH   2  19
ENDBRANCH  13   2
ENDBRANCH   7  13
BRANCH   9  14
ATOM     14  C   UNL     1      -5.098   1.272  25.497  0.00  0.00    +0.105 C 
BRANCH  14  18
ATOM      1  O   UNL     1      -2.931   2.373  25.284  0.00  0.00    -0.424 OA
ATOM      3  N   UNL     1      -4.676   3.770  25.216  0.00  0.00    -0.112 NA
ATOM      4  N   UNL     1      -3.523   4.520  25.086  0.00  0.00    -0.112 NA
ATOM     18  C   UNL     1      -4.283   2.523  25.329  0.00  0.00    +0.218 A 
ATOM     20  C   UNL     1      -2.530   3.665  25.130  0.00  0.00    +0.223 A 
BRANCH  20  21
ATOM     21  C   UNL     1      -1.084   3.903  25.037  0.00  0.00    +0.040 C 
ATOM     23  C   UNL     1      -0.306   3.283  26.250  0.00  0.00    +0.020 C 
ATOM     24  C   UNL     1      -0.739   5.433  25.017  0.00  0.00    +0.020 C 
ATOM     25  C   UNL     1      -0.363   3.318  23.765  0.00  0.00    +0.020 C 
ENDBRANCH  20  21
ENDBRANCH  14  18
ENDBRANCH   9  14
TORSDOF 9
ENDMDL
MODEL 4
REMARK VINA RESULT:       1.1      1.904      5.342
REMARK  Name = 45784112
REMARK  15 active torsions:
REMARK  status: ('A' for Active; 'I' for Inactive)
REMARK    1  A    between atoms: N_2  and  C_13
REMARK    2  A    between atoms: N_2  and  C_19
REMARK    3  A    between atoms: C_6  and  C_10
REMARK    4  A    between atoms: C_7  and  C_13
REMARK    5  A    between atoms: C_9  and  C_14
REMARK    6  A    between atoms: C_10  and  C_15
REMARK    7  A    between atoms: C_10  and  C_16
REMARK    8  A    between atoms: C_11  and  C_17
REMARK    9  A    between atoms: C_14  and  C_18
REMARK   10  A    between atoms: C_19  and  C_22
REMARK   11  A    between atoms: C_20  and  C_21
REMARK   12  A    between atoms: C_21  and  C_23
REMARK   13  A    between atoms: C_21  and  C_24
REMARK   14  A    between atoms: C_21  and  C_25
REMARK   15  A    between atoms: C_30  and  C_31
REMARK                            x       y       z     vdW  Elec       q    Type
REMARK                         _______ _______ _______ _____ _____    ______ ____
ROOT
ATOM      6  C   UNL     1      -4.346   2.181  24.763  0.00  0.00    +0.000 C 
ATOM      7  C   UNL     1      -3.887   3.137  23.637  0.00  0.00    +0.029 C 
ATOM      8  C   UNL     1      -3.135   1.507  25.421  0.00  0.00    +0.012 C 
ATOM      9  C   UNL     1      -2.107   2.510  25.987  0.00  0.00    +0.024 C 
ATOM     11  C   UNL     1      -1.903   3.722  25.090  0.00  0.00    -0.073 C 
ATOM     12  C   UNL     1      -2.702   3.978  24.038  0.00  0.00    -0.023 C 
ATOM     17  C   UNL     1      -0.798   4.676  25.453  0.00  0.00    +0.039 C 
ENDROOT
BRANCH   6  10
ATOM     10  C   UNL     1      -5.207   2.913  25.801  0.00  0.00    -0.013 C 
ATOM     15  C   UNL     1      -5.731   4.226  25.229  0.00  0.00    +0.007 C 
ATOM     16  C   UNL     1      -6.359   2.023  26.258  0.00  0.00    +0.007 C 
ENDBRANCH   6  10
BRANCH   7  13
ATOM     13  C   UNL     1      -3.553   2.377  22.350  0.00  0.00    +0.089 C 
BRANCH  13   2
ATOM      2  N   UNL     1      -2.117   2.228  22.199  0.00  0.00    -0.311 NA
ATOM     32  H   UNL     1      -1.646   2.877  22.830  0.00  0.00    +0.122 HD
BRANCH   2  19
ATOM     19  C   UNL     1      -1.697   0.862  22.490  0.00  0.00    +0.116 C 
BRANCH  19  22
ATOM     22  C   UNL     1      -0.205   0.757  22.651  0.00  0.00    -0.034 A 
ATOM     26  C   UNL     1       0.482  -0.327  22.104  0.00  0.00    +0.006 A 
ATOM     27  C   UNL     1       0.493   1.744  23.349  0.00  0.00    +0.006 A 
ATOM     28  C   UNL     1       1.866  -0.424  22.253  0.00  0.00    +0.019 A 
ATOM     29  C   UNL     1       1.877   1.646  23.499  0.00  0.00    +0.019 A 
ATOM     30  C   UNL     1       2.563   0.562  22.950  0.00  0.00    +0.052 A 
BRANCH  30  31
ATOM      5  N   UNL     1       5.131   0.380  23.227  0.00  0.00    -0.191 NA
ATOM     31  C   UNL     1       3.980   0.462  23.104  0.00  0.00    +0.099 C 
ENDBRANCH  30  31
ENDBRANCH  19  22
ENDBRANCH   2  19
ENDBRANCH  13   2
ENDBRANCH   7  13
BRANCH   9  14
ATOM     14  C   UNL     1      -0.803   1.761  26.284  0.00  0.00    +0.105 C 
BRANCH  14  18
ATOM      1  O   UNL     1      -2.103  -0.131  25.457  0.00  0.00    -0.424 OA
ATOM      3  N   UNL     1       0.066  -0.578  25.768  0.00  0.00    -0.112 NA
ATOM      4  N   UNL     1      -0.545  -1.727  25.302  0.00  0.00    -0.112 NA
ATOM     18  C   UNL     1      -0.881   0.327  25.843  0.00  0.00    +0.218 A 
ATOM     20  C   UNL     1      -1.809  -1.420  25.134  0.00  0.00    +0.223 A 
BRANCH  20  21
ATOM     21  C   UNL     1      -2.919  -2.254  24.657  0.00  0.00    +0.040 C 
ATOM     23  C   UNL     1      -3.566  -3.092  25.814  0.00  0.00    +0.020 C 
ATOM     24  C   UNL     1      -2.458  -3.278  23.562  0.00  0.00    +0.020 C 
ATOM     25  C   UNL     1      -4.130  -1.489  23.999  0.00  0.00    +0.020 C 
ENDBRANCH  20  21
ENDBRANCH  14  18
ENDBRANCH   9  14
TORSDOF 9
ENDMDL
MODEL 5
REMARK VINA RESULT:       1.3      1.953      6.524
REMARK  Name = 45784112
REMARK  15 active torsions:
REMARK  status: ('A' for Active; 'I' for Inactive)
REMARK    1  A    between atoms: N_2  and  C_13
REMARK    2  A    between atoms: N_2  and  C_19
REMARK    3  A    between atoms: C_6  and  C_10
REMARK    4  A    between atoms: C_7  and  C_13
REMARK    5  A    between atoms: C_9  and  C_14
REMARK    6  A    between atoms: C_10  and  C_15
REMARK    7  A    between atoms: C_10  and  C_16
REMARK    8  A    between atoms: C_11  and  C_17
REMARK    9  A    between atoms: C_14  and  C_18
REMARK   10  A    between atoms: C_19  and  C_22
REMARK   11  A    between atoms: C_20  and  C_21
REMARK   12  A    between atoms: C_21  and  C_23
REMARK   13  A    between atoms: C_21  and  C_24
REMARK   14  A    between atoms: C_21  and  C_25
REMARK   15  A    between atoms: C_30  and  C_31
REMARK                            x       y       z     vdW  Elec       q    Type
REMARK                         _______ _______ _______ _____ _____    ______ ____
ROOT
ATOM      6  C   UNL     1      -0.416   3.548  23.897  0.00  0.00    +0.000 C 
ATOM      7  C   UNL     1      -0.234   2.709  25.182  0.00  0.00    +0.029 C 
ATOM      8  C   UNL     1      -1.876   3.499  23.426  0.00  0.00    +0.012 C 
ATOM      9  C   UNL     1      -2.881   3.975  24.496  0.00  0.00    +0.024 C 
ATOM     11  C   UNL     1      -2.523   3.507  25.898  0.00  0.00    -0.073 C 
ATOM     12  C   UNL     1      -1.340   2.933  26.183  0.00  0.00    -0.023 C 
ATOM     17  C   UNL     1      -3.524   3.762  26.992  0.00  0.00    +0.039 C 
ENDROOT
BRANCH   6  10
ATOM     10  C   UNL     1       0.053   4.995  24.102  0.00  0.00    -0.013 C 
ATOM     15  C   UNL     1       0.502   5.602  22.777  0.00  0.00    +0.007 C 
ATOM     16  C   UNL     1      -1.058   5.830  24.731  0.00  0.00    +0.007 C 
ENDBRANCH   6  10
BRANCH   7  13
ATOM     13  C   UNL     1      -0.131   1.213  24.872  0.00  0.00    +0.089 C 
BRANCH  13   2
ATOM      2  N   UNL     1       0.387   1.001  23.532  0.00  0.00    -0.311 NA
ATOM     32  H   UNL     1       1.100   1.703  23.335  0.00  0.00    +0.122 HD
BRANCH   2  19
ATOM     19  C   UNL     1       0.955  -0.336  23.394  0.00  0.00    +0.116 C 
BRANCH  19  22
ATOM     22  C   UNL     1       2.458  -0.301  23.328  0.00  0.00    -0.034 A 
ATOM     26  C   UNL     1       3.203  -1.387  23.791  0.00  0.00    +0.006 A 
ATOM     27  C   UNL     1       3.108   0.817  22.803  0.00  0.00    +0.006 A 
ATOM     28  C   UNL     1       4.596  -1.355  23.729  0.00  0.00    +0.019 A 
ATOM     29  C   UNL     1       4.502   0.849  22.742  0.00  0.00    +0.019 A 
ATOM     30  C   UNL     1       5.245  -0.238  23.205  0.00  0.00    +0.052 A 
BRANCH  30  31
ATOM      5  N   UNL     1       7.832  -0.179  23.091  0.00  0.00    -0.191 NA
ATOM     31  C   UNL     1       6.672  -0.205  23.143  0.00  0.00    +0.099 C 
ENDBRANCH  30  31
ENDBRANCH  19  22
ENDBRANCH   2  19
ENDBRANCH  13   2
ENDBRANCH   7  13
BRANCH   9  14
ATOM     14  C   UNL     1      -4.291   3.551  24.068  0.00  0.00    +0.105 C 
BRANCH  14  18
ATOM      1  O   UNL     1      -3.738   1.181  24.248  0.00  0.00    -0.424 OA
ATOM      3  N   UNL     1      -5.651   1.753  25.256  0.00  0.00    -0.112 NA
ATOM      4  N   UNL     1      -5.463   0.395  25.435  0.00  0.00    -0.112 NA
ATOM     18  C   UNL     1      -4.621   2.170  24.558  0.00  0.00    +0.218 A 
ATOM     20  C   UNL     1      -4.335   0.105  24.832  0.00  0.00    +0.223 A 
BRANCH  20  21
ATOM     21  C   UNL     1      -3.647  -1.185  24.704  0.00  0.00    +0.040 C 
ATOM     23  C   UNL     1      -4.501  -2.232  23.907  0.00  0.00    +0.020 C 
ATOM     24  C   UNL     1      -3.336  -1.827  26.102  0.00  0.00    +0.020 C 
ATOM     25  C   UNL     1      -2.257  -1.161  23.962  0.00  0.00    +0.020 C 
ENDBRANCH  20  21
ENDBRANCH  14  18
ENDBRANCH   9  14
TORSDOF 9
ENDMDL
