MODEL 1
REMARK VINA RESULT:      -2.7      0.000      0.000
REMARK  Name = 45361017
REMARK  8 active torsions:
REMARK  status: ('A' for Active; 'I' for Inactive)
REMARK    1  A    between atoms: N_4  and  C_15
REMARK    2  A    between atoms: N_5  and  C_17
REMARK    3  A    between atoms: N_7  and  C_26
REMARK    4  A    between atoms: C_12  and  C_16
REMARK    5  A    between atoms: C_15  and  C_19
REMARK    6  A    between atoms: C_16  and  C_18
REMARK    7  A    between atoms: C_18  and  C_20
REMARK    8  A    between atoms: C_26  and  C_27
REMARK                            x       y       z     vdW  Elec       q    Type
REMARK                         _______ _______ _______ _____ _____    ______ ____
ROOT
ATOM      2  O   UNL     1      -6.986  -8.527  13.421  0.00  0.00    -0.274 OA
ATOM      4  N   UNL     1      -8.409  -9.275  11.252  0.00  0.00    -0.286 NA
ATOM      5  N   UNL     1      -4.920  -9.005  10.183  0.00  0.00    -0.296 NA
ATOM      6  N   UNL     1      -5.173  -9.834  12.935  0.00  0.00    -0.312 N 
ATOM      8  C   UNL     1      -6.299  -9.530  10.078  0.00  0.00    +0.084 C 
ATOM      9  C   UNL     1      -7.066  -9.868  11.391  0.00  0.00    +0.161 C 
ATOM     10  C   UNL     1      -7.279  -8.575   9.372  0.00  0.00    +0.036 C 
ATOM     11  C   UNL     1      -8.637  -9.065   9.826  0.00  0.00    +0.087 C 
ATOM     12  C   UNL     1      -3.944  -9.954  10.788  0.00  0.00    +0.074 C 
ATOM     13  C   UNL     1      -6.429  -9.324  12.668  0.00  0.00    +0.232 C 
ATOM     14  C   UNL     1      -4.457 -10.710  12.028  0.00  0.00    +0.123 C 
ATOM     17  C   UNL     1      -4.435  -8.542   8.871  0.00  0.00    +0.105 C 
ATOM     31  H   UNL     1      -4.703  -9.531  13.782  0.00  0.00    +0.149 HD
ENDROOT
BRANCH   4  15
ATOM     15  C   UNL     1      -9.461 -10.078  11.863  0.00  0.00    +0.120 C 
BRANCH  15  19
ATOM     19  C   UNL     1      -9.576  -9.820  13.341  0.00  0.00    -0.033 A 
ATOM     21  C   UNL     1     -10.146  -8.632  13.800  0.00  0.00    +0.005 A 
ATOM     22  C   UNL     1      -9.115 -10.771  14.253  0.00  0.00    +0.005 A 
ATOM     23  C   UNL     1     -10.253  -8.395  15.170  0.00  0.00    +0.000 A 
ATOM     24  C   UNL     1      -9.222 -10.532  15.623  0.00  0.00    +0.000 A 
ATOM     25  C   UNL     1      -9.792  -9.344  16.082  0.00  0.00    +0.000 A 
ENDBRANCH  15  19
ENDBRANCH   4  15
BRANCH  12  16
ATOM     16  C   UNL     1      -2.653  -9.214  11.197  0.00  0.00    +0.029 C 
BRANCH  16  18
ATOM     18  C   UNL     1      -1.644 -10.180  11.788  0.00  0.00    +0.097 C 
BRANCH  18  20
ATOM      3  O   UNL     1      -0.663  -8.995  13.659  0.00  0.00    -0.276 OA
ATOM      7  N   UNL     1      -2.088 -10.781  14.074  0.00  0.00    -0.311 N 
ATOM     20  C   UNL     1      -1.394  -9.898  13.259  0.00  0.00    +0.213 C 
ATOM     32  H   UNL     1      -2.684 -11.488  13.654  0.00  0.00    +0.149 HD
BRANCH   7  26
ATOM     26  C   UNL     1      -2.014 -10.720  15.514  0.00  0.00    +0.146 C 
BRANCH  26  27
ATOM      1  S   UNL     1      -3.520 -10.668  17.852  0.00  0.00    -0.100 S 
ATOM     27  C   UNL     1      -3.381 -10.721  16.146  0.00  0.00    +0.007 A 
ATOM     28  C   UNL     1      -4.612 -10.761  15.528  0.00  0.00    +0.013 A 
ATOM     29  C   UNL     1      -5.683 -10.748  16.468  0.00  0.00    +0.008 A 
ATOM     30  C   UNL     1      -5.230 -10.698  17.768  0.00  0.00    +0.045 A 
ENDBRANCH  26  27
ENDBRANCH   7  26
ENDBRANCH  18  20
ENDBRANCH  16  18
ENDBRANCH  12  16
TORSDOF 7
ENDMDL
MODEL 2
REMARK VINA RESULT:      -2.2     15.109     17.793
REMARK  Name = 45361017
REMARK  8 active torsions:
REMARK  status: ('A' for Active; 'I' for Inactive)
REMARK    1  A    between atoms: N_4  and  C_15
REMARK    2  A    between atoms: N_5  and  C_17
REMARK    3  A    between atoms: N_7  and  C_26
REMARK    4  A    between atoms: C_12  and  C_16
REMARK    5  A    between atoms: C_15  and  C_19
REMARK    6  A    between atoms: C_16  and  C_18
REMARK    7  A    between atoms: C_18  and  C_20
REMARK    8  A    between atoms: C_26  and  C_27
REMARK                            x       y       z     vdW  Elec       q    Type
REMARK                         _______ _______ _______ _____ _____    ______ ____
ROOT
ATOM      2  O   UNL     1      -0.495   1.954  23.836  0.00  0.00    -0.274 OA
ATOM      4  N   UNL     1       0.477  -0.565  23.876  0.00  0.00    -0.286 NA
ATOM      5  N   UNL     1      -2.852  -0.695  25.390  0.00  0.00    -0.296 NA
ATOM      6  N   UNL     1      -2.642   1.335  23.350  0.00  0.00    -0.312 N 
ATOM      8  C   UNL     1      -1.698  -1.286  24.677  0.00  0.00    +0.084 C 
ATOM      9  C   UNL     1      -0.966  -0.423  23.607  0.00  0.00    +0.161 C 
ATOM     10  C   UNL     1      -0.539  -1.702  25.601  0.00  0.00    +0.036 C 
ATOM     11  C   UNL     1       0.647  -1.781  24.664  0.00  0.00    +0.087 C 
ATOM     12  C   UNL     1      -4.014  -0.366  24.517  0.00  0.00    +0.074 C 
ATOM     13  C   UNL     1      -1.317   1.063  23.627  0.00  0.00    +0.232 C 
ATOM     14  C   UNL     1      -3.650   0.306  23.179  0.00  0.00    +0.123 C 
ATOM     17  C   UNL     1      -3.279  -1.560  26.503  0.00  0.00    +0.105 C 
ATOM     31  H   UNL     1      -2.937   2.305  23.324  0.00  0.00    +0.149 HD
ENDROOT
BRANCH   4  15
ATOM     15  C   UNL     1       1.292  -0.576  22.668  0.00  0.00    +0.120 C 
BRANCH  15  19
ATOM     19  C   UNL     1       2.747  -0.340  22.970  0.00  0.00    -0.033 A 
ATOM     21  C   UNL     1       3.335   0.885  22.653  0.00  0.00    +0.005 A 
ATOM     22  C   UNL     1       3.507  -1.346  23.568  0.00  0.00    +0.005 A 
ATOM     23  C   UNL     1       4.684   1.103  22.934  0.00  0.00    +0.000 A 
ATOM     24  C   UNL     1       4.856  -1.126  23.848  0.00  0.00    +0.000 A 
ATOM     25  C   UNL     1       5.445   0.098  23.531  0.00  0.00    +0.000 A 
ENDBRANCH  15  19
ENDBRANCH   4  15
BRANCH  12  16
ATOM     16  C   UNL     1      -4.996   0.568  25.254  0.00  0.00    +0.029 C 
BRANCH  16  18
ATOM     18  C   UNL     1      -5.480   1.673  24.334  0.00  0.00    +0.097 C 
BRANCH  18  20
ATOM      3  O   UNL     1      -4.415   3.756  23.706  0.00  0.00    -0.276 OA
ATOM      7  N   UNL     1      -4.519   3.171  25.951  0.00  0.00    -0.311 N 
ATOM     20  C   UNL     1      -4.751   2.979  24.597  0.00  0.00    +0.213 C 
ATOM     32  H   UNL     1      -4.848   2.481  26.619  0.00  0.00    +0.149 HD
BRANCH   7  26
ATOM     26  C   UNL     1      -3.840   4.340  26.457  0.00  0.00    +0.146 C 
BRANCH  26  27
ATOM      1  S   UNL     1      -1.290   3.243  26.275  0.00  0.00    -0.100 S 
ATOM     27  C   UNL     1      -2.442   4.457  25.910  0.00  0.00    +0.007 A 
ATOM     28  C   UNL     1      -1.913   5.449  25.113  0.00  0.00    +0.013 A 
ATOM     29  C   UNL     1      -0.544   5.209  24.798  0.00  0.00    +0.008 A 
ATOM     30  C   UNL     1      -0.079   4.042  25.366  0.00  0.00    +0.045 A 
ENDBRANCH  26  27
ENDBRANCH   7  26
ENDBRANCH  18  20
ENDBRANCH  16  18
ENDBRANCH  12  16
TORSDOF 7
ENDMDL
MODEL 3
REMARK VINA RESULT:      -0.6     15.664     18.321
REMARK  Name = 45361017
REMARK  8 active torsions:
REMARK  status: ('A' for Active; 'I' for Inactive)
REMARK    1  A    between atoms: N_4  and  C_15
REMARK    2  A    between atoms: N_5  and  C_17
REMARK    3  A    between atoms: N_7  and  C_26
REMARK    4  A    between atoms: C_12  and  C_16
REMARK    5  A    between atoms: C_15  and  C_19
REMARK    6  A    between atoms: C_16  and  C_18
REMARK    7  A    between atoms: C_18  and  C_20
REMARK    8  A    between atoms: C_26  and  C_27
REMARK                            x       y       z     vdW  Elec       q    Type
REMARK                         _______ _______ _______ _____ _____    ______ ____
ROOT
ATOM      2  O   UNL     1       0.707   2.345  23.911  0.00  0.00    -0.274 OA
ATOM      4  N   UNL     1       0.441  -0.334  23.700  0.00  0.00    -0.286 NA
ATOM      5  N   UNL     1      -2.789   0.961  24.833  0.00  0.00    -0.296 NA
ATOM      6  N   UNL     1      -1.389   2.819  23.127  0.00  0.00    -0.312 N 
ATOM      8  C   UNL     1      -1.923  -0.037  24.166  0.00  0.00    +0.084 C 
ATOM      9  C   UNL     1      -0.729   0.475  23.307  0.00  0.00    +0.161 C 
ATOM     10  C   UNL     1      -1.227  -1.008  25.137  0.00  0.00    +0.036 C 
ATOM     11  C   UNL     1      -0.070  -1.549  24.324  0.00  0.00    +0.087 C 
ATOM     12  C   UNL     1      -3.534   1.852  23.900  0.00  0.00    +0.074 C 
ATOM     13  C   UNL     1      -0.382   1.949  23.497  0.00  0.00    +0.232 C 
ATOM     14  C   UNL     1      -2.709   2.384  22.714  0.00  0.00    +0.123 C 
ATOM     17  C   UNL     1      -3.721   0.305  25.766  0.00  0.00    +0.105 C 
ATOM     31  H   UNL     1      -1.214   3.816  23.207  0.00  0.00    +0.149 HD
ENDROOT
BRANCH   4  15
ATOM     15  C   UNL     1       1.341  -0.624  22.591  0.00  0.00    +0.120 C 
BRANCH  15  19
ATOM     19  C   UNL     1       2.780  -0.392  22.962  0.00  0.00    -0.033 A 
ATOM     21  C   UNL     1       3.502  -1.392  23.615  0.00  0.00    +0.005 A 
ATOM     22  C   UNL     1       3.395   0.822  22.651  0.00  0.00    +0.005 A 
ATOM     23  C   UNL     1       4.837  -1.177  23.957  0.00  0.00    +0.000 A 
ATOM     24  C   UNL     1       4.729   1.036  22.994  0.00  0.00    +0.000 A 
ATOM     25  C   UNL     1       5.451   0.037  23.647  0.00  0.00    +0.000 A 
ENDBRANCH  15  19
ENDBRANCH   4  15
BRANCH  12  16
ATOM     16  C   UNL     1      -4.101   3.072  24.656  0.00  0.00    +0.029 C 
BRANCH  16  18
ATOM     18  C   UNL     1      -3.454   3.205  26.023  0.00  0.00    +0.097 C 
BRANCH  18  20
ATOM      3  O   UNL     1      -1.691   4.734  25.376  0.00  0.00    -0.276 OA
ATOM      7  N   UNL     1      -1.137   2.782  26.505  0.00  0.00    -0.311 N 
ATOM     20  C   UNL     1      -2.016   3.680  25.918  0.00  0.00    +0.213 C 
ATOM     32  H   UNL     1      -1.498   1.942  26.946  0.00  0.00    +0.149 HD
BRANCH   7  26
ATOM     26  C   UNL     1       0.289   3.008  26.534  0.00  0.00    +0.146 C 
BRANCH  26  27
ATOM      1  S   UNL     1       2.539   3.026  28.169  0.00  0.00    -0.100 S 
ATOM     27  C   UNL     1       0.863   2.785  27.908  0.00  0.00    +0.007 A 
ATOM     28  C   UNL     1       0.212   2.394  29.057  0.00  0.00    +0.013 A 
ATOM     29  C   UNL     1       1.101   2.291  30.167  0.00  0.00    +0.008 A 
ATOM     30  C   UNL     1       2.397   2.607  29.823  0.00  0.00    +0.045 A 
ENDBRANCH  26  27
ENDBRANCH   7  26
ENDBRANCH  18  20
ENDBRANCH  16  18
ENDBRANCH  12  16
TORSDOF 7
ENDMDL
MODEL 4
REMARK VINA RESULT:       0.3     14.697     17.410
REMARK  Name = 45361017
REMARK  8 active torsions:
REMARK  status: ('A' for Active; 'I' for Inactive)
REMARK    1  A    between atoms: N_4  and  C_15
REMARK    2  A    between atoms: N_5  and  C_17
REMARK    3  A    between atoms: N_7  and  C_26
REMARK    4  A    between atoms: C_12  and  C_16
REMARK    5  A    between atoms: C_15  and  C_19
REMARK    6  A    between atoms: C_16  and  C_18
REMARK    7  A    between atoms: C_18  and  C_20
REMARK    8  A    between atoms: C_26  and  C_27
REMARK                            x       y       z     vdW  Elec       q    Type
REMARK                         _______ _______ _______ _____ _____    ______ ____
ROOT
ATOM      2  O   UNL     1      -0.896  -0.031  26.410  0.00  0.00    -0.274 OA
ATOM      4  N   UNL     1      -0.040  -0.533  23.899  0.00  0.00    -0.286 NA
ATOM      5  N   UNL     1      -1.629   2.762  23.832  0.00  0.00    -0.296 NA
ATOM      6  N   UNL     1      -0.367   2.194  26.363  0.00  0.00    -0.312 N 
ATOM      8  C   UNL     1      -0.690   1.736  23.329  0.00  0.00    +0.084 C 
ATOM      9  C   UNL     1       0.077   0.862  24.365  0.00  0.00    +0.161 C 
ATOM     10  C   UNL     1      -1.351   0.669  22.436  0.00  0.00    +0.036 C 
ATOM     11  C   UNL     1      -0.369  -0.482  22.478  0.00  0.00    +0.087 C 
ATOM     12  C   UNL     1      -0.988   3.847  24.627  0.00  0.00    +0.074 C 
ATOM     13  C   UNL     1      -0.455   0.938  25.794  0.00  0.00    +0.232 C 
ATOM     14  C   UNL     1       0.071   3.371  25.639  0.00  0.00    +0.123 C 
ATOM     17  C   UNL     1      -2.418   3.337  22.728  0.00  0.00    +0.105 C 
ATOM     31  H   UNL     1      -0.683   2.308  27.321  0.00  0.00    +0.149 HD
ENDROOT
BRANCH   4  15
ATOM     15  C   UNL     1       1.152  -1.330  24.157  0.00  0.00    +0.120 C 
BRANCH  15  19
ATOM     19  C   UNL     1       2.402  -0.640  23.682  0.00  0.00    -0.033 A 
ATOM     21  C   UNL     1       3.649  -1.229  23.894  0.00  0.00    +0.005 A 
ATOM     22  C   UNL     1       2.315   0.590  23.027  0.00  0.00    +0.005 A 
ATOM     23  C   UNL     1       4.807  -0.590  23.452  0.00  0.00    +0.000 A 
ATOM     24  C   UNL     1       3.473   1.229  22.586  0.00  0.00    +0.000 A 
ATOM     25  C   UNL     1       4.720   0.639  22.798  0.00  0.00    +0.000 A 
ENDBRANCH  15  19
ENDBRANCH   4  15
BRANCH  12  16
ATOM     16  C   UNL     1      -2.053   4.644  25.410  0.00  0.00    +0.029 C 
BRANCH  16  18
ATOM     18  C   UNL     1      -2.810   3.737  26.362  0.00  0.00    +0.097 C 
BRANCH  18  20
ATOM      3  O   UNL     1      -5.023   3.687  25.379  0.00  0.00    -0.276 OA
ATOM      7  N   UNL     1      -3.777   1.729  25.461  0.00  0.00    -0.311 N 
ATOM     20  C   UNL     1      -3.999   3.080  25.684  0.00  0.00    +0.213 C 
ATOM     32  H   UNL     1      -2.891   1.315  25.732  0.00  0.00    +0.149 HD
BRANCH   7  26
ATOM     26  C   UNL     1      -4.760   0.882  24.829  0.00  0.00    +0.146 C 
BRANCH  26  27
ATOM      1  S   UNL     1      -3.524  -1.287  26.056  0.00  0.00    -0.100 S 
ATOM     27  C   UNL     1      -4.282  -0.542  24.713  0.00  0.00    +0.007 A 
ATOM     28  C   UNL     1      -4.364  -1.388  23.630  0.00  0.00    +0.013 A 
ATOM     29  C   UNL     1      -3.797  -2.667  23.905  0.00  0.00    +0.008 A 
ATOM     30  C   UNL     1      -3.303  -2.748  25.189  0.00  0.00    +0.045 A 
ENDBRANCH  26  27
ENDBRANCH   7  26
ENDBRANCH  18  20
ENDBRANCH  16  18
ENDBRANCH  12  16
TORSDOF 7
ENDMDL
MODEL 5
REMARK VINA RESULT:       1.0     14.648     17.492
REMARK  Name = 45361017
REMARK  8 active torsions:
REMARK  status: ('A' for Active; 'I' for Inactive)
REMARK    1  A    between atoms: N_4  and  C_15
REMARK    2  A    between atoms: N_5  and  C_17
REMARK    3  A    between atoms: N_7  and  C_26
REMARK    4  A    between atoms: C_12  and  C_16
REMARK    5  A    between atoms: C_15  and  C_19
REMARK    6  A    between atoms: C_16  and  C_18
REMARK    7  A    between atoms: C_18  and  C_20
REMARK    8  A    between atoms: C_26  and  C_27
REMARK                            x       y       z     vdW  Elec       q    Type
REMARK                         _______ _______ _______ _____ _____    ______ ____
ROOT
ATOM      2  O   UNL     1      -0.965  -1.185  22.069  0.00  0.00    -0.274 OA
ATOM      4  N   UNL     1       1.083   0.441  22.740  0.00  0.00    -0.286 NA
ATOM      5  N   UNL     1      -1.164   0.331  25.625  0.00  0.00    -0.296 NA
ATOM      6  N   UNL     1      -1.150  -2.141  24.138  0.00  0.00    -0.312 N 
ATOM      8  C   UNL     1       0.153   0.525  24.981  0.00  0.00    +0.084 C 
ATOM      9  C   UNL     1       0.554  -0.423  23.812  0.00  0.00    +0.161 C 
ATOM     10  C   UNL     1       0.338   1.915  24.344  0.00  0.00    +0.036 C 
ATOM     11  C   UNL     1       1.469   1.704  23.360  0.00  0.00    +0.087 C 
ATOM     12  C   UNL     1      -1.324  -0.978  26.318  0.00  0.00    +0.074 C 
ATOM     13  C   UNL     1      -0.589  -1.258  23.238  0.00  0.00    +0.232 C 
ATOM     14  C   UNL     1      -0.785  -2.194  25.541  0.00  0.00    +0.123 C 
ATOM     17  C   UNL     1      -1.463   1.438  26.551  0.00  0.00    +0.105 C 
ATOM     31  H   UNL     1      -1.900  -2.744  23.814  0.00  0.00    +0.149 HD
ENDROOT
BRANCH   4  15
ATOM     15  C   UNL     1       2.183  -0.164  22.001  0.00  0.00    +0.120 C 
BRANCH  15  19
ATOM     19  C   UNL     1       3.453  -0.194  22.808  0.00  0.00    -0.033 A 
ATOM     21  C   UNL     1       4.259   0.942  22.881  0.00  0.00    +0.005 A 
ATOM     22  C   UNL     1       3.823  -1.357  23.484  0.00  0.00    +0.005 A 
ATOM     23  C   UNL     1       5.436   0.915  23.630  0.00  0.00    +0.000 A 
ATOM     24  C   UNL     1       5.000  -1.384  24.232  0.00  0.00    +0.000 A 
ATOM     25  C   UNL     1       5.807  -0.248  24.306  0.00  0.00    +0.000 A 
ENDBRANCH  15  19
ENDBRANCH   4  15
BRANCH  12  16
ATOM     16  C   UNL     1      -2.812  -1.247  26.628  0.00  0.00    +0.029 C 
BRANCH  16  18
ATOM     18  C   UNL     1      -3.550  -1.685  25.376  0.00  0.00    +0.097 C 
BRANCH  18  20
ATOM      3  O   UNL     1      -3.897  -0.381  23.365  0.00  0.00    -0.276 OA
ATOM      7  N   UNL     1      -4.698   0.428  25.388  0.00  0.00    -0.311 N 
ATOM     20  C   UNL     1      -4.053  -0.495  24.578  0.00  0.00    +0.213 C 
ATOM     32  H   UNL     1      -4.794   0.242  26.382  0.00  0.00    +0.149 HD
BRANCH   7  26
ATOM     26  C   UNL     1      -5.265   1.648  24.865  0.00  0.00    +0.146 C 
BRANCH  26  27
ATOM      1  S   UNL     1      -3.203   3.133  23.733  0.00  0.00    -0.100 S 
ATOM     27  C   UNL     1      -4.314   2.809  24.996  0.00  0.00    +0.007 A 
ATOM     28  C   UNL     1      -4.192   3.704  26.035  0.00  0.00    +0.013 A 
ATOM     29  C   UNL     1      -3.172   4.670  25.792  0.00  0.00    +0.008 A 
ATOM     30  C   UNL     1      -2.555   4.475  24.576  0.00  0.00    +0.045 A 
ENDBRANCH  26  27
ENDBRANCH   7  26
ENDBRANCH  18  20
ENDBRANCH  16  18
ENDBRANCH  12  16
TORSDOF 7
ENDMDL
