MODEL 1
REMARK VINA RESULT:      -3.4      0.000      0.000
REMARK  Name = 25390339
REMARK  7 active torsions:
REMARK  status: ('A' for Active; 'I' for Inactive)
REMARK    1  A    between atoms: O_3  and  C_12
REMARK    2  A    between atoms: O_4  and  C_13
REMARK    3  A    between atoms: N_9  and  C_16
REMARK    4  A    between atoms: N_10  and  C_23
REMARK    5  A    between atoms: C_11  and  C_15
REMARK    6  A    between atoms: C_14  and  C_16
REMARK    7  A    between atoms: C_15  and  C_17
REMARK                            x       y       z     vdW  Elec       q    Type
REMARK                         _______ _______ _______ _____ _____    ______ ____
ROOT
ATOM      2  O   UNL     1      -3.618   1.496  23.815  0.00  0.00    -0.366 OA
ATOM     11  C   UNL     1      -4.822   1.466  24.601  0.00  0.00    +0.159 C 
ATOM     12  C   UNL     1      -4.715   2.637  25.561  0.00  0.00    +0.175 C 
ATOM     13  C   UNL     1      -4.005   3.667  24.707  0.00  0.00    +0.176 C 
ATOM     14  C   UNL     1      -3.016   2.807  23.930  0.00  0.00    +0.167 C 
ENDROOT
BRANCH  12   3
ATOM      3  O   UNL     1      -5.981   3.066  26.017  0.00  0.00    -0.387 OA
ATOM     29  H   UNL     1      -5.885   3.315  26.952  0.00  0.00    +0.210 HD
ENDBRANCH  12   3
BRANCH  13   4
ATOM      4  O   UNL     1      -4.915   4.249  23.774  0.00  0.00    -0.387 OA
ATOM     30  H   UNL     1      -5.790   4.273  24.196  0.00  0.00    +0.210 HD
ENDBRANCH  13   4
BRANCH  11  15
ATOM     15  C   UNL     1      -4.942   0.123  25.298  0.00  0.00    +0.130 C 
BRANCH  15  17
ATOM      5  O   UNL     1      -0.249  -1.713  25.607  0.00  0.00    -0.377 OA
ATOM      6  O   UNL     1      -4.702  -1.379  23.481  0.00  0.00    -0.276 OA
ATOM      8  N   UNL     1      -2.989  -1.363  25.047  0.00  0.00    -0.297 N 
ATOM     17  C   UNL     1      -4.208  -0.941  24.523  0.00  0.00    +0.218 C 
ATOM     18  C   UNL     1      -2.209  -2.388  24.354  0.00  0.00    +0.136 C 
ATOM     19  C   UNL     1      -2.433  -0.957  26.343  0.00  0.00    +0.136 C 
ATOM     20  C   UNL     1      -0.741  -1.988  24.293  0.00  0.00    +0.179 C 
ATOM     21  C   UNL     1      -0.955  -0.620  26.202  0.00  0.00    +0.179 C 
ENDBRANCH  15  17
ENDBRANCH  11  15
BRANCH  14  16
ATOM     16  C   UNL     1      -1.680   2.644  24.641  0.00  0.00    +0.140 C 
BRANCH  16   9
ATOM      7  O   UNL     1       1.051   2.062  25.281  0.00  0.00    -0.253 OA
ATOM      9  N   UNL     1      -0.749   1.911  23.836  0.00  0.00    -0.297 N 
ATOM     10  N   UNL     1       1.248   0.924  23.237  0.00  0.00    -0.269 N 
ATOM     22  C   UNL     1       0.580   1.663  24.219  0.00  0.00    +0.304 C 
ATOM     31  H   UNL     1      -1.072   1.540  22.948  0.00  0.00    +0.150 HD
ATOM     32  H   UNL     1       0.710   0.674  22.411  0.00  0.00    +0.156 HD
BRANCH  10  23
ATOM      1  F   UNL     1       4.501  -2.516  24.032  0.00  0.00    -0.205 F 
ATOM     23  C   UNL     1       2.590   0.480  23.248  0.00  0.00    +0.037 A 
ATOM     24  C   UNL     1       2.889  -0.824  23.643  0.00  0.00    +0.061 A 
ATOM     25  C   UNL     1       3.615   1.343  22.861  0.00  0.00    +0.023 A 
ATOM     26  C   UNL     1       4.212  -1.265  23.653  0.00  0.00    +0.125 A 
ATOM     27  C   UNL     1       4.938   0.903  22.871  0.00  0.00    +0.005 A 
ATOM     28  C   UNL     1       5.237  -0.401  23.266  0.00  0.00    +0.038 A 
ENDBRANCH  10  23
ENDBRANCH  16   9
ENDBRANCH  14  16
TORSDOF 7
ENDMDL
MODEL 2
REMARK VINA RESULT:      -3.0     18.051     19.458
REMARK  Name = 25390339
REMARK  7 active torsions:
REMARK  status: ('A' for Active; 'I' for Inactive)
REMARK    1  A    between atoms: O_3  and  C_12
REMARK    2  A    between atoms: O_4  and  C_13
REMARK    3  A    between atoms: N_9  and  C_16
REMARK    4  A    between atoms: N_10  and  C_23
REMARK    5  A    between atoms: C_11  and  C_15
REMARK    6  A    between atoms: C_14  and  C_16
REMARK    7  A    between atoms: C_15  and  C_17
REMARK                            x       y       z     vdW  Elec       q    Type
REMARK                         _______ _______ _______ _____ _____    ______ ____
ROOT
ATOM      2  O   UNL     1      17.224 -10.175  27.544  0.00  0.00    -0.366 OA
ATOM     11  C   UNL     1      15.930 -10.746  27.809  0.00  0.00    +0.159 C 
ATOM     12  C   UNL     1      14.944  -9.922  27.001  0.00  0.00    +0.175 C 
ATOM     13  C   UNL     1      15.755  -9.608  25.761  0.00  0.00    +0.176 C 
ATOM     14  C   UNL     1      17.145  -9.375  26.341  0.00  0.00    +0.167 C 
ENDROOT
BRANCH  12   3
ATOM      3  O   UNL     1      13.757 -10.635  26.727  0.00  0.00    -0.387 OA
ATOM     29  H   UNL     1      13.009 -10.050  26.939  0.00  0.00    +0.210 HD
ENDBRANCH  12   3
BRANCH  13   4
ATOM      4  O   UNL     1      15.817 -10.750  24.907  0.00  0.00    -0.387 OA
ATOM     30  H   UNL     1      16.194 -11.481  25.425  0.00  0.00    +0.210 HD
ENDBRANCH  13   4
BRANCH  11  15
ATOM     15  C   UNL     1      15.658 -10.718  29.303  0.00  0.00    +0.130 C 
BRANCH  15  17
ATOM      5  O   UNL     1      14.888  -6.162  31.338  0.00  0.00    -0.377 OA
ATOM      6  O   UNL     1      13.310 -10.485  29.528  0.00  0.00    -0.276 OA
ATOM      8  N   UNL     1      14.585  -8.589  29.939  0.00  0.00    -0.297 N 
ATOM     17  C   UNL     1      14.408  -9.928  29.596  0.00  0.00    +0.218 C 
ATOM     18  C   UNL     1      13.425  -7.753  30.244  0.00  0.00    +0.136 C 
ATOM     19  C   UNL     1      15.860  -7.864  29.908  0.00  0.00    +0.136 C 
ATOM     20  C   UNL     1      13.686  -6.919  31.492  0.00  0.00    +0.179 C 
ATOM     21  C   UNL     1      16.019  -7.022  31.166  0.00  0.00    +0.179 C 
ENDBRANCH  15  17
ENDBRANCH  11  15
BRANCH  14  16
ATOM     16  C   UNL     1      17.393  -7.925  26.731  0.00  0.00    +0.140 C 
BRANCH  16   9
ATOM      7  O   UNL     1      17.142  -5.071  26.746  0.00  0.00    -0.253 OA
ATOM      9  N   UNL     1      17.340  -7.063  25.587  0.00  0.00    -0.297 N 
ATOM     10  N   UNL     1      17.194  -5.092  24.399  0.00  0.00    -0.269 N 
ATOM     22  C   UNL     1      17.217  -5.666  25.674  0.00  0.00    +0.304 C 
ATOM     31  H   UNL     1      17.409  -7.485  24.666  0.00  0.00    +0.150 HD
ATOM     32  H   UNL     1      17.264  -5.731  23.610  0.00  0.00    +0.156 HD
BRANCH  10  23
ATOM      1  F   UNL     1      16.226  -0.557  25.643  0.00  0.00    -0.205 F 
ATOM     23  C   UNL     1      17.080  -3.723  24.066  0.00  0.00    +0.037 A 
ATOM     24  C   UNL     1      16.701  -2.797  25.038  0.00  0.00    +0.061 A 
ATOM     25  C   UNL     1      17.350  -3.296  22.765  0.00  0.00    +0.023 A 
ATOM     26  C   UNL     1      16.591  -1.446  24.710  0.00  0.00    +0.125 A 
ATOM     27  C   UNL     1      17.240  -1.945  22.437  0.00  0.00    +0.005 A 
ATOM     28  C   UNL     1      16.861  -1.020  23.410  0.00  0.00    +0.038 A 
ENDBRANCH  10  23
ENDBRANCH  16   9
ENDBRANCH  14  16
TORSDOF 7
ENDMDL
MODEL 3
REMARK VINA RESULT:      -3.0     17.382     19.481
REMARK  Name = 25390339
REMARK  7 active torsions:
REMARK  status: ('A' for Active; 'I' for Inactive)
REMARK    1  A    between atoms: O_3  and  C_12
REMARK    2  A    between atoms: O_4  and  C_13
REMARK    3  A    between atoms: N_9  and  C_16
REMARK    4  A    between atoms: N_10  and  C_23
REMARK    5  A    between atoms: C_11  and  C_15
REMARK    6  A    between atoms: C_14  and  C_16
REMARK    7  A    between atoms: C_15  and  C_17
REMARK                            x       y       z     vdW  Elec       q    Type
REMARK                         _______ _______ _______ _____ _____    ______ ____
ROOT
ATOM      2  O   UNL     1      17.405  -9.618  29.058  0.00  0.00    -0.366 OA
ATOM     11  C   UNL     1      16.175 -10.132  29.598  0.00  0.00    +0.159 C 
ATOM     12  C   UNL     1      15.067  -9.468  28.800  0.00  0.00    +0.175 C 
ATOM     13  C   UNL     1      15.694  -9.383  27.424  0.00  0.00    +0.176 C 
ATOM     14  C   UNL     1      17.143  -9.048  27.755  0.00  0.00    +0.167 C 
ENDROOT
BRANCH  12   3
ATOM      3  O   UNL     1      13.873 -10.220  28.824  0.00  0.00    -0.387 OA
ATOM     29  H   UNL     1      13.637 -10.362  29.758  0.00  0.00    +0.210 HD
ENDBRANCH  12   3
BRANCH  13   4
ATOM      4  O   UNL     1      15.669 -10.660  26.787  0.00  0.00    -0.387 OA
ATOM     30  H   UNL     1      14.788 -10.771  26.391  0.00  0.00    +0.210 HD
ENDBRANCH  13   4
BRANCH  11  15
ATOM     15  C   UNL     1      16.107  -9.836  31.086  0.00  0.00    +0.130 C 
BRANCH  15  17
ATOM      5  O   UNL     1      11.879  -7.156  31.747  0.00  0.00    -0.377 OA
ATOM      6  O   UNL     1      16.773  -7.562  31.158  0.00  0.00    -0.276 OA
ATOM      8  N   UNL     1      14.563  -8.014  31.707  0.00  0.00    -0.297 N 
ATOM     17  C   UNL     1      15.854  -8.368  31.320  0.00  0.00    +0.218 C 
ATOM     18  C   UNL     1      14.231  -6.611  31.950  0.00  0.00    +0.136 C 
ATOM     19  C   UNL     1      13.484  -8.954  32.030  0.00  0.00    +0.136 C 
ATOM     20  C   UNL     1      12.900  -6.261  31.298  0.00  0.00    +0.179 C 
ATOM     21  C   UNL     1      12.182  -8.505  31.379  0.00  0.00    +0.179 C 
ENDBRANCH  15  17
ENDBRANCH  11  15
BRANCH  14  16
ATOM     16  C   UNL     1      17.405  -7.551  27.841  0.00  0.00    +0.140 C 
BRANCH  16   9
ATOM      7  O   UNL     1      17.253  -4.736  27.329  0.00  0.00    -0.253 OA
ATOM      9  N   UNL     1      17.236  -6.920  26.565  0.00  0.00    -0.297 N 
ATOM     10  N   UNL     1      17.005  -5.204  25.042  0.00  0.00    -0.269 N 
ATOM     22  C   UNL     1      17.171  -5.527  26.392  0.00  0.00    +0.304 C 
ATOM     31  H   UNL     1      17.173  -7.512  25.743  0.00  0.00    +0.150 HD
ATOM     32  H   UNL     1      16.954  -5.984  24.390  0.00  0.00    +0.156 HD
BRANCH  10  23
ATOM      1  F   UNL     1      17.405  -0.431  25.367  0.00  0.00    -0.205 F 
ATOM     23  C   UNL     1      16.896  -3.919  24.464  0.00  0.00    +0.037 A 
ATOM     24  C   UNL     1      17.210  -2.787  25.216  0.00  0.00    +0.061 A 
ATOM     25  C   UNL     1      16.478  -3.782  23.140  0.00  0.00    +0.023 A 
ATOM     26  C   UNL     1      17.105  -1.518  24.646  0.00  0.00    +0.125 A 
ATOM     27  C   UNL     1      16.372  -2.513  22.570  0.00  0.00    +0.005 A 
ATOM     28  C   UNL     1      16.686  -1.382  23.322  0.00  0.00    +0.038 A 
ENDBRANCH  10  23
ENDBRANCH  16   9
ENDBRANCH  14  16
TORSDOF 7
ENDMDL
MODEL 4
REMARK VINA RESULT:      -2.2      1.645      2.117
REMARK  Name = 25390339
REMARK  7 active torsions:
REMARK  status: ('A' for Active; 'I' for Inactive)
REMARK    1  A    between atoms: O_3  and  C_12
REMARK    2  A    between atoms: O_4  and  C_13
REMARK    3  A    between atoms: N_9  and  C_16
REMARK    4  A    between atoms: N_10  and  C_23
REMARK    5  A    between atoms: C_11  and  C_15
REMARK    6  A    between atoms: C_14  and  C_16
REMARK    7  A    between atoms: C_15  and  C_17
REMARK                            x       y       z     vdW  Elec       q    Type
REMARK                         _______ _______ _______ _____ _____    ______ ____
ROOT
ATOM      2  O   UNL     1      -3.243   3.528  23.924  0.00  0.00    -0.366 OA
ATOM     11  C   UNL     1      -4.115   2.394  24.073  0.00  0.00    +0.159 C 
ATOM     12  C   UNL     1      -4.367   2.262  25.565  0.00  0.00    +0.175 C 
ATOM     13  C   UNL     1      -4.394   3.713  25.997  0.00  0.00    +0.176 C 
ATOM     14  C   UNL     1      -3.298   4.323  25.131  0.00  0.00    +0.167 C 
ENDROOT
BRANCH  12   3
ATOM      3  O   UNL     1      -5.569   1.574  25.840  0.00  0.00    -0.387 OA
ATOM     29  H   UNL     1      -5.331   0.733  26.268  0.00  0.00    +0.210 HD
ENDBRANCH  12   3
BRANCH  13   4
ATOM      4  O   UNL     1      -5.635   4.317  25.632  0.00  0.00    -0.387 OA
ATOM     30  H   UNL     1      -6.320   3.950  26.216  0.00  0.00    +0.210 HD
ENDBRANCH  13   4
BRANCH  11  15
ATOM     15  C   UNL     1      -3.466   1.166  23.460  0.00  0.00    +0.130 C 
BRANCH  15  17
ATOM      5  O   UNL     1      -1.392  -3.053  25.301  0.00  0.00    -0.377 OA
ATOM      6  O   UNL     1      -5.266  -0.300  23.934  0.00  0.00    -0.276 OA
ATOM      8  N   UNL     1      -3.170  -0.955  24.685  0.00  0.00    -0.297 N 
ATOM     17  C   UNL     1      -4.056  -0.091  24.046  0.00  0.00    +0.218 C 
ATOM     18  C   UNL     1      -3.659  -2.200  25.276  0.00  0.00    +0.136 C 
ATOM     19  C   UNL     1      -1.752  -0.680  24.945  0.00  0.00    +0.136 C 
ATOM     20  C   UNL     1      -2.736  -3.357  24.917  0.00  0.00    +0.179 C 
ATOM     21  C   UNL     1      -0.907  -1.901  24.606  0.00  0.00    +0.179 C 
ENDBRANCH  15  17
ENDBRANCH  11  15
BRANCH  14  16
ATOM     16  C   UNL     1      -1.924   4.273  25.784  0.00  0.00    +0.140 C 
BRANCH  16   9
ATOM      7  O   UNL     1       0.045   3.819  23.754  0.00  0.00    -0.253 OA
ATOM      9  N   UNL     1      -1.258   3.037  25.498  0.00  0.00    -0.297 N 
ATOM     10  N   UNL     1       0.179   1.578  24.439  0.00  0.00    -0.269 N 
ATOM     22  C   UNL     1      -0.298   2.891  24.483  0.00  0.00    +0.304 C 
ATOM     31  H   UNL     1      -1.484   2.228  26.069  0.00  0.00    +0.150 HD
ATOM     32  H   UNL     1      -0.214   0.928  25.116  0.00  0.00    +0.156 HD
BRANCH  10  23
ATOM      1  F   UNL     1       4.730   1.195  22.958  0.00  0.00    -0.205 F 
ATOM     23  C   UNL     1       1.145   1.034  23.562  0.00  0.00    +0.037 A 
ATOM     24  C   UNL     1       2.487   1.390  23.695  0.00  0.00    +0.061 A 
ATOM     25  C   UNL     1       0.757   0.138  22.564  0.00  0.00    +0.023 A 
ATOM     26  C   UNL     1       3.442   0.853  22.831  0.00  0.00    +0.125 A 
ATOM     27  C   UNL     1       1.712  -0.399  21.701  0.00  0.00    +0.005 A 
ATOM     28  C   UNL     1       3.054  -0.042  21.835  0.00  0.00    +0.038 A 
ENDBRANCH  10  23
ENDBRANCH  16   9
ENDBRANCH  14  16
TORSDOF 7
ENDMDL
MODEL 5
REMARK VINA RESULT:      -1.5      2.280      5.475
REMARK  Name = 25390339
REMARK  7 active torsions:
REMARK  status: ('A' for Active; 'I' for Inactive)
REMARK    1  A    between atoms: O_3  and  C_12
REMARK    2  A    between atoms: O_4  and  C_13
REMARK    3  A    between atoms: N_9  and  C_16
REMARK    4  A    between atoms: N_10  and  C_23
REMARK    5  A    between atoms: C_11  and  C_15
REMARK    6  A    between atoms: C_14  and  C_16
REMARK    7  A    between atoms: C_15  and  C_17
REMARK                            x       y       z     vdW  Elec       q    Type
REMARK                         _______ _______ _______ _____ _____    ______ ____
ROOT
ATOM      2  O   UNL     1      -2.963   3.788  26.586  0.00  0.00    -0.366 OA
ATOM     11  C   UNL     1      -1.658   3.684  25.990  0.00  0.00    +0.159 C 
ATOM     12  C   UNL     1      -1.807   4.221  24.577  0.00  0.00    +0.175 C 
ATOM     13  C   UNL     1      -2.820   5.328  24.779  0.00  0.00    +0.176 C 
ATOM     14  C   UNL     1      -3.759   4.716  25.812  0.00  0.00    +0.167 C 
ENDROOT
BRANCH  12   3
ATOM      3  O   UNL     1      -0.578   4.676  24.052  0.00  0.00    -0.387 OA
ATOM     29  H   UNL     1       0.128   4.147  24.461  0.00  0.00    +0.210 HD
ENDBRANCH  12   3
BRANCH  13   4
ATOM      4  O   UNL     1      -2.197   6.469  25.368  0.00  0.00    -0.387 OA
ATOM     30  H   UNL     1      -2.743   7.243  25.153  0.00  0.00    +0.210 HD
ENDBRANCH  13   4
BRANCH  11  15
ATOM     15  C   UNL     1      -1.188   2.241  26.040  0.00  0.00    +0.130 C 
BRANCH  15  17
ATOM      5  O   UNL     1       0.985  -0.300  22.256  0.00  0.00    -0.377 OA
ATOM      6  O   UNL     1       1.147   2.570  26.281  0.00  0.00    -0.276 OA
ATOM      8  N   UNL     1       0.441   1.531  24.328  0.00  0.00    -0.297 N 
ATOM     17  C   UNL     1       0.240   2.135  25.567  0.00  0.00    +0.218 C 
ATOM     18  C   UNL     1       1.796   1.383  23.798  0.00  0.00    +0.136 C 
ATOM     19  C   UNL     1      -0.618   1.117  23.401  0.00  0.00    +0.136 C 
ATOM     20  C   UNL     1       1.993  -0.016  23.229  0.00  0.00    +0.179 C 
ATOM     21  C   UNL     1      -0.319  -0.268  22.844  0.00  0.00    +0.179 C 
ENDBRANCH  15  17
ENDBRANCH  11  15
BRANCH  14  16
ATOM     16  C   UNL     1      -4.907   3.937  25.187  0.00  0.00    +0.140 C 
BRANCH  16   9
ATOM      7  O   UNL     1      -3.687   1.819  23.693  0.00  0.00    -0.253 OA
ATOM      9  N   UNL     1      -4.853   2.551  25.551  0.00  0.00    -0.297 N 
ATOM     10  N   UNL     1      -4.336   0.311  25.371  0.00  0.00    -0.269 N 
ATOM     22  C   UNL     1      -4.233   1.567  24.764  0.00  0.00    +0.304 C 
ATOM     31  H   UNL     1      -5.274   2.271  26.431  0.00  0.00    +0.150 HD
ATOM     32  H   UNL     1      -4.825   0.275  26.262  0.00  0.00    +0.156 HD
BRANCH  10  23
ATOM      1  F   UNL     1      -0.916  -3.055  25.254  0.00  0.00    -0.205 F 
ATOM     23  C   UNL     1      -3.844  -0.926  24.896  0.00  0.00    +0.037 A 
ATOM     24  C   UNL     1      -2.598  -1.389  25.317  0.00  0.00    +0.061 A 
ATOM     25  C   UNL     1      -4.606  -1.686  24.007  0.00  0.00    +0.023 A 
ATOM     26  C   UNL     1      -2.112  -2.610  24.851  0.00  0.00    +0.125 A 
ATOM     27  C   UNL     1      -4.120  -2.907  23.540  0.00  0.00    +0.005 A 
ATOM     28  C   UNL     1      -2.874  -3.370  23.963  0.00  0.00    +0.038 A 
ENDBRANCH  10  23
ENDBRANCH  16   9
ENDBRANCH  14  16
TORSDOF 7
ENDMDL
MODEL 6
REMARK VINA RESULT:      -1.5      1.565      2.129
REMARK  Name = 25390339
REMARK  7 active torsions:
REMARK  status: ('A' for Active; 'I' for Inactive)
REMARK    1  A    between atoms: O_3  and  C_12
REMARK    2  A    between atoms: O_4  and  C_13
REMARK    3  A    between atoms: N_9  and  C_16
REMARK    4  A    between atoms: N_10  and  C_23
REMARK    5  A    between atoms: C_11  and  C_15
REMARK    6  A    between atoms: C_14  and  C_16
REMARK    7  A    between atoms: C_15  and  C_17
REMARK                            x       y       z     vdW  Elec       q    Type
REMARK                         _______ _______ _______ _____ _____    ______ ____
ROOT
ATOM      2  O   UNL     1      -3.577   2.789  23.785  0.00  0.00    -0.366 OA
ATOM     11  C   UNL     1      -3.613   3.198  25.163  0.00  0.00    +0.159 C 
ATOM     12  C   UNL     1      -2.216   2.950  25.703  0.00  0.00    +0.175 C 
ATOM     13  C   UNL     1      -1.362   3.282  24.497  0.00  0.00    +0.176 C 
ATOM     14  C   UNL     1      -2.197   2.723  23.352  0.00  0.00    +0.167 C 
ENDROOT
BRANCH  12   3
ATOM      3  O   UNL     1      -1.932   3.754  26.828  0.00  0.00    -0.387 OA
ATOM     29  H   UNL     1      -2.215   3.261  27.618  0.00  0.00    +0.210 HD
ENDBRANCH  12   3
BRANCH  13   4
ATOM      4  O   UNL     1      -1.269   4.696  24.329  0.00  0.00    -0.387 OA
ATOM     30  H   UNL     1      -0.404   4.974  24.675  0.00  0.00    +0.210 HD
ENDBRANCH  13   4
BRANCH  11  15
ATOM     15  C   UNL     1      -4.691   2.421  25.898  0.00  0.00    +0.130 C 
BRANCH  15  17
ATOM      5  O   UNL     1      -2.861  -2.130  24.698  0.00  0.00    -0.377 OA
ATOM      6  O   UNL     1      -6.181   1.513  24.294  0.00  0.00    -0.276 OA
ATOM      8  N   UNL     1      -4.556   0.081  25.127  0.00  0.00    -0.297 N 
ATOM     17  C   UNL     1      -5.217   1.303  25.033  0.00  0.00    +0.218 C 
ATOM     18  C   UNL     1      -4.998  -1.055  24.318  0.00  0.00    +0.136 C 
ATOM     19  C   UNL     1      -3.490  -0.240  26.083  0.00  0.00    +0.136 C 
ATOM     20  C   UNL     1      -3.802  -1.756  23.688  0.00  0.00    +0.179 C 
ATOM     21  C   UNL     1      -2.358  -0.979  25.383  0.00  0.00    +0.179 C 
ENDBRANCH  15  17
ENDBRANCH  11  15
BRANCH  14  16
ATOM     16  C   UNL     1      -1.879   1.269  23.034  0.00  0.00    +0.140 C 
BRANCH  16   9
ATOM      7  O   UNL     1       0.415   0.366  24.494  0.00  0.00    -0.253 OA
ATOM      9  N   UNL     1      -0.544   1.128  22.532  0.00  0.00    -0.297 N 
ATOM     10  N   UNL     1       1.709   0.639  22.555  0.00  0.00    -0.269 N 
ATOM     22  C   UNL     1       0.534   0.675  23.311  0.00  0.00    +0.304 C 
ATOM     31  H   UNL     1      -0.373   1.355  21.557  0.00  0.00    +0.150 HD
ATOM     32  H   UNL     1       1.635   0.932  21.583  0.00  0.00    +0.156 HD
BRANCH  10  23
ATOM      1  F   UNL     1       4.734  -2.732  24.148  0.00  0.00    -0.205 F 
ATOM     23  C   UNL     1       3.000   0.244  22.976  0.00  0.00    +0.037 A 
ATOM     24  C   UNL     1       3.234  -1.075  23.363  0.00  0.00    +0.061 A 
ATOM     25  C   UNL     1       4.041   1.174  23.001  0.00  0.00    +0.023 A 
ATOM     26  C   UNL     1       4.508  -1.466  23.776  0.00  0.00    +0.125 A 
ATOM     27  C   UNL     1       5.314   0.783  23.414  0.00  0.00    +0.005 A 
ATOM     28  C   UNL     1       5.548  -0.537  23.801  0.00  0.00    +0.038 A 
ENDBRANCH  10  23
ENDBRANCH  16   9
ENDBRANCH  14  16
TORSDOF 7
ENDMDL
MODEL 7
REMARK VINA RESULT:      -1.4      1.625      3.907
REMARK  Name = 25390339
REMARK  7 active torsions:
REMARK  status: ('A' for Active; 'I' for Inactive)
REMARK    1  A    between atoms: O_3  and  C_12
REMARK    2  A    between atoms: O_4  and  C_13
REMARK    3  A    between atoms: N_9  and  C_16
REMARK    4  A    between atoms: N_10  and  C_23
REMARK    5  A    between atoms: C_11  and  C_15
REMARK    6  A    between atoms: C_14  and  C_16
REMARK    7  A    between atoms: C_15  and  C_17
REMARK                            x       y       z     vdW  Elec       q    Type
REMARK                         _______ _______ _______ _____ _____    ______ ____
ROOT
ATOM      2  O   UNL     1      -3.355   0.474  25.303  0.00  0.00    -0.366 OA
ATOM     11  C   UNL     1      -4.582  -0.223  25.027  0.00  0.00    +0.159 C 
ATOM     12  C   UNL     1      -4.279  -1.143  23.858  0.00  0.00    +0.175 C 
ATOM     13  C   UNL     1      -2.848  -1.544  24.151  0.00  0.00    +0.176 C 
ATOM     14  C   UNL     1      -2.259  -0.247  24.693  0.00  0.00    +0.167 C 
ENDROOT
BRANCH  12   3
ATOM      3  O   UNL     1      -5.167  -2.239  23.802  0.00  0.00    -0.387 OA
ATOM     29  H   UNL     1      -4.638  -3.049  23.910  0.00  0.00    +0.210 HD
ENDBRANCH  12   3
BRANCH  13   4
ATOM      4  O   UNL     1      -2.810  -2.518  25.194  0.00  0.00    -0.387 OA
ATOM     30  H   UNL     1      -2.607  -2.050  26.022  0.00  0.00    +0.210 HD
ENDBRANCH  13   4
BRANCH  11  15
ATOM     15  C   UNL     1      -5.684   0.780  24.735  0.00  0.00    +0.130 C 
BRANCH  15  17
ATOM      5  O   UNL     1      -2.513   4.708  24.864  0.00  0.00    -0.377 OA
ATOM      6  O   UNL     1      -6.210   1.987  26.706  0.00  0.00    -0.276 OA
ATOM      8  N   UNL     1      -4.719   2.995  25.239  0.00  0.00    -0.297 N 
ATOM     17  C   UNL     1      -5.569   1.971  25.653  0.00  0.00    +0.218 C 
ATOM     18  C   UNL     1      -4.546   4.184  26.073  0.00  0.00    +0.136 C 
ATOM     19  C   UNL     1      -4.041   3.066  23.940  0.00  0.00    +0.136 C 
ATOM     20  C   UNL     1      -3.071   4.552  26.171  0.00  0.00    +0.179 C 
ATOM     21  C   UNL     1      -2.589   3.485  24.125  0.00  0.00    +0.179 C 
ENDBRANCH  15  17
ENDBRANCH  11  15
BRANCH  14  16
ATOM     16  C   UNL     1      -1.667   0.639  23.606  0.00  0.00    +0.140 C 
BRANCH  16   9
ATOM      7  O   UNL     1       0.969   1.261  24.539  0.00  0.00    -0.253 OA
ATOM      9  N   UNL     1      -0.434   0.101  23.112  0.00  0.00    -0.297 N 
ATOM     10  N   UNL     1       1.842  -0.228  22.949  0.00  0.00    -0.269 N 
ATOM     22  C   UNL     1       0.826   0.455  23.623  0.00  0.00    +0.304 C 
ATOM     31  H   UNL     1      -0.476  -0.581  22.361  0.00  0.00    +0.150 HD
ATOM     32  H   UNL     1       1.552  -0.863  22.208  0.00  0.00    +0.156 HD
BRANCH  10  23
ATOM      1  F   UNL     1       5.982  -2.235  24.321  0.00  0.00    -0.205 F 
ATOM     23  C   UNL     1       3.237  -0.145  23.166  0.00  0.00    +0.037 A 
ATOM     24  C   UNL     1       3.935  -1.253  23.646  0.00  0.00    +0.061 A 
ATOM     25  C   UNL     1       3.916   1.044  22.898  0.00  0.00    +0.023 A 
ATOM     26  C   UNL     1       5.311  -1.172  23.860  0.00  0.00    +0.125 A 
ATOM     27  C   UNL     1       5.292   1.125  23.111  0.00  0.00    +0.005 A 
ATOM     28  C   UNL     1       5.989   0.016  23.591  0.00  0.00    +0.038 A 
ENDBRANCH  10  23
ENDBRANCH  16   9
ENDBRANCH  14  16
TORSDOF 7
ENDMDL
MODEL 8
REMARK VINA RESULT:       0.0      1.990      4.255
REMARK  Name = 25390339
REMARK  7 active torsions:
REMARK  status: ('A' for Active; 'I' for Inactive)
REMARK    1  A    between atoms: O_3  and  C_12
REMARK    2  A    between atoms: O_4  and  C_13
REMARK    3  A    between atoms: N_9  and  C_16
REMARK    4  A    between atoms: N_10  and  C_23
REMARK    5  A    between atoms: C_11  and  C_15
REMARK    6  A    between atoms: C_14  and  C_16
REMARK    7  A    between atoms: C_15  and  C_17
REMARK                            x       y       z     vdW  Elec       q    Type
REMARK                         _______ _______ _______ _____ _____    ______ ____
ROOT
ATOM      2  O   UNL     1      -4.311  -0.160  25.870  0.00  0.00    -0.366 OA
ATOM     11  C   UNL     1      -4.509   0.139  24.477  0.00  0.00    +0.159 C 
ATOM     12  C   UNL     1      -3.486  -0.698  23.728  0.00  0.00    +0.175 C 
ATOM     13  C   UNL     1      -3.448  -1.955  24.571  0.00  0.00    +0.176 C 
ATOM     14  C   UNL     1      -3.567  -1.395  25.983  0.00  0.00    +0.167 C 
ENDROOT
BRANCH  12   3
ATOM      3  O   UNL     1      -3.872  -0.933  22.391  0.00  0.00    -0.387 OA
ATOM     29  H   UNL     1      -3.754  -0.099  21.903  0.00  0.00    +0.210 HD
ENDBRANCH  12   3
BRANCH  13   4
ATOM      4  O   UNL     1      -4.598  -2.760  24.315  0.00  0.00    -0.387 OA
ATOM     30  H   UNL     1      -5.320  -2.162  24.057  0.00  0.00    +0.210 HD
ENDBRANCH  13   4
BRANCH  11  15
ATOM     15  C   UNL     1      -4.351   1.631  24.248  0.00  0.00    +0.130 C 
BRANCH  15  17
ATOM      5  O   UNL     1      -1.235   5.418  25.451  0.00  0.00    -0.377 OA
ATOM      6  O   UNL     1      -2.415   1.341  22.913  0.00  0.00    -0.276 OA
ATOM      8  N   UNL     1      -2.297   2.960  24.572  0.00  0.00    -0.297 N 
ATOM     17  C   UNL     1      -2.935   1.956  23.846  0.00  0.00    +0.218 C 
ATOM     18  C   UNL     1      -0.924   3.342  24.243  0.00  0.00    +0.136 C 
ATOM     19  C   UNL     1      -2.838   3.624  25.763  0.00  0.00    +0.136 C 
ATOM     20  C   UNL     1      -0.787   4.858  24.214  0.00  0.00    +0.179 C 
ATOM     21  C   UNL     1      -2.618   5.128  25.675  0.00  0.00    +0.179 C 
ENDBRANCH  15  17
ENDBRANCH  11  15
BRANCH  14  16
ATOM     16  C   UNL     1      -2.219  -1.070  26.612  0.00  0.00    +0.140 C 
BRANCH  16   9
ATOM      7  O   UNL     1      -0.019  -1.859  24.956  0.00  0.00    -0.253 OA
ATOM      9  N   UNL     1      -1.440  -0.221  25.760  0.00  0.00    -0.297 N 
ATOM     10  N   UNL     1       0.198   0.368  24.248  0.00  0.00    -0.269 N 
ATOM     22  C   UNL     1      -0.371  -0.683  24.973  0.00  0.00    +0.304 C 
ATOM     31  H   UNL     1      -1.683   0.764  25.714  0.00  0.00    +0.150 HD
ATOM     32  H   UNL     1      -0.216   1.288  24.378  0.00  0.00    +0.156 HD
BRANCH  10  23
ATOM      1  F   UNL     1       4.751   1.406  23.134  0.00  0.00    -0.205 F 
ATOM     23  C   UNL     1       1.288   0.312  23.349  0.00  0.00    +0.037 A 
ATOM     24  C   UNL     1       2.506   0.899  23.692  0.00  0.00    +0.061 A 
ATOM     25  C   UNL     1       1.146  -0.334  22.120  0.00  0.00    +0.023 A 
ATOM     26  C   UNL     1       3.582   0.842  22.806  0.00  0.00    +0.125 A 
ATOM     27  C   UNL     1       2.223  -0.391  21.234  0.00  0.00    +0.005 A 
ATOM     28  C   UNL     1       3.441   0.196  21.578  0.00  0.00    +0.038 A 
ENDBRANCH  10  23
ENDBRANCH  16   9
ENDBRANCH  14  16
TORSDOF 7
ENDMDL
