MODEL 1
REMARK VINA RESULT:      -0.8      0.000      0.000
REMARK  Name = 38028376
REMARK  13 active torsions:
REMARK  status: ('A' for Active; 'I' for Inactive)
REMARK    1  A    between atoms: O_3  and  C_24
REMARK    2  A    between atoms: O_3  and  C_32
REMARK    3  A    between atoms: N_4  and  C_14
REMARK    4  A    between atoms: N_5  and  C_21
REMARK    5  A    between atoms: C_7  and  C_11
REMARK    6  A    between atoms: C_8  and  C_14
REMARK    7  A    between atoms: C_10  and  C_15
REMARK    8  A    between atoms: C_11  and  C_16
REMARK    9  A    between atoms: C_11  and  C_17
REMARK   10  A    between atoms: C_12  and  C_18
REMARK   11  A    between atoms: C_15  and  C_19
REMARK   12  A    between atoms: C_20  and  C_22
REMARK   13  A    between atoms: C_21  and  C_23
REMARK                            x       y       z     vdW  Elec       q    Type
REMARK                         _______ _______ _______ _____ _____    ______ ____
ROOT
ATOM      7  C   UNL     1      -3.059   3.244  25.524  0.00  0.00    +0.000 C 
ATOM      8  C   UNL     1      -3.270   3.784  24.087  0.00  0.00    +0.032 C 
ATOM      9  C   UNL     1      -1.880   3.962  26.198  0.00  0.00    +0.012 C 
ATOM     10  C   UNL     1      -0.566   3.788  25.413  0.00  0.00    +0.023 C 
ATOM     12  C   UNL     1      -0.758   4.045  23.932  0.00  0.00    -0.073 C 
ATOM     13  C   UNL     1      -1.974   4.053  23.360  0.00  0.00    -0.022 C 
ATOM     18  C   UNL     1       0.480   4.338  23.131  0.00  0.00    +0.039 C 
ENDROOT
BRANCH   7  11
ATOM     11  C   UNL     1      -4.319   3.399  26.382  0.00  0.00    -0.013 C 
ATOM     16  C   UNL     1      -3.997   4.142  27.673  0.00  0.00    +0.007 C 
ATOM     17  C   UNL     1      -5.411   4.122  25.599  0.00  0.00    +0.007 C 
ENDBRANCH   7  11
BRANCH   8  14
ATOM     14  C   UNL     1      -4.133   2.825  23.258  0.00  0.00    +0.112 C 
BRANCH  14   4
ATOM      2  O   UNL     1      -5.536   0.825  24.765  0.00  0.00    -0.270 OA
ATOM      4  N   UNL     1      -3.726   1.471  23.463  0.00  0.00    -0.311 N 
ATOM     20  C   UNL     1      -4.471   0.560  24.213  0.00  0.00    +0.248 C 
ATOM     34  H   UNL     1      -2.850   1.183  23.042  0.00  0.00    +0.149 HD
BRANCH  20  22
ATOM     22  C   UNL     1      -3.898  -0.803  24.354  0.00  0.00    +0.078 A 
ATOM     24  C   UNL     1      -2.799  -1.035  25.179  0.00  0.00    +0.132 A 
ATOM     25  C   UNL     1      -4.475  -1.857  23.647  0.00  0.00    +0.017 A 
ATOM     26  C   UNL     1      -2.274  -2.323  25.297  0.00  0.00    +0.046 A 
ATOM     27  C   UNL     1      -3.951  -3.145  23.765  0.00  0.00    +0.001 A 
ATOM     29  C   UNL     1      -2.851  -3.378  24.590  0.00  0.00    +0.004 A 
BRANCH  24   3
ATOM      3  O   UNL     1      -2.220  -0.018  25.877  0.00  0.00    -0.494 OA
ATOM     32  C   UNL     1      -1.131  -0.356  26.733  0.00  0.00    +0.277 C 
ENDBRANCH  24   3
ENDBRANCH  20  22
ENDBRANCH  14   4
ENDBRANCH   8  14
BRANCH  10  15
ATOM     15  C   UNL     1       0.043   2.403  25.656  0.00  0.00    +0.103 C 
BRANCH  15  19
ATOM      1  O   UNL     1      -0.649   1.215  23.665  0.00  0.00    -0.276 OA
ATOM      5  N   UNL     1       1.616   1.508  24.094  0.00  0.00    -0.310 N 
ATOM     19  C   UNL     1       0.262   1.645  24.365  0.00  0.00    +0.214 C 
ATOM     35  H   UNL     1       2.298   1.902  24.735  0.00  0.00    +0.149 HD
BRANCH   5  21
ATOM     21  C   UNL     1       2.121   0.826  22.925  0.00  0.00    +0.159 C 
BRANCH  21  23
ATOM      6  N   UNL     1       3.384  -1.146  23.573  0.00  0.00    -0.258 NA
ATOM     23  C   UNL     1       3.435   0.151  23.191  0.00  0.00    +0.058 A 
ATOM     28  C   UNL     1       4.610   0.867  23.036  0.00  0.00    +0.025 A 
ATOM     30  C   UNL     1       5.810   0.213  23.289  0.00  0.00    +0.003 A 
ATOM     31  C   UNL     1       4.571  -1.749  23.810  0.00  0.00    +0.111 A 
ATOM     33  C   UNL     1       5.799  -1.120  23.684  0.00  0.00    +0.020 A 
ENDBRANCH  21  23
ENDBRANCH   5  21
ENDBRANCH  15  19
ENDBRANCH  10  15
TORSDOF 9
ENDMDL
MODEL 2
REMARK VINA RESULT:      -0.1      1.670      2.291
REMARK  Name = 38028376
REMARK  13 active torsions:
REMARK  status: ('A' for Active; 'I' for Inactive)
REMARK    1  A    between atoms: O_3  and  C_24
REMARK    2  A    between atoms: O_3  and  C_32
REMARK    3  A    between atoms: N_4  and  C_14
REMARK    4  A    between atoms: N_5  and  C_21
REMARK    5  A    between atoms: C_7  and  C_11
REMARK    6  A    between atoms: C_8  and  C_14
REMARK    7  A    between atoms: C_10  and  C_15
REMARK    8  A    between atoms: C_11  and  C_16
REMARK    9  A    between atoms: C_11  and  C_17
REMARK   10  A    between atoms: C_12  and  C_18
REMARK   11  A    between atoms: C_15  and  C_19
REMARK   12  A    between atoms: C_20  and  C_22
REMARK   13  A    between atoms: C_21  and  C_23
REMARK                            x       y       z     vdW  Elec       q    Type
REMARK                         _______ _______ _______ _____ _____    ______ ____
ROOT
ATOM      7  C   UNL     1      -4.135   3.289  25.653  0.00  0.00    +0.000 C 
ATOM      8  C   UNL     1      -3.906   3.995  24.293  0.00  0.00    +0.032 C 
ATOM      9  C   UNL     1      -3.325   3.982  26.759  0.00  0.00    +0.012 C 
ATOM     10  C   UNL     1      -1.814   3.986  26.460  0.00  0.00    +0.023 C 
ATOM     12  C   UNL     1      -1.524   4.419  25.036  0.00  0.00    -0.073 C 
ATOM     13  C   UNL     1      -2.475   4.429  24.085  0.00  0.00    -0.022 C 
ATOM     18  C   UNL     1      -0.125   4.883  24.743  0.00  0.00    +0.039 C 
ENDROOT
BRANCH   7  11
ATOM     11  C   UNL     1      -5.618   3.260  26.038  0.00  0.00    -0.013 C 
ATOM     16  C   UNL     1      -6.332   4.496  25.502  0.00  0.00    +0.007 C 
ATOM     17  C   UNL     1      -6.277   1.985  25.519  0.00  0.00    +0.007 C 
ENDBRANCH   7  11
BRANCH   8  14
ATOM     14  C   UNL     1      -4.344   3.102  23.126  0.00  0.00    +0.112 C 
BRANCH  14   4
ATOM      2  O   UNL     1      -2.030   1.417  23.340  0.00  0.00    -0.270 OA
ATOM      4  N   UNL     1      -4.324   1.724  23.506  0.00  0.00    -0.311 N 
ATOM     20  C   UNL     1      -3.149   0.976  23.585  0.00  0.00    +0.248 C 
ATOM     34  H   UNL     1      -5.215   1.290  23.716  0.00  0.00    +0.149 HD
BRANCH  20  22
ATOM     22  C   UNL     1      -3.300  -0.450  23.970  0.00  0.00    +0.078 A 
ATOM     24  C   UNL     1      -2.456  -1.029  24.916  0.00  0.00    +0.132 A 
ATOM     25  C   UNL     1      -4.303  -1.212  23.370  0.00  0.00    +0.017 A 
ATOM     26  C   UNL     1      -2.613  -2.371  25.264  0.00  0.00    +0.046 A 
ATOM     27  C   UNL     1      -4.460  -2.554  23.718  0.00  0.00    +0.001 A 
ATOM     29  C   UNL     1      -3.615  -3.134  24.665  0.00  0.00    +0.004 A 
BRANCH  24   3
ATOM      3  O   UNL     1      -1.469  -0.302  25.512  0.00  0.00    -0.494 OA
ATOM     32  C   UNL     1      -0.694  -0.958  26.512  0.00  0.00    +0.277 C 
ENDBRANCH  24   3
ENDBRANCH  20  22
ENDBRANCH  14   4
ENDBRANCH   8  14
BRANCH  10  15
ATOM     15  C   UNL     1      -1.189   2.619  26.756  0.00  0.00    +0.103 C 
BRANCH  15  19
ATOM      1  O   UNL     1       1.169   3.028  27.116  0.00  0.00    -0.276 OA
ATOM      5  N   UNL     1       0.476   1.968  25.168  0.00  0.00    -0.310 N 
ATOM     19  C   UNL     1       0.281   2.577  26.399  0.00  0.00    +0.214 C 
ATOM     35  H   UNL     1      -0.325   1.623  24.647  0.00  0.00    +0.149 HD
BRANCH   5  21
ATOM     21  C   UNL     1       1.781   1.790  24.574  0.00  0.00    +0.159 C 
BRANCH  21  23
ATOM      6  N   UNL     1       2.880   0.751  22.672  0.00  0.00    -0.258 NA
ATOM     23  C   UNL     1       1.738   0.870  23.388  0.00  0.00    +0.058 A 
ATOM     28  C   UNL     1       0.563   0.200  23.090  0.00  0.00    +0.025 A 
ATOM     30  C   UNL     1       0.557  -0.645  21.987  0.00  0.00    +0.003 A 
ATOM     31  C   UNL     1       2.835  -0.079  21.606  0.00  0.00    +0.111 A 
ATOM     33  C   UNL     1       1.711  -0.793  21.225  0.00  0.00    +0.020 A 
ENDBRANCH  21  23
ENDBRANCH   5  21
ENDBRANCH  15  19
ENDBRANCH  10  15
TORSDOF 9
ENDMDL
MODEL 3
REMARK VINA RESULT:       0.0      1.751      7.377
REMARK  Name = 38028376
REMARK  13 active torsions:
REMARK  status: ('A' for Active; 'I' for Inactive)
REMARK    1  A    between atoms: O_3  and  C_24
REMARK    2  A    between atoms: O_3  and  C_32
REMARK    3  A    between atoms: N_4  and  C_14
REMARK    4  A    between atoms: N_5  and  C_21
REMARK    5  A    between atoms: C_7  and  C_11
REMARK    6  A    between atoms: C_8  and  C_14
REMARK    7  A    between atoms: C_10  and  C_15
REMARK    8  A    between atoms: C_11  and  C_16
REMARK    9  A    between atoms: C_11  and  C_17
REMARK   10  A    between atoms: C_12  and  C_18
REMARK   11  A    between atoms: C_15  and  C_19
REMARK   12  A    between atoms: C_20  and  C_22
REMARK   13  A    between atoms: C_21  and  C_23
REMARK                            x       y       z     vdW  Elec       q    Type
REMARK                         _______ _______ _______ _____ _____    ______ ____
ROOT
ATOM      7  C   UNL     1      -1.835   0.510  24.896  0.00  0.00    +0.000 C 
ATOM      8  C   UNL     1      -0.913  -0.705  24.626  0.00  0.00    +0.032 C 
ATOM      9  C   UNL     1      -2.938   0.134  25.897  0.00  0.00    +0.012 C 
ATOM     10  C   UNL     1      -3.806  -1.035  25.396  0.00  0.00    +0.023 C 
ATOM     12  C   UNL     1      -2.961  -2.174  24.860  0.00  0.00    -0.073 C 
ATOM     13  C   UNL     1      -1.666  -2.011  24.535  0.00  0.00    -0.022 C 
ATOM     18  C   UNL     1      -3.628  -3.516  24.750  0.00  0.00    +0.039 C 
ENDROOT
BRANCH   7  11
ATOM     11  C   UNL     1      -1.049   1.716  25.421  0.00  0.00    -0.013 C 
ATOM     16  C   UNL     1      -0.160   1.307  26.590  0.00  0.00    +0.007 C 
ATOM     17  C   UNL     1      -0.219   2.338  24.301  0.00  0.00    +0.007 C 
ENDBRANCH   7  11
BRANCH   8  14
ATOM     14  C   UNL     1      -0.087  -0.501  23.350  0.00  0.00    +0.112 C 
BRANCH  14   4
ATOM      2  O   UNL     1       2.063  -0.341  21.455  0.00  0.00    -0.270 OA
ATOM      4  N   UNL     1       1.311  -0.511  23.645  0.00  0.00    -0.311 N 
ATOM     20  C   UNL     1       2.294  -0.429  22.658  0.00  0.00    +0.248 C 
ATOM     34  H   UNL     1       1.578  -0.590  24.619  0.00  0.00    +0.149 HD
BRANCH  20  22
ATOM     22  C   UNL     1       3.703  -0.479  23.125  0.00  0.00    +0.078 A 
ATOM     24  C   UNL     1       4.554   0.611  22.949  0.00  0.00    +0.132 A 
ATOM     25  C   UNL     1       4.171  -1.637  23.746  0.00  0.00    +0.017 A 
ATOM     26  C   UNL     1       5.875   0.545  23.394  0.00  0.00    +0.046 A 
ATOM     27  C   UNL     1       5.492  -1.704  24.191  0.00  0.00    +0.001 A 
ATOM     29  C   UNL     1       6.344  -0.613  24.015  0.00  0.00    +0.004 A 
BRANCH  24   3
ATOM      3  O   UNL     1       4.116   1.750  22.343  0.00  0.00    -0.494 OA
ATOM     32  C   UNL     1       2.973   2.387  22.911  0.00  0.00    +0.277 C 
ENDBRANCH  24   3
ENDBRANCH  20  22
ENDBRANCH  14   4
ENDBRANCH   8  14
BRANCH  10  15
ATOM     15  C   UNL     1      -4.817  -0.561  24.346  0.00  0.00    +0.103 C 
BRANCH  15  19
ATOM      1  O   UNL     1      -4.252   1.542  23.291  0.00  0.00    -0.276 OA
ATOM      5  N   UNL     1      -5.546   1.541  25.222  0.00  0.00    -0.310 N 
ATOM     19  C   UNL     1      -4.821   0.944  24.200  0.00  0.00    +0.214 C 
ATOM     35  H   UNL     1      -5.984   0.960  25.930  0.00  0.00    +0.149 HD
BRANCH   5  21
ATOM     21  C   UNL     1      -5.718   2.971  25.335  0.00  0.00    +0.159 C 
BRANCH  21  23
ATOM      6  N   UNL     1      -3.978   4.222  24.190  0.00  0.00    -0.258 NA
ATOM     23  C   UNL     1      -4.404   3.696  25.362  0.00  0.00    +0.058 A 
ATOM     28  C   UNL     1      -3.706   3.792  26.554  0.00  0.00    +0.025 A 
ATOM     30  C   UNL     1      -2.493   4.471  26.546  0.00  0.00    +0.003 A 
ATOM     31  C   UNL     1      -2.794   4.874  24.221  0.00  0.00    +0.111 A 
ATOM     33  C   UNL     1      -2.022   5.026  25.361  0.00  0.00    +0.020 A 
ENDBRANCH  21  23
ENDBRANCH   5  21
ENDBRANCH  15  19
ENDBRANCH  10  15
TORSDOF 9
ENDMDL
MODEL 4
REMARK VINA RESULT:       0.0      1.419      1.895
REMARK  Name = 38028376
REMARK  13 active torsions:
REMARK  status: ('A' for Active; 'I' for Inactive)
REMARK    1  A    between atoms: O_3  and  C_24
REMARK    2  A    between atoms: O_3  and  C_32
REMARK    3  A    between atoms: N_4  and  C_14
REMARK    4  A    between atoms: N_5  and  C_21
REMARK    5  A    between atoms: C_7  and  C_11
REMARK    6  A    between atoms: C_8  and  C_14
REMARK    7  A    between atoms: C_10  and  C_15
REMARK    8  A    between atoms: C_11  and  C_16
REMARK    9  A    between atoms: C_11  and  C_17
REMARK   10  A    between atoms: C_12  and  C_18
REMARK   11  A    between atoms: C_15  and  C_19
REMARK   12  A    between atoms: C_20  and  C_22
REMARK   13  A    between atoms: C_21  and  C_23
REMARK                            x       y       z     vdW  Elec       q    Type
REMARK                         _______ _______ _______ _____ _____    ______ ____
ROOT
ATOM      7  C   UNL     1      -2.972   3.401  25.368  0.00  0.00    +0.000 C 
ATOM      8  C   UNL     1      -4.116   3.177  24.348  0.00  0.00    +0.032 C 
ATOM      9  C   UNL     1      -1.708   3.904  24.654  0.00  0.00    +0.012 C 
ATOM     10  C   UNL     1      -1.216   2.918  23.578  0.00  0.00    +0.023 C 
ATOM     12  C   UNL     1      -2.349   2.440  22.692  0.00  0.00    -0.073 C 
ATOM     13  C   UNL     1      -3.639   2.577  23.046  0.00  0.00    -0.022 C 
ATOM     18  C   UNL     1      -1.965   1.842  21.367  0.00  0.00    +0.039 C 
ENDROOT
BRANCH   7  11
ATOM     11  C   UNL     1      -3.374   4.390  26.466  0.00  0.00    -0.013 C 
ATOM     16  C   UNL     1      -2.864   3.917  27.823  0.00  0.00    +0.007 C 
ATOM     17  C   UNL     1      -2.846   5.786  26.146  0.00  0.00    +0.007 C 
ENDBRANCH   7  11
BRANCH   8  14
ATOM     14  C   UNL     1      -5.222   2.296  24.941  0.00  0.00    +0.112 C 
BRANCH  14   4
ATOM      2  O   UNL     1      -2.968   0.730  25.784  0.00  0.00    -0.270 OA
ATOM      4  N   UNL     1      -4.984   0.918  24.649  0.00  0.00    -0.311 N 
ATOM     20  C   UNL     1      -3.857   0.230  25.100  0.00  0.00    +0.248 C 
ATOM     34  H   UNL     1      -5.674   0.441  24.080  0.00  0.00    +0.149 HD
BRANCH  20  22
ATOM     22  C   UNL     1      -3.744  -1.192  24.688  0.00  0.00    +0.078 A 
ATOM     24  C   UNL     1      -2.625  -1.950  25.032  0.00  0.00    +0.132 A 
ATOM     25  C   UNL     1      -4.775  -1.768  23.946  0.00  0.00    +0.017 A 
ATOM     26  C   UNL     1      -2.536  -3.284  24.635  0.00  0.00    +0.046 A 
ATOM     27  C   UNL     1      -4.686  -3.102  23.548  0.00  0.00    +0.001 A 
ATOM     29  C   UNL     1      -3.567  -3.860  23.893  0.00  0.00    +0.004 A 
BRANCH  24   3
ATOM      3  O   UNL     1      -1.606  -1.405  25.756  0.00  0.00    -0.494 OA
ATOM     32  C   UNL     1      -0.279  -1.753  25.369  0.00  0.00    +0.277 C 
ENDBRANCH  24   3
ENDBRANCH  20  22
ENDBRANCH  14   4
ENDBRANCH   8  14
BRANCH  10  15
ATOM     15  C   UNL     1      -0.477   1.734  24.210  0.00  0.00    +0.103 C 
BRANCH  15  19
ATOM      1  O   UNL     1       1.843   2.106  23.634  0.00  0.00    -0.276 OA
ATOM      5  N   UNL     1       0.706   0.308  22.698  0.00  0.00    -0.310 N 
ATOM     19  C   UNL     1       0.826   1.433  23.503  0.00  0.00    +0.214 C 
ATOM     35  H   UNL     1      -0.180  -0.186  22.657  0.00  0.00    +0.149 HD
BRANCH   5  21
ATOM     21  C   UNL     1       1.794  -0.212  21.904  0.00  0.00    +0.159 C 
BRANCH  21  23
ATOM      6  N   UNL     1       3.880   0.844  22.566  0.00  0.00    -0.258 NA
ATOM     23  C   UNL     1       3.085  -0.246  22.670  0.00  0.00    +0.058 A 
ATOM     28  C   UNL     1       3.393  -1.361  23.432  0.00  0.00    +0.025 A 
ATOM     30  C   UNL     1       4.595  -1.360  24.130  0.00  0.00    +0.003 A 
ATOM     31  C   UNL     1       5.041   0.808  23.259  0.00  0.00    +0.111 A 
ATOM     33  C   UNL     1       5.440  -0.259  24.048  0.00  0.00    +0.020 A 
ENDBRANCH  21  23
ENDBRANCH   5  21
ENDBRANCH  15  19
ENDBRANCH  10  15
TORSDOF 9
ENDMDL
MODEL 5
REMARK VINA RESULT:       0.3      1.475      4.801
REMARK  Name = 38028376
REMARK  13 active torsions:
REMARK  status: ('A' for Active; 'I' for Inactive)
REMARK    1  A    between atoms: O_3  and  C_24
REMARK    2  A    between atoms: O_3  and  C_32
REMARK    3  A    between atoms: N_4  and  C_14
REMARK    4  A    between atoms: N_5  and  C_21
REMARK    5  A    between atoms: C_7  and  C_11
REMARK    6  A    between atoms: C_8  and  C_14
REMARK    7  A    between atoms: C_10  and  C_15
REMARK    8  A    between atoms: C_11  and  C_16
REMARK    9  A    between atoms: C_11  and  C_17
REMARK   10  A    between atoms: C_12  and  C_18
REMARK   11  A    between atoms: C_15  and  C_19
REMARK   12  A    between atoms: C_20  and  C_22
REMARK   13  A    between atoms: C_21  and  C_23
REMARK                            x       y       z     vdW  Elec       q    Type
REMARK                         _______ _______ _______ _____ _____    ______ ____
ROOT
ATOM      7  C   UNL     1      -2.310  -2.037  24.436  0.00  0.00    +0.000 C 
ATOM      8  C   UNL     1      -2.868  -1.518  25.784  0.00  0.00    +0.032 C 
ATOM      9  C   UNL     1      -0.774  -1.990  24.437  0.00  0.00    +0.012 C 
ATOM     10  C   UNL     1      -0.236  -0.566  24.673  0.00  0.00    +0.023 C 
ATOM     12  C   UNL     1      -0.936   0.116  25.832  0.00  0.00    -0.073 C 
ATOM     13  C   UNL     1      -2.104  -0.332  26.324  0.00  0.00    -0.022 C 
ATOM     18  C   UNL     1      -0.237   1.298  26.442  0.00  0.00    +0.039 C 
ENDROOT
BRANCH   7  11
ATOM     11  C   UNL     1      -2.783  -3.463  24.133  0.00  0.00    -0.013 C 
ATOM     16  C   UNL     1      -4.220  -3.450  23.623  0.00  0.00    +0.007 C 
ATOM     17  C   UNL     1      -1.855  -4.129  23.122  0.00  0.00    +0.007 C 
ENDBRANCH   7  11
BRANCH   8  14
ATOM     14  C   UNL     1      -4.354  -1.158  25.666  0.00  0.00    +0.112 C 
BRANCH  14   4
ATOM      2  O   UNL     1      -3.855   0.706  23.540  0.00  0.00    -0.270 OA
ATOM      4  N   UNL     1      -4.538   0.258  25.713  0.00  0.00    -0.311 N 
ATOM     20  C   UNL     1      -4.269   1.094  24.629  0.00  0.00    +0.248 C 
ATOM     34  H   UNL     1      -4.871   0.652  26.585  0.00  0.00    +0.149 HD
BRANCH  20  22
ATOM     22  C   UNL     1      -4.487   2.547  24.847  0.00  0.00    +0.078 A 
ATOM     24  C   UNL     1      -3.474   3.470  24.586  0.00  0.00    +0.132 A 
ATOM     25  C   UNL     1      -5.723   2.985  25.321  0.00  0.00    +0.017 A 
ATOM     26  C   UNL     1      -3.697   4.830  24.798  0.00  0.00    +0.046 A 
ATOM     27  C   UNL     1      -5.946   4.345  25.533  0.00  0.00    +0.001 A 
ATOM     29  C   UNL     1      -4.934   5.268  25.272  0.00  0.00    +0.004 A 
BRANCH  24   3
ATOM      3  O   UNL     1      -2.258   3.062  24.124  0.00  0.00    -0.494 OA
ATOM     32  C   UNL     1      -1.125   3.837  24.510  0.00  0.00    +0.277 C 
ENDBRANCH  24   3
ENDBRANCH  20  22
ENDBRANCH  14   4
ENDBRANCH   8  14
BRANCH  10  15
ATOM     15  C   UNL     1      -0.334   0.280  23.399  0.00  0.00    +0.103 C 
BRANCH  15  19
ATOM      1  O   UNL     1       1.128  -0.402  21.595  0.00  0.00    -0.276 OA
ATOM      5  N   UNL     1       1.898   1.110  23.183  0.00  0.00    -0.310 N 
ATOM     19  C   UNL     1       0.955   0.269  22.608  0.00  0.00    +0.214 C 
ATOM     35  H   UNL     1       1.659   1.629  24.024  0.00  0.00    +0.149 HD
BRANCH   5  21
ATOM     21  C   UNL     1       3.223   1.297  22.641  0.00  0.00    +0.159 C 
BRANCH  21  23
ATOM      6  N   UNL     1       3.780  -0.945  23.393  0.00  0.00    -0.258 NA
ATOM     23  C   UNL     1       4.210   0.326  23.220  0.00  0.00    +0.058 A 
ATOM     28  C   UNL     1       5.485   0.763  23.540  0.00  0.00    +0.025 A 
ATOM     30  C   UNL     1       6.376  -0.161  24.073  0.00  0.00    +0.003 A 
ATOM     31  C   UNL     1       4.674  -1.815  23.914  0.00  0.00    +0.111 A 
ATOM     33  C   UNL     1       5.971  -1.477  24.266  0.00  0.00    +0.020 A 
ENDBRANCH  21  23
ENDBRANCH   5  21
ENDBRANCH  15  19
ENDBRANCH  10  15
TORSDOF 9
ENDMDL
MODEL 6
REMARK VINA RESULT:       0.6      1.806      6.527
REMARK  Name = 38028376
REMARK  13 active torsions:
REMARK  status: ('A' for Active; 'I' for Inactive)
REMARK    1  A    between atoms: O_3  and  C_24
REMARK    2  A    between atoms: O_3  and  C_32
REMARK    3  A    between atoms: N_4  and  C_14
REMARK    4  A    between atoms: N_5  and  C_21
REMARK    5  A    between atoms: C_7  and  C_11
REMARK    6  A    between atoms: C_8  and  C_14
REMARK    7  A    between atoms: C_10  and  C_15
REMARK    8  A    between atoms: C_11  and  C_16
REMARK    9  A    between atoms: C_11  and  C_17
REMARK   10  A    between atoms: C_12  and  C_18
REMARK   11  A    between atoms: C_15  and  C_19
REMARK   12  A    between atoms: C_20  and  C_22
REMARK   13  A    between atoms: C_21  and  C_23
REMARK                            x       y       z     vdW  Elec       q    Type
REMARK                         _______ _______ _______ _____ _____    ______ ____
ROOT
ATOM      7  C   UNL     1      -3.530  -0.918  25.002  0.00  0.00    +0.000 C 
ATOM      8  C   UNL     1      -2.255  -0.244  24.437  0.00  0.00    +0.032 C 
ATOM      9  C   UNL     1      -4.747  -0.584  24.126  0.00  0.00    +0.012 C 
ATOM     10  C   UNL     1      -4.997   0.933  24.031  0.00  0.00    +0.023 C 
ATOM     12  C   UNL     1      -3.721   1.697  23.737  0.00  0.00    -0.073 C 
ATOM     13  C   UNL     1      -2.505   1.150  23.912  0.00  0.00    -0.022 C 
ATOM     18  C   UNL     1      -3.877   3.090  23.195  0.00  0.00    +0.039 C 
ENDROOT
BRANCH   7  11
ATOM     11  C   UNL     1      -3.371  -2.438  25.110  0.00  0.00    -0.013 C 
ATOM     16  C   UNL     1      -4.119  -3.134  23.979  0.00  0.00    +0.007 C 
ATOM     17  C   UNL     1      -1.894  -2.821  25.100  0.00  0.00    +0.007 C 
ENDBRANCH   7  11
BRANCH   8  14
ATOM     14  C   UNL     1      -1.139  -0.202  25.487  0.00  0.00    +0.112 C 
BRANCH  14   4
ATOM      2  O   UNL     1       0.331  -1.346  23.303  0.00  0.00    -0.270 OA
ATOM      4  N   UNL     1       0.073   0.300  24.919  0.00  0.00    -0.311 N 
ATOM     20  C   UNL     1       0.725  -0.322  23.854  0.00  0.00    +0.248 C 
ATOM     34  H   UNL     1       0.463   1.140  25.330  0.00  0.00    +0.149 HD
BRANCH  20  22
ATOM     22  C   UNL     1       1.989   0.310  23.396  0.00  0.00    +0.078 A 
ATOM     24  C   UNL     1       3.175  -0.422  23.339  0.00  0.00    +0.132 A 
ATOM     25  C   UNL     1       1.979   1.653  23.020  0.00  0.00    +0.017 A 
ATOM     26  C   UNL     1       4.353   0.189  22.907  0.00  0.00    +0.046 A 
ATOM     27  C   UNL     1       3.157   2.264  22.588  0.00  0.00    +0.001 A 
ATOM     29  C   UNL     1       4.343   1.533  22.532  0.00  0.00    +0.004 A 
BRANCH  24   3
ATOM      3  O   UNL     1       3.205  -1.735  23.704  0.00  0.00    -0.494 OA
ATOM     32  C   UNL     1       4.477  -2.285  24.039  0.00  0.00    +0.277 C 
ENDBRANCH  24   3
ENDBRANCH  20  22
ENDBRANCH  14   4
ENDBRANCH   8  14
BRANCH  10  15
ATOM     15  C   UNL     1      -5.674   1.461  25.300  0.00  0.00    +0.103 C 
BRANCH  15  19
ATOM      1  O   UNL     1      -5.775   3.876  25.421  0.00  0.00    -0.276 OA
ATOM      5  N   UNL     1      -3.960   2.759  26.348  0.00  0.00    -0.310 N 
ATOM     19  C   UNL     1      -5.174   2.837  25.679  0.00  0.00    +0.214 C 
ATOM     35  H   UNL     1      -3.540   1.849  26.517  0.00  0.00    +0.149 HD
BRANCH   5  21
ATOM     21  C   UNL     1      -3.248   3.919  26.829  0.00  0.00    +0.159 C 
BRANCH  21  23
ATOM      6  N   UNL     1      -1.086   3.324  25.891  0.00  0.00    -0.258 NA
ATOM     23  C   UNL     1      -2.067   4.253  25.964  0.00  0.00    +0.058 A 
ATOM     28  C   UNL     1      -2.037   5.466  25.295  0.00  0.00    +0.025 A 
ATOM     30  C   UNL     1      -0.930   5.744  24.501  0.00  0.00    +0.003 A 
ATOM     31  C   UNL     1      -0.026   3.630  25.110  0.00  0.00    +0.111 A 
ATOM     33  C   UNL     1       0.098   4.814  24.401  0.00  0.00    +0.020 A 
ENDBRANCH  21  23
ENDBRANCH   5  21
ENDBRANCH  15  19
ENDBRANCH  10  15
TORSDOF 9
ENDMDL
MODEL 7
REMARK VINA RESULT:       1.1      1.851      7.443
REMARK  Name = 38028376
REMARK  13 active torsions:
REMARK  status: ('A' for Active; 'I' for Inactive)
REMARK    1  A    between atoms: O_3  and  C_24
REMARK    2  A    between atoms: O_3  and  C_32
REMARK    3  A    between atoms: N_4  and  C_14
REMARK    4  A    between atoms: N_5  and  C_21
REMARK    5  A    between atoms: C_7  and  C_11
REMARK    6  A    between atoms: C_8  and  C_14
REMARK    7  A    between atoms: C_10  and  C_15
REMARK    8  A    between atoms: C_11  and  C_16
REMARK    9  A    between atoms: C_11  and  C_17
REMARK   10  A    between atoms: C_12  and  C_18
REMARK   11  A    between atoms: C_15  and  C_19
REMARK   12  A    between atoms: C_20  and  C_22
REMARK   13  A    between atoms: C_21  and  C_23
REMARK                            x       y       z     vdW  Elec       q    Type
REMARK                         _______ _______ _______ _____ _____    ______ ____
ROOT
ATOM      7  C   UNL     1      -1.500   0.099  24.722  0.00  0.00    +0.000 C 
ATOM      8  C   UNL     1      -0.825  -1.278  24.505  0.00  0.00    +0.032 C 
ATOM      9  C   UNL     1      -2.650  -0.021  25.735  0.00  0.00    +0.012 C 
ATOM     10  C   UNL     1      -3.725  -1.025  25.278  0.00  0.00    +0.023 C 
ATOM     12  C   UNL     1      -3.112  -2.323  24.793  0.00  0.00    -0.073 C 
ATOM     13  C   UNL     1      -1.811  -2.421  24.465  0.00  0.00    -0.022 C 
ATOM     18  C   UNL     1      -4.020  -3.520  24.736  0.00  0.00    +0.039 C 
ENDROOT
BRANCH   7  11
ATOM     11  C   UNL     1      -0.499   1.156  25.199  0.00  0.00    -0.013 C 
ATOM     16  C   UNL     1      -0.425   2.308  24.203  0.00  0.00    +0.007 C 
ATOM     17  C   UNL     1      -0.880   1.663  26.587  0.00  0.00    +0.007 C 
ENDBRANCH   7  11
BRANCH   8  14
ATOM     14  C   UNL     1       0.019  -1.285  23.225  0.00  0.00    +0.112 C 
BRANCH  14   4
ATOM      2  O   UNL     1       1.840  -0.208  21.284  0.00  0.00    -0.270 OA
ATOM      4  N   UNL     1       1.328  -0.771  23.477  0.00  0.00    -0.311 N 
ATOM     20  C   UNL     1       2.151  -0.264  22.471  0.00  0.00    +0.248 C 
ATOM     34  H   UNL     1       1.656  -0.793  24.436  0.00  0.00    +0.149 HD
BRANCH  20  22
ATOM     22  C   UNL     1       3.494   0.208  22.893  0.00  0.00    +0.078 A 
ATOM     24  C   UNL     1       4.356  -0.627  23.603  0.00  0.00    +0.132 A 
ATOM     25  C   UNL     1       3.889   1.507  22.571  0.00  0.00    +0.017 A 
ATOM     26  C   UNL     1       5.614  -0.165  23.991  0.00  0.00    +0.046 A 
ATOM     27  C   UNL     1       5.147   1.969  22.960  0.00  0.00    +0.001 A 
ATOM     29  C   UNL     1       6.009   1.133  23.669  0.00  0.00    +0.004 A 
BRANCH  24   3
ATOM      3  O   UNL     1       3.988  -1.898  23.928  0.00  0.00    -0.494 OA
ATOM     32  C   UNL     1       5.013  -2.889  23.931  0.00  0.00    +0.277 C 
ENDBRANCH  24   3
ENDBRANCH  20  22
ENDBRANCH  14   4
ENDBRANCH   8  14
BRANCH  10  15
ATOM     15  C   UNL     1      -4.633  -0.413  24.207  0.00  0.00    +0.103 C 
BRANCH  15  19
ATOM      1  O   UNL     1      -3.889   1.769  23.473  0.00  0.00    -0.276 OA
ATOM      5  N   UNL     1      -5.446   1.610  25.191  0.00  0.00    -0.310 N 
ATOM     19  C   UNL     1      -4.592   1.099  24.223  0.00  0.00    +0.214 C 
ATOM     35  H   UNL     1      -5.991   0.972  25.764  0.00  0.00    +0.149 HD
BRANCH   5  21
ATOM     21  C   UNL     1      -5.610   3.024  25.431  0.00  0.00    +0.159 C 
BRANCH  21  23
ATOM      6  N   UNL     1      -3.989   4.362  24.211  0.00  0.00    -0.258 NA
ATOM     23  C   UNL     1      -4.301   3.759  25.381  0.00  0.00    +0.058 A 
ATOM     28  C   UNL     1      -3.494   3.787  26.506  0.00  0.00    +0.025 A 
ATOM     30  C   UNL     1      -2.290   4.476  26.427  0.00  0.00    +0.003 A 
ATOM     31  C   UNL     1      -2.810   5.023  24.172  0.00  0.00    +0.111 A 
ATOM     33  C   UNL     1      -1.934   5.109  25.242  0.00  0.00    +0.020 A 
ENDBRANCH  21  23
ENDBRANCH   5  21
ENDBRANCH  15  19
ENDBRANCH  10  15
TORSDOF 9
ENDMDL
MODEL 8
REMARK VINA RESULT:       2.1      1.850      6.175
REMARK  Name = 38028376
REMARK  13 active torsions:
REMARK  status: ('A' for Active; 'I' for Inactive)
REMARK    1  A    between atoms: O_3  and  C_24
REMARK    2  A    between atoms: O_3  and  C_32
REMARK    3  A    between atoms: N_4  and  C_14
REMARK    4  A    between atoms: N_5  and  C_21
REMARK    5  A    between atoms: C_7  and  C_11
REMARK    6  A    between atoms: C_8  and  C_14
REMARK    7  A    between atoms: C_10  and  C_15
REMARK    8  A    between atoms: C_11  and  C_16
REMARK    9  A    between atoms: C_11  and  C_17
REMARK   10  A    between atoms: C_12  and  C_18
REMARK   11  A    between atoms: C_15  and  C_19
REMARK   12  A    between atoms: C_20  and  C_22
REMARK   13  A    between atoms: C_21  and  C_23
REMARK                            x       y       z     vdW  Elec       q    Type
REMARK                         _______ _______ _______ _____ _____    ______ ____
ROOT
ATOM      7  C   UNL     1      -2.844   2.159  24.306  0.00  0.00    +0.000 C 
ATOM      8  C   UNL     1      -1.647   2.756  25.086  0.00  0.00    +0.032 C 
ATOM      9  C   UNL     1      -3.849   3.262  23.938  0.00  0.00    +0.012 C 
ATOM     10  C   UNL     1      -4.392   3.992  25.181  0.00  0.00    +0.023 C 
ATOM     12  C   UNL     1      -3.281   4.379  26.137  0.00  0.00    -0.073 C 
ATOM     13  C   UNL     1      -2.057   3.826  26.070  0.00  0.00    -0.022 C 
ATOM     18  C   UNL     1      -3.597   5.451  27.142  0.00  0.00    +0.039 C 
ENDROOT
BRANCH   7  11
ATOM     11  C   UNL     1      -2.390   1.429  23.037  0.00  0.00    -0.013 C 
ATOM     16  C   UNL     1      -3.298   0.237  22.754  0.00  0.00    +0.007 C 
ATOM     17  C   UNL     1      -2.368   2.387  21.850  0.00  0.00    +0.007 C 
ENDBRANCH   7  11
BRANCH   8  14
ATOM     14  C   UNL     1      -0.862   1.662  25.819  0.00  0.00    +0.112 C 
BRANCH  14   4
ATOM      2  O   UNL     1       0.625   3.133  23.852  0.00  0.00    -0.270 OA
ATOM      4  N   UNL     1       0.195   1.161  24.998  0.00  0.00    -0.311 N 
ATOM     20  C   UNL     1       0.868   1.948  24.063  0.00  0.00    +0.248 C 
ATOM     34  H   UNL     1       0.446   0.185  25.111  0.00  0.00    +0.149 HD
BRANCH  20  22
ATOM     22  C   UNL     1       1.925   1.271  23.270  0.00  0.00    +0.078 A 
ATOM     24  C   UNL     1       1.622   0.179  22.457  0.00  0.00    +0.132 A 
ATOM     25  C   UNL     1       3.236   1.741  23.346  0.00  0.00    +0.017 A 
ATOM     26  C   UNL     1       2.629  -0.444  21.720  0.00  0.00    +0.046 A 
ATOM     27  C   UNL     1       4.244   1.118  22.609  0.00  0.00    +0.001 A 
ATOM     29  C   UNL     1       3.940   0.026  21.796  0.00  0.00    +0.004 A 
BRANCH  24   3
ATOM      3  O   UNL     1       0.347  -0.296  22.370  0.00  0.00    -0.494 OA
ATOM     32  C   UNL     1      -0.022  -1.330  23.280  0.00  0.00    +0.277 C 
ENDBRANCH  24   3
ENDBRANCH  20  22
ENDBRANCH  14   4
ENDBRANCH   8  14
BRANCH  10  15
ATOM     15  C   UNL     1      -5.459   3.153  25.892  0.00  0.00    +0.103 C 
BRANCH  15  19
ATOM      1  O   UNL     1      -6.745   1.971  24.217  0.00  0.00    -0.276 OA
ATOM      5  N   UNL     1      -5.129   0.829  25.436  0.00  0.00    -0.310 N 
ATOM     19  C   UNL     1      -5.870   1.946  25.077  0.00  0.00    +0.214 C 
ATOM     35  H   UNL     1      -4.422   0.909  26.161  0.00  0.00    +0.149 HD
BRANCH   5  21
ATOM     21  C   UNL     1      -5.308  -0.466  24.822  0.00  0.00    +0.159 C 
BRANCH  21  23
ATOM      6  N   UNL     1      -3.154  -0.918  25.852  0.00  0.00    -0.258 NA
ATOM     23  C   UNL     1      -4.087  -1.329  24.963  0.00  0.00    +0.058 A 
ATOM     28  C   UNL     1      -3.976  -2.477  24.196  0.00  0.00    +0.025 A 
ATOM     30  C   UNL     1      -2.834  -3.255  24.350  0.00  0.00    +0.003 A 
ATOM     31  C   UNL     1      -2.058  -1.700  25.974  0.00  0.00    +0.111 A 
ATOM     33  C   UNL     1      -1.852  -2.866  25.255  0.00  0.00    +0.020 A 
ENDBRANCH  21  23
ENDBRANCH   5  21
ENDBRANCH  15  19
ENDBRANCH  10  15
TORSDOF 9
ENDMDL
MODEL 9
REMARK VINA RESULT:       2.1      1.759      6.431
REMARK  Name = 38028376
REMARK  13 active torsions:
REMARK  status: ('A' for Active; 'I' for Inactive)
REMARK    1  A    between atoms: O_3  and  C_24
REMARK    2  A    between atoms: O_3  and  C_32
REMARK    3  A    between atoms: N_4  and  C_14
REMARK    4  A    between atoms: N_5  and  C_21
REMARK    5  A    between atoms: C_7  and  C_11
REMARK    6  A    between atoms: C_8  and  C_14
REMARK    7  A    between atoms: C_10  and  C_15
REMARK    8  A    between atoms: C_11  and  C_16
REMARK    9  A    between atoms: C_11  and  C_17
REMARK   10  A    between atoms: C_12  and  C_18
REMARK   11  A    between atoms: C_15  and  C_19
REMARK   12  A    between atoms: C_20  and  C_22
REMARK   13  A    between atoms: C_21  and  C_23
REMARK                            x       y       z     vdW  Elec       q    Type
REMARK                         _______ _______ _______ _____ _____    ______ ____
ROOT
ATOM      7  C   UNL     1      -2.553   2.388  23.444  0.00  0.00    +0.000 C 
ATOM      8  C   UNL     1      -1.037   2.079  23.393  0.00  0.00    +0.032 C 
ATOM      9  C   UNL     1      -2.787   3.894  23.640  0.00  0.00    +0.012 C 
ATOM     10  C   UNL     1      -2.139   4.420  24.934  0.00  0.00    +0.023 C 
ATOM     12  C   UNL     1      -0.713   3.931  25.088  0.00  0.00    -0.073 C 
ATOM     13  C   UNL     1      -0.233   2.892  24.381  0.00  0.00    -0.022 C 
ATOM     18  C   UNL     1       0.165   4.693  26.041  0.00  0.00    +0.039 C 
ENDROOT
BRANCH   7  11
ATOM     11  C   UNL     1      -3.274   1.913  22.178  0.00  0.00    -0.013 C 
ATOM     16  C   UNL     1      -4.109   3.042  21.584  0.00  0.00    +0.007 C 
ATOM     17  C   UNL     1      -2.269   1.388  21.157  0.00  0.00    +0.007 C 
ENDBRANCH   7  11
BRANCH   8  14
ATOM     14  C   UNL     1      -0.768   0.586  23.622  0.00  0.00    +0.112 C 
BRANCH  14   4
ATOM      2  O   UNL     1       1.110  -0.389  21.682  0.00  0.00    -0.270 OA
ATOM      4  N   UNL     1       0.626   0.348  23.829  0.00  0.00    -0.311 N 
ATOM     20  C   UNL     1       1.470  -0.130  22.827  0.00  0.00    +0.248 C 
ATOM     34  H   UNL     1       0.993   0.533  24.755  0.00  0.00    +0.149 HD
BRANCH  20  22
ATOM     22  C   UNL     1       2.888  -0.350  23.209  0.00  0.00    +0.078 A 
ATOM     24  C   UNL     1       3.797   0.708  23.229  0.00  0.00    +0.132 A 
ATOM     25  C   UNL     1       3.307  -1.636  23.551  0.00  0.00    +0.017 A 
ATOM     26  C   UNL     1       5.126   0.481  23.590  0.00  0.00    +0.046 A 
ATOM     27  C   UNL     1       4.636  -1.863  23.912  0.00  0.00    +0.001 A 
ATOM     29  C   UNL     1       5.544  -0.805  23.932  0.00  0.00    +0.004 A 
BRANCH  24   3
ATOM      3  O   UNL     1       3.408   1.971  22.896  0.00  0.00    -0.494 OA
ATOM     32  C   UNL     1       4.187   2.652  21.915  0.00  0.00    +0.277 C 
ENDBRANCH  24   3
ENDBRANCH  20  22
ENDBRANCH  14   4
ENDBRANCH   8  14
BRANCH  10  15
ATOM     15  C   UNL     1      -2.980   4.054  26.162  0.00  0.00    +0.103 C 
BRANCH  15  19
ATOM      1  O   UNL     1      -5.319   3.796  25.601  0.00  0.00    -0.276 OA
ATOM      5  N   UNL     1      -3.950   1.920  25.690  0.00  0.00    -0.310 N 
ATOM     19  C   UNL     1      -4.223   3.277  25.788  0.00  0.00    +0.214 C 
ATOM     35  H   UNL     1      -3.006   1.585  25.862  0.00  0.00    +0.149 HD
BRANCH   5  21
ATOM     21  C   UNL     1      -4.951   0.937  25.348  0.00  0.00    +0.159 C 
BRANCH  21  23
ATOM      6  N   UNL     1      -3.515  -0.912  25.998  0.00  0.00    -0.258 NA
ATOM     23  C   UNL     1      -4.345  -0.406  25.058  0.00  0.00    +0.058 A 
ATOM     28  C   UNL     1      -4.658  -1.049  23.872  0.00  0.00    +0.025 A 
ATOM     30  C   UNL     1      -4.081  -2.291  23.633  0.00  0.00    +0.003 A 
ATOM     31  C   UNL     1      -2.974  -2.122  25.731  0.00  0.00    +0.111 A 
ATOM     33  C   UNL     1      -3.222  -2.845  24.576  0.00  0.00    +0.020 A 
ENDBRANCH  21  23
ENDBRANCH   5  21
ENDBRANCH  15  19
ENDBRANCH  10  15
TORSDOF 9
ENDMDL
MODEL 10
REMARK VINA RESULT:       2.2      1.810      4.930
REMARK  Name = 38028376
REMARK  13 active torsions:
REMARK  status: ('A' for Active; 'I' for Inactive)
REMARK    1  A    between atoms: O_3  and  C_24
REMARK    2  A    between atoms: O_3  and  C_32
REMARK    3  A    between atoms: N_4  and  C_14
REMARK    4  A    between atoms: N_5  and  C_21
REMARK    5  A    between atoms: C_7  and  C_11
REMARK    6  A    between atoms: C_8  and  C_14
REMARK    7  A    between atoms: C_10  and  C_15
REMARK    8  A    between atoms: C_11  and  C_16
REMARK    9  A    between atoms: C_11  and  C_17
REMARK   10  A    between atoms: C_12  and  C_18
REMARK   11  A    between atoms: C_15  and  C_19
REMARK   12  A    between atoms: C_20  and  C_22
REMARK   13  A    between atoms: C_21  and  C_23
REMARK                            x       y       z     vdW  Elec       q    Type
REMARK                         _______ _______ _______ _____ _____    ______ ____
ROOT
ATOM      7  C   UNL     1      -2.548  -1.998  24.266  0.00  0.00    +0.000 C 
ATOM      8  C   UNL     1      -3.133  -1.507  25.613  0.00  0.00    +0.032 C 
ATOM      9  C   UNL     1      -1.015  -2.071  24.342  0.00  0.00    +0.012 C 
ATOM     10  C   UNL     1      -0.383  -0.708  24.681  0.00  0.00    +0.023 C 
ATOM     12  C   UNL     1      -1.087  -0.035  25.842  0.00  0.00    -0.073 C 
ATOM     13  C   UNL     1      -2.310  -0.414  26.253  0.00  0.00    -0.022 C 
ATOM     18  C   UNL     1      -0.333   1.056  26.550  0.00  0.00    +0.039 C 
ENDROOT
BRANCH   7  11
ATOM     11  C   UNL     1      -3.112  -3.365  23.863  0.00  0.00    -0.013 C 
ATOM     16  C   UNL     1      -3.431  -4.196  25.100  0.00  0.00    +0.007 C 
ATOM     17  C   UNL     1      -4.352  -3.192  22.991  0.00  0.00    +0.007 C 
ENDBRANCH   7  11
BRANCH   8  14
ATOM     14  C   UNL     1      -4.580  -1.026  25.445  0.00  0.00    +0.112 C 
BRANCH  14   4
ATOM      2  O   UNL     1      -3.713   0.799  23.405  0.00  0.00    -0.270 OA
ATOM      4  N   UNL     1      -4.648   0.400  25.492  0.00  0.00    -0.311 N 
ATOM     20  C   UNL     1      -4.202   1.216  24.452  0.00  0.00    +0.248 C 
ATOM     34  H   UNL     1      -5.033   0.817  26.332  0.00  0.00    +0.149 HD
BRANCH  20  22
ATOM     22  C   UNL     1      -4.318   2.681  24.666  0.00  0.00    +0.078 A 
ATOM     24  C   UNL     1      -5.474   3.234  25.217  0.00  0.00    +0.132 A 
ATOM     25  C   UNL     1      -3.251   3.506  24.309  0.00  0.00    +0.017 A 
ATOM     26  C   UNL     1      -5.564   4.613  25.409  0.00  0.00    +0.046 A 
ATOM     27  C   UNL     1      -3.342   4.884  24.501  0.00  0.00    +0.001 A 
ATOM     29  C   UNL     1      -4.498   5.438  25.052  0.00  0.00    +0.004 A 
BRANCH  24   3
ATOM      3  O   UNL     1      -6.527   2.445  25.571  0.00  0.00    -0.494 OA
ATOM     32  C   UNL     1      -6.583   2.010  26.927  0.00  0.00    +0.277 C 
ENDBRANCH  24   3
ENDBRANCH  20  22
ENDBRANCH  14   4
ENDBRANCH   8  14
BRANCH  10  15
ATOM     15  C   UNL     1      -0.351   0.207  23.453  0.00  0.00    +0.103 C 
BRANCH  15  19
ATOM      1  O   UNL     1       1.565   1.651  23.766  0.00  0.00    -0.276 OA
ATOM      5  N   UNL     1       1.631  -0.000  22.132  0.00  0.00    -0.310 N 
ATOM     19  C   UNL     1       1.042   0.719  23.162  0.00  0.00    +0.214 C 
ATOM     35  H   UNL     1       1.116  -0.758  21.693  0.00  0.00    +0.149 HD
BRANCH   5  21
ATOM     21  C   UNL     1       2.962   0.271  21.641  0.00  0.00    +0.159 C 
BRANCH  21  23
ATOM      6  N   UNL     1       4.831   1.003  23.010  0.00  0.00    -0.258 NA
ATOM     23  C   UNL     1       4.012  -0.020  22.673  0.00  0.00    +0.058 A 
ATOM     28  C   UNL     1       4.091  -1.290  23.221  0.00  0.00    +0.025 A 
ATOM     30  C   UNL     1       5.074  -1.527  24.175  0.00  0.00    +0.003 A 
ATOM     31  C   UNL     1       5.774   0.734  23.941  0.00  0.00    +0.111 A 
ATOM     33  C   UNL     1       5.935  -0.501  24.548  0.00  0.00    +0.020 A 
ENDBRANCH  21  23
ENDBRANCH   5  21
ENDBRANCH  15  19
ENDBRANCH  10  15
TORSDOF 9
ENDMDL
