MODEL 1
REMARK VINA RESULT:       2.8      0.000      0.000
REMARK  Name = 11882071
REMARK  12 active torsions:
REMARK  status: ('A' for Active; 'I' for Inactive)
REMARK    1  A    between atoms: O_6  and  C_33
REMARK    2  A    between atoms: O_6  and  C_36
REMARK    3  A    between atoms: N_8  and  C_12
REMARK    4  A    between atoms: N_9  and  C_18
REMARK    5  A    between atoms: N_10  and  C_25
REMARK    6  A    between atoms: C_13  and  C_16
REMARK    7  A    between atoms: C_17  and  C_20
REMARK    8  A    between atoms: C_18  and  C_21
REMARK    9  A    between atoms: C_18  and  C_22
REMARK   10  A    between atoms: C_21  and  C_24
REMARK   11  A    between atoms: C_23  and  C_26
REMARK   12  A    between atoms: C_23  and  C_27
REMARK                            x       y       z     vdW  Elec       q    Type
REMARK                         _______ _______ _______ _____ _____    ______ ____
ROOT
ATOM      3  O   UNL     1      -1.329   2.991  27.394  0.00  0.00    -0.271 OA
ATOM      7  N   UNL     1      -1.496   2.142  25.249  0.00  0.00    -0.285 N 
ATOM     12  C   UNL     1      -1.017   0.959  23.244  0.00  0.00    +0.105 C 
ATOM     13  C   UNL     1      -1.613   2.259  23.793  0.00  0.00    +0.182 C 
ATOM     14  C   UNL     1      -1.260  -0.046  24.372  0.00  0.00    +0.043 C 
ATOM     15  C   UNL     1      -1.110   0.790  25.635  0.00  0.00    +0.111 C 
ATOM     17  C   UNL     1      -1.571   3.147  26.197  0.00  0.00    +0.240 C 
ENDROOT
BRANCH  12   8
ATOM      4  O   UNL     1       1.077  -0.806  24.083  0.00  0.00    -0.252 OA
ATOM      8  N   UNL     1       0.394   1.105  22.975  0.00  0.00    -0.294 N 
ATOM     10  N   UNL     1       2.631   0.593  23.014  0.00  0.00    -0.269 N 
ATOM     19  C   UNL     1       1.356   0.193  23.424  0.00  0.00    +0.304 C 
ATOM     37  H   UNL     1       0.698   1.870  22.380  0.00  0.00    +0.151 HD
ATOM     39  H   UNL     1       2.689   1.452  22.472  0.00  0.00    +0.156 HD
BRANCH  10  25
ATOM     25  C   UNL     1       3.865  -0.053  23.263  0.00  0.00    +0.038 A 
ATOM     29  C   UNL     1       5.057   0.666  23.182  0.00  0.00    +0.069 A 
ATOM     30  C   UNL     1       3.889  -1.410  23.589  0.00  0.00    +0.023 A 
ATOM     33  C   UNL     1       6.274   0.029  23.427  0.00  0.00    +0.122 A 
ATOM     34  C   UNL     1       5.106  -2.046  23.834  0.00  0.00    +0.005 A 
ATOM     35  C   UNL     1       6.298  -1.327  23.753  0.00  0.00    +0.046 A 
BRANCH  33   6
ATOM      6  O   UNL     1       7.437   0.731  23.347  0.00  0.00    -0.495 OA
ATOM     36  C   UNL     1       8.638  -0.020  23.171  0.00  0.00    +0.277 C 
ENDBRANCH  33   6
ENDBRANCH  10  25
ENDBRANCH  12   8
BRANCH  13  16
ATOM      2  O   UNL     1      -3.477   2.723  22.373  0.00  0.00    -0.274 OA
ATOM      9  N   UNL     1      -3.871   1.963  24.538  0.00  0.00    -0.302 N 
ATOM     16  C   UNL     1      -3.076   2.341  23.469  0.00  0.00    +0.236 C 
ATOM     38  H   UNL     1      -3.425   1.648  25.395  0.00  0.00    +0.150 HD
BRANCH   9  18
ATOM     18  C   UNL     1      -5.316   1.974  24.491  0.00  0.00    +0.163 C 
BRANCH  18  22
ATOM      5  O   UNL     1      -5.696   4.057  25.684  0.00  0.00    -0.274 OA
ATOM     11  N   UNL     1      -6.395   2.094  26.650  0.00  0.00    -0.328 N 
ATOM     22  C   UNL     1      -5.793   2.833  25.654  0.00  0.00    +0.231 C 
ATOM     40  H   UNL     1      -6.773   2.546  27.477  0.00  0.00    +0.145 HD
ATOM     41  H   UNL     1      -6.480   1.083  26.607  0.00  0.00    +0.145 HD
ENDBRANCH  18  22
BRANCH  18  21
ATOM     21  C   UNL     1      -5.912   0.565  24.587  0.00  0.00    +0.074 C 
BRANCH  21  24
ATOM      1  S   UNL     1      -4.429  -1.621  23.699  0.00  0.00    -0.102 S 
ATOM     24  C   UNL     1      -4.865  -0.480  24.899  0.00  0.00    -0.008 A 
ATOM     28  C   UNL     1      -4.167  -0.669  26.072  0.00  0.00    +0.011 A 
ATOM     31  C   UNL     1      -3.260  -1.765  25.983  0.00  0.00    +0.008 A 
ATOM     32  C   UNL     1      -3.301  -2.371  24.745  0.00  0.00    +0.045 A 
ENDBRANCH  21  24
ENDBRANCH  18  21
ENDBRANCH   9  18
ENDBRANCH  13  16
BRANCH  17  20
ATOM     20  C   UNL     1      -1.969   4.489  25.728  0.00  0.00    +0.066 C 
ATOM     23  C   UNL     1      -1.228   5.272  24.926  0.00  0.00    -0.071 C 
ATOM     26  C   UNL     1      -1.598   6.641  24.427  0.00  0.00    +0.039 C 
ATOM     27  C   UNL     1       0.116   4.789  24.445  0.00  0.00    +0.039 C 
ENDBRANCH  17  20
TORSDOF 9
ENDMDL
MODEL 2
REMARK VINA RESULT:       3.7      0.954      1.222
REMARK  Name = 11882071
REMARK  12 active torsions:
REMARK  status: ('A' for Active; 'I' for Inactive)
REMARK    1  A    between atoms: O_6  and  C_33
REMARK    2  A    between atoms: O_6  and  C_36
REMARK    3  A    between atoms: N_8  and  C_12
REMARK    4  A    between atoms: N_9  and  C_18
REMARK    5  A    between atoms: N_10  and  C_25
REMARK    6  A    between atoms: C_13  and  C_16
REMARK    7  A    between atoms: C_17  and  C_20
REMARK    8  A    between atoms: C_18  and  C_21
REMARK    9  A    between atoms: C_18  and  C_22
REMARK   10  A    between atoms: C_21  and  C_24
REMARK   11  A    between atoms: C_23  and  C_26
REMARK   12  A    between atoms: C_23  and  C_27
REMARK                            x       y       z     vdW  Elec       q    Type
REMARK                         _______ _______ _______ _____ _____    ______ ____
ROOT
ATOM      3  O   UNL     1      -0.439   2.707  26.809  0.00  0.00    -0.271 OA
ATOM      7  N   UNL     1      -0.853   1.768  24.735  0.00  0.00    -0.285 N 
ATOM     12  C   UNL     1      -0.653   0.434  22.779  0.00  0.00    +0.105 C 
ATOM     13  C   UNL     1      -1.063   1.820  23.286  0.00  0.00    +0.182 C 
ATOM     14  C   UNL     1      -0.922  -0.476  23.980  0.00  0.00    +0.043 C 
ATOM     15  C   UNL     1      -0.590   0.404  25.176  0.00  0.00    +0.111 C 
ATOM     17  C   UNL     1      -0.749   2.825  25.623  0.00  0.00    +0.240 C 
ENDROOT
BRANCH  12   8
ATOM      4  O   UNL     1       1.504  -0.656  24.315  0.00  0.00    -0.252 OA
ATOM      8  N   UNL     1       0.742   0.405  22.409  0.00  0.00    -0.294 N 
ATOM     10  N   UNL     1       2.986  -0.033  22.605  0.00  0.00    -0.269 N 
ATOM     19  C   UNL     1       1.737  -0.149  23.221  0.00  0.00    +0.304 C 
ATOM     37  H   UNL     1       1.007   0.745  21.489  0.00  0.00    +0.151 HD
ATOM     39  H   UNL     1       3.007   0.418  21.693  0.00  0.00    +0.156 HD
BRANCH  10  25
ATOM     25  C   UNL     1       4.240  -0.467  23.095  0.00  0.00    +0.038 A 
ATOM     29  C   UNL     1       5.390   0.272  22.820  0.00  0.00    +0.069 A 
ATOM     30  C   UNL     1       4.327  -1.634  23.856  0.00  0.00    +0.023 A 
ATOM     33  C   UNL     1       6.627  -0.156  23.304  0.00  0.00    +0.122 A 
ATOM     34  C   UNL     1       5.563  -2.062  24.339  0.00  0.00    +0.005 A 
ATOM     35  C   UNL     1       6.713  -1.322  24.063  0.00  0.00    +0.046 A 
BRANCH  33   6
ATOM      6  O   UNL     1       7.750   0.565  23.035  0.00  0.00    -0.495 OA
ATOM     36  C   UNL     1       8.994  -0.133  23.071  0.00  0.00    +0.277 C 
ENDBRANCH  33   6
ENDBRANCH  10  25
ENDBRANCH  12   8
BRANCH  13  16
ATOM      2  O   UNL     1      -2.947   2.592  22.037  0.00  0.00    -0.274 OA
ATOM      9  N   UNL     1      -3.300   1.601  24.114  0.00  0.00    -0.302 N 
ATOM     16  C   UNL     1      -2.528   2.049  23.055  0.00  0.00    +0.236 C 
ATOM     38  H   UNL     1      -2.843   1.151  24.902  0.00  0.00    +0.150 HD
BRANCH   9  18
ATOM     18  C   UNL     1      -4.740   1.725  24.148  0.00  0.00    +0.163 C 
BRANCH  18  22
ATOM      5  O   UNL     1      -4.760   4.145  24.379  0.00  0.00    -0.274 OA
ATOM     11  N   UNL     1      -5.765   2.877  26.010  0.00  0.00    -0.328 N 
ATOM     22  C   UNL     1      -5.059   3.044  24.838  0.00  0.00    +0.231 C 
ATOM     40  H   UNL     1      -6.055   3.678  26.562  0.00  0.00    +0.145 HD
ATOM     41  H   UNL     1      -6.016   1.962  26.373  0.00  0.00    +0.145 HD
ENDBRANCH  18  22
BRANCH  18  21
ATOM     21  C   UNL     1      -5.406   0.560  24.891  0.00  0.00    +0.074 C 
BRANCH  21  24
ATOM      1  S   UNL     1      -3.627  -1.203  26.111  0.00  0.00    -0.102 S 
ATOM     24  C   UNL     1      -4.603  -0.717  24.791  0.00  0.00    -0.008 A 
ATOM     28  C   UNL     1      -4.530  -1.603  23.739  0.00  0.00    +0.011 A 
ATOM     31  C   UNL     1      -3.661  -2.696  24.021  0.00  0.00    +0.008 A 
ATOM     32  C   UNL     1      -3.103  -2.604  25.278  0.00  0.00    +0.045 A 
ENDBRANCH  21  24
ENDBRANCH  18  21
ENDBRANCH   9  18
ENDBRANCH  13  16
BRANCH  17  20
ATOM     20  C   UNL     1      -1.032   4.176  25.101  0.00  0.00    +0.066 C 
ATOM     23  C   UNL     1      -1.986   4.997  25.575  0.00  0.00    -0.071 C 
ATOM     26  C   UNL     1      -2.304   6.377  25.070  0.00  0.00    +0.039 C 
ATOM     27  C   UNL     1      -2.854   4.549  26.722  0.00  0.00    +0.039 C 
ENDBRANCH  17  20
TORSDOF 9
ENDMDL
MODEL 3
REMARK VINA RESULT:       5.1      2.041      4.568
REMARK  Name = 11882071
REMARK  12 active torsions:
REMARK  status: ('A' for Active; 'I' for Inactive)
REMARK    1  A    between atoms: O_6  and  C_33
REMARK    2  A    between atoms: O_6  and  C_36
REMARK    3  A    between atoms: N_8  and  C_12
REMARK    4  A    between atoms: N_9  and  C_18
REMARK    5  A    between atoms: N_10  and  C_25
REMARK    6  A    between atoms: C_13  and  C_16
REMARK    7  A    between atoms: C_17  and  C_20
REMARK    8  A    between atoms: C_18  and  C_21
REMARK    9  A    between atoms: C_18  and  C_22
REMARK   10  A    between atoms: C_21  and  C_24
REMARK   11  A    between atoms: C_23  and  C_26
REMARK   12  A    between atoms: C_23  and  C_27
REMARK                            x       y       z     vdW  Elec       q    Type
REMARK                         _______ _______ _______ _____ _____    ______ ____
ROOT
ATOM      3  O   UNL     1      -4.635  -2.137  22.492  0.00  0.00    -0.271 OA
ATOM      7  N   UNL     1      -3.452  -0.323  23.304  0.00  0.00    -0.285 N 
ATOM     12  C   UNL     1      -1.916   1.484  23.466  0.00  0.00    +0.105 C 
ATOM     13  C   UNL     1      -2.573   0.353  24.263  0.00  0.00    +0.182 C 
ATOM     14  C   UNL     1      -2.952   1.802  22.384  0.00  0.00    +0.043 C 
ATOM     15  C   UNL     1      -3.571   0.447  22.072  0.00  0.00    +0.111 C 
ATOM     17  C   UNL     1      -4.014  -1.584  23.400  0.00  0.00    +0.240 C 
ENDROOT
BRANCH  12   8
ATOM      4  O   UNL     1       0.416   0.585  24.865  0.00  0.00    -0.252 OA
ATOM      8  N   UNL     1      -0.670   1.053  22.879  0.00  0.00    -0.294 N 
ATOM     10  N   UNL     1       1.488   0.275  22.800  0.00  0.00    -0.269 N 
ATOM     19  C   UNL     1       0.426   0.628  23.637  0.00  0.00    +0.304 C 
ATOM     37  H   UNL     1      -0.604   0.997  21.866  0.00  0.00    +0.151 HD
ATOM     39  H   UNL     1       1.333   0.370  21.799  0.00  0.00    +0.156 HD
BRANCH  10  25
ATOM     25  C   UNL     1       2.767  -0.203  23.174  0.00  0.00    +0.038 A 
ATOM     29  C   UNL     1       3.863   0.659  23.162  0.00  0.00    +0.069 A 
ATOM     30  C   UNL     1       2.930  -1.535  23.555  0.00  0.00    +0.023 A 
ATOM     33  C   UNL     1       5.124   0.188  23.530  0.00  0.00    +0.122 A 
ATOM     34  C   UNL     1       4.191  -2.005  23.922  0.00  0.00    +0.005 A 
ATOM     35  C   UNL     1       5.287  -1.144  23.910  0.00  0.00    +0.046 A 
BRANCH  33   6
ATOM      6  O   UNL     1       6.195   1.028  23.518  0.00  0.00    -0.495 OA
ATOM     36  C   UNL     1       7.490   0.431  23.540  0.00  0.00    +0.277 C 
ENDBRANCH  33   6
ENDBRANCH  10  25
ENDBRANCH  12   8
BRANCH  13  16
ATOM      2  O   UNL     1      -3.994   0.194  26.175  0.00  0.00    -0.274 OA
ATOM      9  N   UNL     1      -3.551   2.293  25.271  0.00  0.00    -0.302 N 
ATOM     16  C   UNL     1      -3.444   0.915  25.348  0.00  0.00    +0.236 C 
ATOM     38  H   UNL     1      -3.035   2.788  24.548  0.00  0.00    +0.150 HD
BRANCH   9  18
ATOM     18  C   UNL     1      -4.350   3.076  26.187  0.00  0.00    +0.163 C 
BRANCH  18  22
ATOM      5  O   UNL     1      -6.313   2.369  24.940  0.00  0.00    -0.274 OA
ATOM     11  N   UNL     1      -6.241   4.517  25.750  0.00  0.00    -0.328 N 
ATOM     22  C   UNL     1      -5.717   3.258  25.542  0.00  0.00    +0.231 C 
ATOM     40  H   UNL     1      -7.155   4.767  25.385  0.00  0.00    +0.145 HD
ATOM     41  H   UNL     1      -5.743   5.240  26.259  0.00  0.00    +0.145 HD
ENDBRANCH  18  22
BRANCH  18  21
ATOM     21  C   UNL     1      -3.717   4.438  26.493  0.00  0.00    +0.074 C 
BRANCH  21  24
ATOM      1  S   UNL     1      -1.138   3.456  26.112  0.00  0.00    -0.102 S 
ATOM     24  C   UNL     1      -2.372   4.608  25.826  0.00  0.00    -0.008 A 
ATOM     28  C   UNL     1      -1.958   5.608  24.973  0.00  0.00    +0.011 A 
ATOM     31  C   UNL     1      -0.611   5.425  24.549  0.00  0.00    +0.008 A 
ATOM     32  C   UNL     1      -0.046   4.292  25.093  0.00  0.00    +0.045 A 
ENDBRANCH  21  24
ENDBRANCH  18  21
ENDBRANCH   9  18
ENDBRANCH  13  16
BRANCH  17  20
ATOM     20  C   UNL     1      -3.851  -2.300  24.680  0.00  0.00    +0.066 C 
ATOM     23  C   UNL     1      -2.691  -2.807  25.133  0.00  0.00    -0.071 C 
ATOM     26  C   UNL     1      -2.486  -3.541  26.429  0.00  0.00    +0.039 C 
ATOM     27  C   UNL     1      -1.439  -2.660  24.308  0.00  0.00    +0.039 C 
ENDBRANCH  17  20
TORSDOF 9
ENDMDL
