MODEL 1
REMARK VINA RESULT:      20.2      0.000      0.000
REMARK  Name = 38344145
REMARK  8 active torsions:
REMARK  status: ('A' for Active; 'I' for Inactive)
REMARK    1  A    between atoms: N_5  and  C_12
REMARK    2  A    between atoms: N_6  and  C_20
REMARK    3  A    between atoms: N_8  and  C_27
REMARK    4  A    between atoms: C_10  and  C_13
REMARK    5  A    between atoms: C_16  and  C_18
REMARK    6  A    between atoms: C_17  and  C_19
REMARK    7  A    between atoms: C_26  and  C_28
REMARK    8  A    between atoms: C_31  and  C_34
REMARK                            x       y       z     vdW  Elec       q    Type
REMARK                         _______ _______ _______ _____ _____    ______ ____
ROOT
ATOM     10  C   UNL     1       6.688   0.404  22.709  0.00  0.00    +0.047 C 
ATOM     11  C   UNL     1       7.382   1.332  23.727  0.00  0.00    +0.039 C 
ATOM     12  C   UNL     1       8.862   0.930  23.719  0.00  0.00    +0.098 C 
ATOM     14  C   UNL     1       7.642  -0.753  22.625  0.00  0.00    -0.021 C 
ATOM     15  C   UNL     1       8.825  -0.461  23.174  0.00  0.00    -0.009 C 
ENDROOT
BRANCH  10  13
ATOM      6  N   UNL     1       3.119   0.018  23.440  0.00  0.00    -0.236 N 
ATOM      7  N   UNL     1       3.521  -1.160  23.950  0.00  0.00    -0.171 NA
ATOM     13  C   UNL     1       5.277   0.032  23.105  0.00  0.00    +0.003 A 
ATOM     16  C   UNL     1       4.133   0.769  22.922  0.00  0.00    +0.046 A 
ATOM     17  C   UNL     1       4.841  -1.145  23.742  0.00  0.00    +0.064 A 
ATOM     18  C   UNL     1       3.926   2.096  22.308  0.00  0.00    +0.066 C 
ATOM     19  C   UNL     1       5.655  -2.294  24.174  0.00  0.00    +0.068 C 
BRANCH   6  20
ATOM     20  C   UNL     1       1.767   0.363  23.479  0.00  0.00    +0.066 A 
ATOM     22  C   UNL     1       1.364   1.532  24.123  0.00  0.00    +0.028 A 
ATOM     23  C   UNL     1       0.820  -0.463  22.874  0.00  0.00    +0.028 A 
ATOM     24  C   UNL     1       0.013   1.875  24.164  0.00  0.00    +0.014 A 
ATOM     25  C   UNL     1      -0.531  -0.121  22.916  0.00  0.00    +0.014 A 
ATOM     26  C   UNL     1      -0.936   1.048  23.561  0.00  0.00    +0.055 A 
BRANCH  26  28
ATOM      1  F   UNL     1      -2.716   2.182  24.684  0.00  0.00    -0.166 F 
ATOM      2  F   UNL     1      -3.198   0.323  23.666  0.00  0.00    -0.166 F 
ATOM      3  F   UNL     1      -2.798   2.126  22.518  0.00  0.00    -0.166 F 
ATOM     28  C   UNL     1      -2.380   1.414  23.606  0.00  0.00    +0.417 C 
ENDBRANCH  26  28
ENDBRANCH   6  20
ENDBRANCH  10  13
BRANCH  12   5
ATOM      4  O   UNL     1       8.974   3.792  23.709  0.00  0.00    -0.252 OA
ATOM      5  N   UNL     1       9.660   1.756  22.853  0.00  0.00    -0.293 N 
ATOM      8  N   UNL     1      10.527   3.688  21.952  0.00  0.00    -0.269 N 
ATOM     21  C   UNL     1       9.659   3.158  22.910  0.00  0.00    +0.304 C 
ATOM     35  H   UNL     1      10.217   1.311  22.130  0.00  0.00    +0.151 HD
ATOM     36  H   UNL     1      11.022   3.020  21.365  0.00  0.00    +0.156 HD
BRANCH   8  27
ATOM     27  C   UNL     1      10.806   5.050  21.692  0.00  0.00    +0.036 A 
ATOM     29  C   UNL     1      11.879   5.398  20.872  0.00  0.00    +0.042 A 
ATOM     30  C   UNL     1      10.006   6.045  22.254  0.00  0.00    +0.023 A 
ATOM     31  C   UNL     1      12.155   6.742  20.617  0.00  0.00    +0.054 A 
ATOM     32  C   UNL     1      10.281   7.388  21.999  0.00  0.00    +0.003 A 
ATOM     33  C   UNL     1      11.355   7.737  21.180  0.00  0.00    +0.019 A 
BRANCH  31  34
ATOM      9  N   UNL     1      14.148   7.389  19.096  0.00  0.00    -0.191 NA
ATOM     34  C   UNL     1      13.254   7.099  19.778  0.00  0.00    +0.099 C 
ENDBRANCH  31  34
ENDBRANCH   8  27
ENDBRANCH  12   5
TORSDOF 6
ENDMDL
MODEL 2
REMARK VINA RESULT:      22.5      6.274     11.840
REMARK  Name = 38344145
REMARK  8 active torsions:
REMARK  status: ('A' for Active; 'I' for Inactive)
REMARK    1  A    between atoms: N_5  and  C_12
REMARK    2  A    between atoms: N_6  and  C_20
REMARK    3  A    between atoms: N_8  and  C_27
REMARK    4  A    between atoms: C_10  and  C_13
REMARK    5  A    between atoms: C_16  and  C_18
REMARK    6  A    between atoms: C_17  and  C_19
REMARK    7  A    between atoms: C_26  and  C_28
REMARK    8  A    between atoms: C_31  and  C_34
REMARK                            x       y       z     vdW  Elec       q    Type
REMARK                         _______ _______ _______ _____ _____    ______ ____
ROOT
ATOM     10  C   UNL     1       0.513  -0.327  24.136  0.00  0.00    +0.047 C 
ATOM     11  C   UNL     1      -0.285  -0.855  22.926  0.00  0.00    +0.039 C 
ATOM     12  C   UNL     1      -1.101  -2.044  23.449  0.00  0.00    +0.098 C 
ATOM     14  C   UNL     1       0.531  -1.516  25.053  0.00  0.00    -0.021 C 
ATOM     15  C   UNL     1      -0.351  -2.446  24.677  0.00  0.00    -0.009 C 
ENDROOT
BRANCH  10  13
ATOM      6  N   UNL     1       4.017   0.436  23.386  0.00  0.00    -0.236 N 
ATOM      7  N   UNL     1       3.510   1.635  23.050  0.00  0.00    -0.171 NA
ATOM     13  C   UNL     1       1.878   0.206  23.765  0.00  0.00    +0.003 A 
ATOM     16  C   UNL     1       3.081  -0.456  23.821  0.00  0.00    +0.046 A 
ATOM     17  C   UNL     1       2.203   1.488  23.284  0.00  0.00    +0.064 A 
ATOM     18  C   UNL     1       3.407  -1.833  24.241  0.00  0.00    +0.066 C 
ATOM     19  C   UNL     1       1.290   2.616  23.027  0.00  0.00    +0.068 C 
BRANCH   6  20
ATOM     20  C   UNL     1       5.389   0.208  23.272  0.00  0.00    +0.066 A 
ATOM     22  C   UNL     1       6.289   0.986  23.999  0.00  0.00    +0.028 A 
ATOM     23  C   UNL     1       5.859  -0.798  22.427  0.00  0.00    +0.028 A 
ATOM     24  C   UNL     1       7.660   0.760  23.881  0.00  0.00    +0.014 A 
ATOM     25  C   UNL     1       7.230  -1.024  22.309  0.00  0.00    +0.014 A 
ATOM     26  C   UNL     1       8.131  -0.246  23.035  0.00  0.00    +0.055 A 
BRANCH  26  28
ATOM      1  F   UNL     1       9.907  -1.674  22.310  0.00  0.00    -0.166 F 
ATOM      2  F   UNL     1      10.232  -0.511  24.118  0.00  0.00    -0.166 F 
ATOM      3  F   UNL     1      10.246   0.464  22.174  0.00  0.00    -0.166 F 
ATOM     28  C   UNL     1       9.597  -0.486  22.909  0.00  0.00    +0.417 C 
ENDBRANCH  26  28
ENDBRANCH   6  20
ENDBRANCH  10  13
BRANCH  12   5
ATOM      4  O   UNL     1      -2.028   0.564  24.189  0.00  0.00    -0.252 OA
ATOM      5  N   UNL     1      -2.444  -1.680  23.813  0.00  0.00    -0.293 N 
ATOM      8  N   UNL     1      -4.183  -0.324  24.469  0.00  0.00    -0.269 N 
ATOM     21  C   UNL     1      -2.820  -0.375  24.165  0.00  0.00    +0.304 C 
ATOM     35  H   UNL     1      -3.150  -2.408  23.866  0.00  0.00    +0.151 HD
ATOM     36  H   UNL     1      -4.700  -1.197  24.399  0.00  0.00    +0.156 HD
BRANCH   8  27
ATOM     27  C   UNL     1      -4.942   0.802  24.865  0.00  0.00    +0.036 A 
ATOM     29  C   UNL     1      -4.300   1.953  25.320  0.00  0.00    +0.042 A 
ATOM     30  C   UNL     1      -6.336   0.761  24.799  0.00  0.00    +0.023 A 
ATOM     31  C   UNL     1      -5.049   3.063  25.712  0.00  0.00    +0.054 A 
ATOM     32  C   UNL     1      -7.085   1.870  25.190  0.00  0.00    +0.003 A 
ATOM     33  C   UNL     1      -6.442   3.021  25.647  0.00  0.00    +0.019 A 
BRANCH  31  34
ATOM      9  N   UNL     1      -3.856   5.199  26.558  0.00  0.00    -0.191 NA
ATOM     34  C   UNL     1      -4.391   4.241  26.179  0.00  0.00    +0.099 C 
ENDBRANCH  31  34
ENDBRANCH   8  27
ENDBRANCH  12   5
TORSDOF 6
ENDMDL
MODEL 3
REMARK VINA RESULT:      23.4      4.391      6.378
REMARK  Name = 38344145
REMARK  8 active torsions:
REMARK  status: ('A' for Active; 'I' for Inactive)
REMARK    1  A    between atoms: N_5  and  C_12
REMARK    2  A    between atoms: N_6  and  C_20
REMARK    3  A    between atoms: N_8  and  C_27
REMARK    4  A    between atoms: C_10  and  C_13
REMARK    5  A    between atoms: C_16  and  C_18
REMARK    6  A    between atoms: C_17  and  C_19
REMARK    7  A    between atoms: C_26  and  C_28
REMARK    8  A    between atoms: C_31  and  C_34
REMARK                            x       y       z     vdW  Elec       q    Type
REMARK                         _______ _______ _______ _____ _____    ______ ____
ROOT
ATOM     10  C   UNL     1       2.032  -0.107  23.853  0.00  0.00    +0.047 C 
ATOM     11  C   UNL     1       2.264  -0.566  22.399  0.00  0.00    +0.039 C 
ATOM     12  C   UNL     1       3.331   0.376  21.827  0.00  0.00    +0.098 C 
ATOM     14  C   UNL     1       2.526   1.311  23.826  0.00  0.00    -0.021 C 
ATOM     15  C   UNL     1       3.236   1.568  22.722  0.00  0.00    -0.009 C 
ENDROOT
BRANCH  10  13
ATOM      6  N   UNL     1      -1.506   0.055  24.788  0.00  0.00    -0.236 N 
ATOM      7  N   UNL     1      -1.293  -1.218  25.164  0.00  0.00    -0.171 NA
ATOM     13  C   UNL     1       0.600  -0.268  24.310  0.00  0.00    +0.003 A 
ATOM     16  C   UNL     1      -0.404   0.669  24.270  0.00  0.00    +0.046 A 
ATOM     17  C   UNL     1      -0.004  -1.409  24.869  0.00  0.00    +0.064 A 
ATOM     18  C   UNL     1      -0.404   2.065  23.790  0.00  0.00    +0.066 C 
ATOM     19  C   UNL     1       0.615  -2.718  25.143  0.00  0.00    +0.068 C 
BRANCH   6  20
ATOM     20  C   UNL     1      -2.772   0.621  24.948  0.00  0.00    +0.066 A 
ATOM     22  C   UNL     1      -2.908   2.005  25.056  0.00  0.00    +0.028 A 
ATOM     23  C   UNL     1      -3.900  -0.198  25.002  0.00  0.00    +0.028 A 
ATOM     24  C   UNL     1      -4.173   2.570  25.220  0.00  0.00    +0.014 A 
ATOM     25  C   UNL     1      -5.164   0.368  25.166  0.00  0.00    +0.014 A 
ATOM     26  C   UNL     1      -5.301   1.751  25.275  0.00  0.00    +0.055 A 
BRANCH  26  28
ATOM      1  F   UNL     1      -6.642   3.722  25.475  0.00  0.00    -0.166 F 
ATOM      2  F   UNL     1      -7.251   1.975  26.618  0.00  0.00    -0.166 F 
ATOM      3  F   UNL     1      -7.533   2.024  24.462  0.00  0.00    -0.166 F 
ATOM     28  C   UNL     1      -6.652   2.356  25.451  0.00  0.00    +0.417 C 
ENDBRANCH  26  28
ENDBRANCH   6  20
ENDBRANCH  10  13
BRANCH  12   5
ATOM      4  O   UNL     1       5.304   0.959  23.820  0.00  0.00    -0.252 OA
ATOM      5  N   UNL     1       4.659  -0.172  21.909  0.00  0.00    -0.293 N 
ATOM      8  N   UNL     1       6.774  -0.519  22.743  0.00  0.00    -0.269 N 
ATOM     21  C   UNL     1       5.570   0.166  22.921  0.00  0.00    +0.304 C 
ATOM     35  H   UNL     1       4.975  -0.799  21.175  0.00  0.00    +0.151 HD
ATOM     36  H   UNL     1       6.831  -1.143  21.942  0.00  0.00    +0.156 HD
BRANCH   8  27
ATOM     27  C   UNL     1       7.937  -0.453  23.546  0.00  0.00    +0.036 A 
ATOM     29  C   UNL     1       8.005  -1.174  24.738  0.00  0.00    +0.042 A 
ATOM     30  C   UNL     1       9.018   0.333  23.144  0.00  0.00    +0.023 A 
ATOM     31  C   UNL     1       9.152  -1.108  25.529  0.00  0.00    +0.054 A 
ATOM     32  C   UNL     1      10.165   0.398  23.934  0.00  0.00    +0.003 A 
ATOM     33  C   UNL     1      10.232  -0.322  25.127  0.00  0.00    +0.019 A 
BRANCH  31  34
ATOM      9  N   UNL     1       9.277  -2.445  27.743  0.00  0.00    -0.191 NA
ATOM     34  C   UNL     1       9.221  -1.845  26.750  0.00  0.00    +0.099 C 
ENDBRANCH  31  34
ENDBRANCH   8  27
ENDBRANCH  12   5
TORSDOF 6
ENDMDL
