MODEL 1
REMARK VINA RESULT:       1.1      0.000      0.000
REMARK  Name = 28959918
REMARK  11 active torsions:
REMARK  status: ('A' for Active; 'I' for Inactive)
REMARK    1  A    between atoms: O_3  and  C_22
REMARK    2  A    between atoms: O_5  and  C_35
REMARK    3  A    between atoms: O_5  and  C_36
REMARK    4  A    between atoms: N_7  and  C_16
REMARK    5  A    between atoms: N_8  and  C_24
REMARK    6  A    between atoms: C_9  and  C_13
REMARK    7  A    between atoms: C_10  and  C_15
REMARK    8  A    between atoms: C_13  and  C_16
REMARK    9  A    between atoms: C_15  and  C_22
REMARK   10  A    between atoms: C_19  and  C_23
REMARK   11  A    between atoms: C_23  and  C_25
REMARK                            x       y       z     vdW  Elec       q    Type
REMARK                         _______ _______ _______ _____ _____    ______ ____
ROOT
ATOM      2  O   UNL     1      -6.654   1.212  26.514  0.00  0.00    -0.275 OA
ATOM      6  N   UNL     1      -5.348   2.605  25.190  0.00  0.00    -0.301 N 
ATOM      9  C   UNL     1      -3.158   3.285  24.233  0.00  0.00    +0.011 C 
ATOM     10  C   UNL     1      -3.115   4.449  25.255  0.00  0.00    +0.006 C 
ATOM     11  C   UNL     1      -4.619   2.893  23.948  0.00  0.00    +0.111 C 
ATOM     12  C   UNL     1      -3.932   4.125  26.517  0.00  0.00    +0.023 C 
ATOM     14  C   UNL     1      -5.353   3.697  26.162  0.00  0.00    +0.108 C 
ATOM     19  C   UNL     1      -6.027   1.419  25.472  0.00  0.00    +0.220 C 
ENDROOT
BRANCH   9  13
ATOM     13  C   UNL     1      -2.349   2.052  24.658  0.00  0.00    +0.020 C 
BRANCH  13  16
ATOM     16  C   UNL     1      -2.141   1.107  23.483  0.00  0.00    +0.085 C 
BRANCH  16   7
ATOM      7  N   UNL     1      -0.729   1.087  23.106  0.00  0.00    -0.299 NA
ATOM      8  N   UNL     1       2.021   0.349  23.335  0.00  0.00    -0.327 N 
ATOM     17  C   UNL     1       0.101   1.640  24.184  0.00  0.00    +0.103 C 
ATOM     18  C   UNL     1      -0.298  -0.282  22.797  0.00  0.00    +0.103 C 
ATOM     20  C   UNL     1       1.576   1.677  23.778  0.00  0.00    +0.120 C 
ATOM     21  C   UNL     1       1.164  -0.311  22.346  0.00  0.00    +0.120 C 
BRANCH   8  24
ATOM      1  F   UNL     1       7.442  -0.735  23.430  0.00  0.00    -0.205 F 
ATOM     24  C   UNL     1       3.393   0.075  23.359  0.00  0.00    +0.030 A 
ATOM     26  C   UNL     1       4.309   1.064  23.000  0.00  0.00    +0.026 A 
ATOM     27  C   UNL     1       3.845  -1.187  23.743  0.00  0.00    +0.026 A 
ATOM     30  C   UNL     1       5.676   0.791  23.023  0.00  0.00    +0.040 A 
ATOM     31  C   UNL     1       5.213  -1.461  23.767  0.00  0.00    +0.040 A 
ATOM     32  C   UNL     1       6.129  -0.471  23.407  0.00  0.00    +0.124 A 
ENDBRANCH   8  24
ENDBRANCH  16   7
ENDBRANCH  13  16
ENDBRANCH   9  13
BRANCH  10  15
ATOM     15  C   UNL     1      -1.693   4.870  25.626  0.00  0.00    +0.124 C 
BRANCH  15  22
ATOM      4  O   UNL     1       0.106   4.911  23.982  0.00  0.00    -0.251 OA
ATOM     22  C   UNL     1      -0.933   5.371  24.429  0.00  0.00    +0.305 C 
BRANCH  22   3
ATOM      3  O   UNL     1      -1.578   6.439  23.892  0.00  0.00    -0.481 OA
ATOM     37  H   UNL     1      -2.239   6.167  23.220  0.00  0.00    +0.295 HD
ENDBRANCH  22   3
ENDBRANCH  15  22
ENDBRANCH  10  15
BRANCH  19  23
ATOM     23  C   UNL     1      -5.970   0.341  24.419  0.00  0.00    +0.131 C 
BRANCH  23  25
ATOM     25  C   UNL     1      -4.783  -0.544  24.635  0.00  0.00    -0.038 A 
ATOM     28  C   UNL     1      -4.450  -1.508  23.683  0.00  0.00    +0.007 A 
ATOM     29  C   UNL     1      -4.009  -0.404  25.787  0.00  0.00    +0.007 A 
ATOM     33  C   UNL     1      -3.342  -2.332  23.884  0.00  0.00    +0.046 A 
ATOM     34  C   UNL     1      -2.901  -1.228  25.987  0.00  0.00    +0.046 A 
ATOM     35  C   UNL     1      -2.568  -2.191  25.035  0.00  0.00    +0.120 A 
BRANCH  35   5
ATOM      5  O   UNL     1      -1.485  -2.994  25.230  0.00  0.00    -0.495 OA
ATOM     36  C   UNL     1      -0.223  -2.351  25.401  0.00  0.00    +0.277 C 
ENDBRANCH  35   5
ENDBRANCH  23  25
ENDBRANCH  19  23
TORSDOF 10
ENDMDL
MODEL 2
REMARK VINA RESULT:       4.0      0.977      4.494
REMARK  Name = 28959918
REMARK  11 active torsions:
REMARK  status: ('A' for Active; 'I' for Inactive)
REMARK    1  A    between atoms: O_3  and  C_22
REMARK    2  A    between atoms: O_5  and  C_35
REMARK    3  A    between atoms: O_5  and  C_36
REMARK    4  A    between atoms: N_7  and  C_16
REMARK    5  A    between atoms: N_8  and  C_24
REMARK    6  A    between atoms: C_9  and  C_13
REMARK    7  A    between atoms: C_10  and  C_15
REMARK    8  A    between atoms: C_13  and  C_16
REMARK    9  A    between atoms: C_15  and  C_22
REMARK   10  A    between atoms: C_19  and  C_23
REMARK   11  A    between atoms: C_23  and  C_25
REMARK                            x       y       z     vdW  Elec       q    Type
REMARK                         _______ _______ _______ _____ _____    ______ ____
ROOT
ATOM      2  O   UNL     1      -6.896   1.793  24.100  0.00  0.00    -0.275 OA
ATOM      6  N   UNL     1      -5.362   0.437  25.198  0.00  0.00    -0.301 N 
ATOM      9  C   UNL     1      -3.030  -0.212  25.760  0.00  0.00    +0.011 C 
ATOM     10  C   UNL     1      -3.164  -1.401  24.775  0.00  0.00    +0.006 C 
ATOM     11  C   UNL     1      -4.419   0.182  26.295  0.00  0.00    +0.111 C 
ATOM     12  C   UNL     1      -4.198  -1.110  23.674  0.00  0.00    +0.023 C 
ATOM     14  C   UNL     1      -5.535  -0.679  24.269  0.00  0.00    +0.108 C 
ATOM     19  C   UNL     1      -6.090   1.613  25.016  0.00  0.00    +0.220 C 
ENDROOT
BRANCH   9  13
ATOM     13  C   UNL     1      -2.321   1.012  25.167  0.00  0.00    +0.020 C 
BRANCH  13  16
ATOM     16  C   UNL     1      -2.207   0.894  23.654  0.00  0.00    +0.085 C 
BRANCH  16   7
ATOM      7  N   UNL     1      -0.804   0.983  23.253  0.00  0.00    -0.299 NA
ATOM      8  N   UNL     1       1.975   0.330  23.325  0.00  0.00    -0.327 N 
ATOM     17  C   UNL     1       0.029   1.410  24.384  0.00  0.00    +0.103 C 
ATOM     18  C   UNL     1      -0.330  -0.310  22.743  0.00  0.00    +0.103 C 
ATOM     20  C   UNL     1       1.492   1.562  23.961  0.00  0.00    +0.120 C 
ATOM     21  C   UNL     1       1.121  -0.215  22.266  0.00  0.00    +0.120 C 
BRANCH   8  24
ATOM      1  F   UNL     1       7.433  -0.540  23.167  0.00  0.00    -0.205 F 
ATOM     24  C   UNL     1       3.357   0.111  23.285  0.00  0.00    +0.030 A 
ATOM     26  C   UNL     1       4.203   1.081  22.749  0.00  0.00    +0.026 A 
ATOM     27  C   UNL     1       3.888  -1.080  23.781  0.00  0.00    +0.026 A 
ATOM     30  C   UNL     1       5.580   0.862  22.709  0.00  0.00    +0.040 A 
ATOM     31  C   UNL     1       5.265  -1.300  23.741  0.00  0.00    +0.040 A 
ATOM     32  C   UNL     1       6.111  -0.328  23.205  0.00  0.00    +0.124 A 
ENDBRANCH   8  24
ENDBRANCH  16   7
ENDBRANCH  13  16
ENDBRANCH   9  13
BRANCH  10  15
ATOM     15  C   UNL     1      -1.829  -1.827  24.163  0.00  0.00    +0.124 C 
BRANCH  15  22
ATOM      4  O   UNL     1      -0.810  -3.616  25.468  0.00  0.00    -0.251 OA
ATOM     22  C   UNL     1      -0.915  -2.430  25.193  0.00  0.00    +0.305 C 
BRANCH  22   3
ATOM      3  O   UNL     1      -0.196  -1.449  25.797  0.00  0.00    -0.481 OA
ATOM     37  H   UNL     1      -0.017  -1.655  26.739  0.00  0.00    +0.295 HD
ENDBRANCH  22   3
ENDBRANCH  15  22
ENDBRANCH  10  15
BRANCH  19  23
ATOM     23  C   UNL     1      -5.852   2.717  26.015  0.00  0.00    +0.131 C 
BRANCH  23  25
ATOM     25  C   UNL     1      -4.559   3.415  25.732  0.00  0.00    -0.038 A 
ATOM     28  C   UNL     1      -3.708   3.760  26.782  0.00  0.00    +0.007 A 
ATOM     29  C   UNL     1      -4.202   3.718  24.417  0.00  0.00    +0.007 A 
ATOM     33  C   UNL     1      -2.502   4.409  26.518  0.00  0.00    +0.046 A 
ATOM     34  C   UNL     1      -2.996   4.366  24.153  0.00  0.00    +0.046 A 
ATOM     35  C   UNL     1      -2.146   4.711  25.204  0.00  0.00    +0.120 A 
BRANCH  35   5
ATOM      5  O   UNL     1      -0.967   5.343  24.946  0.00  0.00    -0.495 OA
ATOM     36  C   UNL     1      -0.198   4.855  23.847  0.00  0.00    +0.277 C 
ENDBRANCH  35   5
ENDBRANCH  23  25
ENDBRANCH  19  23
TORSDOF 10
ENDMDL
