MODEL 1
REMARK VINA RESULT:       2.5      0.000      0.000
REMARK  Name = 45783277
REMARK  8 active torsions:
REMARK  status: ('A' for Active; 'I' for Inactive)
REMARK    1  A    between atoms: O_2  and  C_27
REMARK    2  A    between atoms: O_2  and  C_28
REMARK    3  A    between atoms: N_3  and  C_9
REMARK    4  A    between atoms: N_4  and  C_19
REMARK    5  A    between atoms: N_8  and  C_26
REMARK    6  A    between atoms: C_10  and  C_18
REMARK    7  A    between atoms: C_20  and  C_21
REMARK    8  A    between atoms: C_26  and  C_27
REMARK                            x       y       z     vdW  Elec       q    Type
REMARK                         _______ _______ _______ _____ _____    ______ ____
ROOT
ATOM      1  O   UNL     1      -0.977   0.509  25.503  0.00  0.00    -0.336 OA
ATOM      5  N   UNL     1      -0.789  -0.730  23.645  0.00  0.00    -0.190 NA
ATOM      6  N   UNL     1       0.246   0.864  24.920  0.00  0.00    -0.056 NA
ATOM     18  C   UNL     1      -1.521  -0.434  24.690  0.00  0.00    +0.245 A 
ATOM     20  C   UNL     1       0.284   0.092  23.830  0.00  0.00    +0.202 A 
ENDROOT
BRANCH  20  21
ATOM      7  N   UNL     1       3.521   0.158  21.108  0.00  0.00    -0.240 NA
ATOM      8  N   UNL     1       4.993   0.720  22.896  0.00  0.00    -0.327 N 
ATOM     21  C   UNL     1       1.382   0.116  22.906  0.00  0.00    +0.027 A 
ATOM     22  C   UNL     1       2.665   0.409  23.355  0.00  0.00    +0.055 A 
ATOM     23  C   UNL     1       1.168  -0.157  21.560  0.00  0.00    +0.031 A 
ATOM     24  C   UNL     1       3.692   0.418  22.424  0.00  0.00    +0.119 A 
ATOM     25  C   UNL     1       2.261  -0.124  20.710  0.00  0.00    +0.113 A 
ATOM     29  H   UNL     1       5.736   0.719  22.205  0.00  0.00    +0.148 HD
BRANCH   8  26
ATOM     26  C   UNL     1       5.268   1.008  24.266  0.00  0.00    +0.131 C 
BRANCH  26  27
ATOM     27  C   UNL     1       5.679  -0.262  24.991  0.00  0.00    +0.178 C 
BRANCH  27   2
ATOM      2  O   UNL     1       5.801  -1.324  24.055  0.00  0.00    -0.381 OA
ATOM     28  C   UNL     1       4.652  -2.159  24.062  0.00  0.00    +0.194 C 
ENDBRANCH  27   2
ENDBRANCH  26  27
ENDBRANCH   8  26
ENDBRANCH  20  21
BRANCH  18  10
ATOM      3  N   UNL     1      -3.908  -0.788  24.080  0.00  0.00    -0.288 NA
ATOM     10  C   UNL     1      -2.867  -0.990  25.107  0.00  0.00    +0.146 C 
ATOM     11  C   UNL     1      -4.857  -1.890  24.230  0.00  0.00    +0.085 C 
ATOM     14  C   UNL     1      -2.837  -2.512  25.340  0.00  0.00    +0.030 C 
ATOM     15  C   UNL     1      -3.934  -3.072  24.446  0.00  0.00    +0.017 C 
BRANCH   3   9
ATOM      4  N   UNL     1      -4.703   3.189  25.356  0.00  0.00    -0.305 NA
ATOM      9  C   UNL     1      -4.561   0.517  24.170  0.00  0.00    +0.060 C 
ATOM     12  C   UNL     1      -5.111   0.757  25.578  0.00  0.00    +0.034 C 
ATOM     13  C   UNL     1      -3.578   1.629  23.796  0.00  0.00    +0.034 C 
ATOM     16  C   UNL     1      -5.698   2.166  25.705  0.00  0.00    +0.085 C 
ATOM     17  C   UNL     1      -4.215   3.009  23.981  0.00  0.00    +0.085 C 
ATOM     19  C   UNL     1      -5.263   4.528  25.530  0.00  0.00    +0.104 C 
ENDBRANCH   3   9
ENDBRANCH  18  10
TORSDOF 6
ENDMDL
MODEL 2
REMARK VINA RESULT:       2.9      2.478      7.345
REMARK  Name = 45783277
REMARK  8 active torsions:
REMARK  status: ('A' for Active; 'I' for Inactive)
REMARK    1  A    between atoms: O_2  and  C_27
REMARK    2  A    between atoms: O_2  and  C_28
REMARK    3  A    between atoms: N_3  and  C_9
REMARK    4  A    between atoms: N_4  and  C_19
REMARK    5  A    between atoms: N_8  and  C_26
REMARK    6  A    between atoms: C_10  and  C_18
REMARK    7  A    between atoms: C_20  and  C_21
REMARK    8  A    between atoms: C_26  and  C_27
REMARK                            x       y       z     vdW  Elec       q    Type
REMARK                         _______ _______ _______ _____ _____    ______ ____
ROOT
ATOM      1  O   UNL     1       0.595   3.293  23.668  0.00  0.00    -0.336 OA
ATOM      5  N   UNL     1      -0.834   2.084  24.899  0.00  0.00    -0.190 NA
ATOM      6  N   UNL     1      -0.471   4.147  23.978  0.00  0.00    -0.056 NA
ATOM     18  C   UNL     1       0.302   2.100  24.247  0.00  0.00    +0.245 A 
ATOM     20  C   UNL     1      -1.271   3.362  24.706  0.00  0.00    +0.202 A 
ENDROOT
BRANCH  20  21
ATOM      7  N   UNL     1      -4.938   4.718  26.321  0.00  0.00    -0.240 NA
ATOM      8  N   UNL     1      -6.025   2.795  25.427  0.00  0.00    -0.327 N 
ATOM     21  C   UNL     1      -2.515   3.823  25.252  0.00  0.00    +0.027 A 
ATOM     22  C   UNL     1      -3.675   3.077  25.072  0.00  0.00    +0.055 A 
ATOM     23  C   UNL     1      -2.565   5.014  25.967  0.00  0.00    +0.031 A 
ATOM     24  C   UNL     1      -4.851   3.565  25.621  0.00  0.00    +0.119 A 
ATOM     25  C   UNL     1      -3.789   5.414  26.476  0.00  0.00    +0.113 A 
ATOM     29  H   UNL     1      -6.877   3.161  25.837  0.00  0.00    +0.148 HD
BRANCH   8  26
ATOM     26  C   UNL     1      -6.029   1.567  24.702  0.00  0.00    +0.131 C 
BRANCH  26  27
ATOM     27  C   UNL     1      -4.998   0.615  25.286  0.00  0.00    +0.178 C 
BRANCH  27   2
ATOM      2  O   UNL     1      -4.478  -0.211  24.253  0.00  0.00    -0.381 OA
ATOM     28  C   UNL     1      -3.624   0.517  23.383  0.00  0.00    +0.194 C 
ENDBRANCH  27   2
ENDBRANCH  26  27
ENDBRANCH   8  26
ENDBRANCH  20  21
BRANCH  18  10
ATOM      3  N   UNL     1       0.776  -0.139  23.269  0.00  0.00    -0.288 NA
ATOM     10  C   UNL     1       1.314   0.990  24.055  0.00  0.00    +0.146 C 
ATOM     11  C   UNL     1       1.915  -0.740  22.576  0.00  0.00    +0.085 C 
ATOM     14  C   UNL     1       2.561   1.449  23.277  0.00  0.00    +0.030 C 
ATOM     15  C   UNL     1       2.677   0.483  22.107  0.00  0.00    +0.017 C 
BRANCH   3   9
ATOM      4  N   UNL     1      -2.478  -2.104  25.173  0.00  0.00    -0.305 NA
ATOM      9  C   UNL     1       0.051  -1.114  24.082  0.00  0.00    +0.060 C 
ATOM     12  C   UNL     1      -0.655  -0.431  25.256  0.00  0.00    +0.034 C 
ATOM     13  C   UNL     1      -0.969  -1.865  23.224  0.00  0.00    +0.034 C 
ATOM     16  C   UNL     1      -1.504  -1.432  26.044  0.00  0.00    +0.085 C 
ATOM     17  C   UNL     1      -1.807  -2.820  24.079  0.00  0.00    +0.085 C 
ATOM     19  C   UNL     1      -3.313  -3.019  25.949  0.00  0.00    +0.104 C 
ENDBRANCH   3   9
ENDBRANCH  18  10
TORSDOF 6
ENDMDL
MODEL 3
REMARK VINA RESULT:       3.4      1.173      3.437
REMARK  Name = 45783277
REMARK  8 active torsions:
REMARK  status: ('A' for Active; 'I' for Inactive)
REMARK    1  A    between atoms: O_2  and  C_27
REMARK    2  A    between atoms: O_2  and  C_28
REMARK    3  A    between atoms: N_3  and  C_9
REMARK    4  A    between atoms: N_4  and  C_19
REMARK    5  A    between atoms: N_8  and  C_26
REMARK    6  A    between atoms: C_10  and  C_18
REMARK    7  A    between atoms: C_20  and  C_21
REMARK    8  A    between atoms: C_26  and  C_27
REMARK                            x       y       z     vdW  Elec       q    Type
REMARK                         _______ _______ _______ _____ _____    ______ ____
ROOT
ATOM      1  O   UNL     1      -1.039   2.691  24.919  0.00  0.00    -0.336 OA
ATOM      5  N   UNL     1      -1.367   1.220  23.260  0.00  0.00    -0.190 NA
ATOM      6  N   UNL     1       0.235   2.303  24.484  0.00  0.00    -0.056 NA
ATOM     18  C   UNL     1      -1.924   2.007  24.147  0.00  0.00    +0.245 A 
ATOM     20  C   UNL     1      -0.042   1.437  23.505  0.00  0.00    +0.202 A 
ENDROOT
BRANCH  20  21
ATOM      7  N   UNL     1       2.975  -0.540  21.295  0.00  0.00    -0.240 NA
ATOM      8  N   UNL     1       4.629   0.459  22.691  0.00  0.00    -0.327 N 
ATOM     21  C   UNL     1       0.981   0.768  22.754  0.00  0.00    +0.027 A 
ATOM     22  C   UNL     1       2.319   0.941  23.091  0.00  0.00    +0.055 A 
ATOM     23  C   UNL     1       0.639  -0.058  21.690  0.00  0.00    +0.031 A 
ATOM     24  C   UNL     1       3.270   0.271  22.337  0.00  0.00    +0.119 A 
ATOM     25  C   UNL     1       1.664  -0.684  20.999  0.00  0.00    +0.113 A 
ATOM     29  H   UNL     1       5.314  -0.039  22.133  0.00  0.00    +0.148 HD
BRANCH   8  26
ATOM     26  C   UNL     1       5.034   1.296  23.772  0.00  0.00    +0.131 C 
BRANCH  26  27
ATOM     27  C   UNL     1       5.708   0.463  24.849  0.00  0.00    +0.178 C 
BRANCH  27   2
ATOM      2  O   UNL     1       6.051  -0.811  24.318  0.00  0.00    -0.381 OA
ATOM     28  C   UNL     1       4.912  -1.652  24.206  0.00  0.00    +0.194 C 
ENDBRANCH  27   2
ENDBRANCH  26  27
ENDBRANCH   8  26
ENDBRANCH  20  21
BRANCH  18  10
ATOM      3  N   UNL     1      -3.859   1.582  25.654  0.00  0.00    -0.288 NA
ATOM     10  C   UNL     1      -3.392   2.254  24.424  0.00  0.00    +0.146 C 
ATOM     11  C   UNL     1      -4.953   2.398  26.180  0.00  0.00    +0.085 C 
ATOM     14  C   UNL     1      -3.715   3.743  24.645  0.00  0.00    +0.030 C 
ATOM     15  C   UNL     1      -4.414   3.802  25.995  0.00  0.00    +0.017 C 
BRANCH   3   9
ATOM      4  N   UNL     1      -3.724  -2.436  24.271  0.00  0.00    -0.305 NA
ATOM      9  C   UNL     1      -4.265   0.195  25.435  0.00  0.00    +0.060 C 
ATOM     12  C   UNL     1      -4.450  -0.092  23.942  0.00  0.00    +0.034 C 
ATOM     13  C   UNL     1      -3.225  -0.760  26.025  0.00  0.00    +0.034 C 
ATOM     16  C   UNL     1      -4.767  -1.571  23.703  0.00  0.00    +0.085 C 
ATOM     17  C   UNL     1      -3.582  -2.217  25.718  0.00  0.00    +0.085 C 
ATOM     19  C   UNL     1      -4.015  -3.841  23.992  0.00  0.00    +0.104 C 
ENDBRANCH   3   9
ENDBRANCH  18  10
TORSDOF 6
ENDMDL
MODEL 4
REMARK VINA RESULT:       3.5      2.486      7.047
REMARK  Name = 45783277
REMARK  8 active torsions:
REMARK  status: ('A' for Active; 'I' for Inactive)
REMARK    1  A    between atoms: O_2  and  C_27
REMARK    2  A    between atoms: O_2  and  C_28
REMARK    3  A    between atoms: N_3  and  C_9
REMARK    4  A    between atoms: N_4  and  C_19
REMARK    5  A    between atoms: N_8  and  C_26
REMARK    6  A    between atoms: C_10  and  C_18
REMARK    7  A    between atoms: C_20  and  C_21
REMARK    8  A    between atoms: C_26  and  C_27
REMARK                            x       y       z     vdW  Elec       q    Type
REMARK                         _______ _______ _______ _____ _____    ______ ____
ROOT
ATOM      1  O   UNL     1      -4.134  -1.495  23.990  0.00  0.00    -0.336 OA
ATOM      5  N   UNL     1      -2.922   0.279  24.627  0.00  0.00    -0.190 NA
ATOM      6  N   UNL     1      -5.049  -0.459  24.213  0.00  0.00    -0.056 NA
ATOM     18  C   UNL     1      -2.906  -0.977  24.257  0.00  0.00    +0.245 A 
ATOM     20  C   UNL     1      -4.259   0.553  24.585  0.00  0.00    +0.202 A 
ENDROOT
BRANCH  20  21
ATOM      7  N   UNL     1      -5.776   4.375  25.577  0.00  0.00    -0.240 NA
ATOM      8  N   UNL     1      -3.785   5.369  24.724  0.00  0.00    -0.327 N 
ATOM     21  C   UNL     1      -4.772   1.849  24.923  0.00  0.00    +0.027 A 
ATOM     22  C   UNL     1      -4.021   2.989  24.656  0.00  0.00    +0.055 A 
ATOM     23  C   UNL     1      -6.024   1.971  25.515  0.00  0.00    +0.031 A 
ATOM     24  C   UNL     1      -4.563   4.217  25.000  0.00  0.00    +0.119 A 
ATOM     25  C   UNL     1      -6.476   3.244  25.820  0.00  0.00    +0.113 A 
ATOM     29  H   UNL     1      -4.194   6.262  24.977  0.00  0.00    +0.148 HD
BRANCH   8  26
ATOM     26  C   UNL     1      -2.495   5.301  24.118  0.00  0.00    +0.131 C 
BRANCH  26  27
ATOM     27  C   UNL     1      -1.418   5.312  25.189  0.00  0.00    +0.178 C 
BRANCH  27   2
ATOM      2  O   UNL     1      -0.653   4.117  25.106  0.00  0.00    -0.381 OA
ATOM     28  C   UNL     1      -1.009   3.199  26.130  0.00  0.00    +0.194 C 
ENDBRANCH  27   2
ENDBRANCH  26  27
ENDBRANCH   8  26
ENDBRANCH  20  21
BRANCH  18  10
ATOM      3  N   UNL     1      -0.490  -1.382  24.695  0.00  0.00    -0.288 NA
ATOM     10  C   UNL     1      -1.727  -1.913  24.088  0.00  0.00    +0.146 C 
ATOM     11  C   UNL     1       0.303  -2.542  25.098  0.00  0.00    +0.085 C 
ATOM     14  C   UNL     1      -1.946  -3.275  24.772  0.00  0.00    +0.030 C 
ATOM     15  C   UNL     1      -0.751  -3.449  25.699  0.00  0.00    +0.017 C 
BRANCH   3   9
ATOM      4  N   UNL     1       2.669   1.057  23.230  0.00  0.00    -0.305 NA
ATOM      9  C   UNL     1       0.253  -0.492  23.805  0.00  0.00    +0.060 C 
ATOM     12  C   UNL     1       0.549   0.846  24.490  0.00  0.00    +0.034 C 
ATOM     13  C   UNL     1       1.561  -1.153  23.364  0.00  0.00    +0.034 C 
ATOM     16  C   UNL     1       1.420   1.736  23.600  0.00  0.00    +0.085 C 
ATOM     17  C   UNL     1       2.399  -0.197  22.511  0.00  0.00    +0.085 C 
ATOM     19  C   UNL     1       3.512   1.938  22.423  0.00  0.00    +0.104 C 
ENDBRANCH   3   9
ENDBRANCH  18  10
TORSDOF 6
ENDMDL
MODEL 5
REMARK VINA RESULT:       3.7      2.779      5.846
REMARK  Name = 45783277
REMARK  8 active torsions:
REMARK  status: ('A' for Active; 'I' for Inactive)
REMARK    1  A    between atoms: O_2  and  C_27
REMARK    2  A    between atoms: O_2  and  C_28
REMARK    3  A    between atoms: N_3  and  C_9
REMARK    4  A    between atoms: N_4  and  C_19
REMARK    5  A    between atoms: N_8  and  C_26
REMARK    6  A    between atoms: C_10  and  C_18
REMARK    7  A    between atoms: C_20  and  C_21
REMARK    8  A    between atoms: C_26  and  C_27
REMARK                            x       y       z     vdW  Elec       q    Type
REMARK                         _______ _______ _______ _____ _____    ______ ____
ROOT
ATOM      1  O   UNL     1      -6.290   1.461  24.838  0.00  0.00    -0.336 OA
ATOM      5  N   UNL     1      -4.115   1.026  25.157  0.00  0.00    -0.190 NA
ATOM      6  N   UNL     1      -6.093   0.139  24.421  0.00  0.00    -0.056 NA
ATOM     18  C   UNL     1      -5.077   1.910  25.255  0.00  0.00    +0.245 A 
ATOM     20  C   UNL     1      -4.787  -0.044  24.641  0.00  0.00    +0.202 A 
ENDROOT
BRANCH  20  21
ATOM      7  N   UNL     1      -2.830  -3.698  23.797  0.00  0.00    -0.240 NA
ATOM      8  N   UNL     1      -0.788  -2.773  24.609  0.00  0.00    -0.327 N 
ATOM     21  C   UNL     1      -4.123  -1.283  24.354  0.00  0.00    +0.027 A 
ATOM     22  C   UNL     1      -2.766  -1.426  24.624  0.00  0.00    +0.055 A 
ATOM     23  C   UNL     1      -4.833  -2.345  23.807  0.00  0.00    +0.031 A 
ATOM     24  C   UNL     1      -2.171  -2.643  24.329  0.00  0.00    +0.119 A 
ATOM     25  C   UNL     1      -4.147  -3.521  23.550  0.00  0.00    +0.113 A 
ATOM     29  H   UNL     1      -0.366  -3.669  24.392  0.00  0.00    +0.148 HD
BRANCH   8  26
ATOM     26  C   UNL     1      -0.013  -1.715  25.168  0.00  0.00    +0.131 C 
BRANCH  26  27
ATOM     27  C   UNL     1      -0.150  -0.464  24.316  0.00  0.00    +0.178 C 
BRANCH  27   2
ATOM      2  O   UNL     1       0.554  -0.643  23.094  0.00  0.00    -0.381 OA
ATOM     28  C   UNL     1       1.703   0.189  23.029  0.00  0.00    +0.194 C 
ENDBRANCH  27   2
ENDBRANCH  26  27
ENDBRANCH   8  26
ENDBRANCH  20  21
BRANCH  18  10
ATOM      3  N   UNL     1      -4.278   4.232  24.854  0.00  0.00    -0.288 NA
ATOM     10  C   UNL     1      -5.022   3.336  25.762  0.00  0.00    +0.146 C 
ATOM     11  C   UNL     1      -4.858   5.564  25.022  0.00  0.00    +0.085 C 
ATOM     14  C   UNL     1      -6.416   3.976  25.890  0.00  0.00    +0.030 C 
ATOM     15  C   UNL     1      -6.341   5.257  25.071  0.00  0.00    +0.017 C 
BRANCH   3   9
ATOM      4  N   UNL     1      -0.380   2.739  25.657  0.00  0.00    -0.305 NA
ATOM      9  C   UNL     1      -2.836   4.227  25.092  0.00  0.00    +0.060 C 
ATOM     12  C   UNL     1      -2.513   3.683  26.486  0.00  0.00    +0.034 C 
ATOM     13  C   UNL     1      -2.127   3.387  24.027  0.00  0.00    +0.034 C 
ATOM     16  C   UNL     1      -1.000   3.573  26.695  0.00  0.00    +0.085 C 
ATOM     17  C   UNL     1      -0.626   3.288  24.316  0.00  0.00    +0.085 C 
ATOM     19  C   UNL     1       1.055   2.603  25.900  0.00  0.00    +0.104 C 
ENDBRANCH   3   9
ENDBRANCH  18  10
TORSDOF 6
ENDMDL
MODEL 6
REMARK VINA RESULT:       4.1      2.269      3.937
REMARK  Name = 45783277
REMARK  8 active torsions:
REMARK  status: ('A' for Active; 'I' for Inactive)
REMARK    1  A    between atoms: O_2  and  C_27
REMARK    2  A    between atoms: O_2  and  C_28
REMARK    3  A    between atoms: N_3  and  C_9
REMARK    4  A    between atoms: N_4  and  C_19
REMARK    5  A    between atoms: N_8  and  C_26
REMARK    6  A    between atoms: C_10  and  C_18
REMARK    7  A    between atoms: C_20  and  C_21
REMARK    8  A    between atoms: C_26  and  C_27
REMARK                            x       y       z     vdW  Elec       q    Type
REMARK                         _______ _______ _______ _____ _____    ______ ____
ROOT
ATOM      1  O   UNL     1      -4.393  -0.593  24.492  0.00  0.00    -0.336 OA
ATOM      5  N   UNL     1      -2.554   0.331  25.378  0.00  0.00    -0.190 NA
ATOM      6  N   UNL     1      -3.357  -1.512  24.285  0.00  0.00    -0.056 NA
ATOM     18  C   UNL     1      -3.835   0.463  25.140  0.00  0.00    +0.245 A 
ATOM     20  C   UNL     1      -2.306  -0.897  24.836  0.00  0.00    +0.202 A 
ENDROOT
BRANCH  20  21
ATOM      7  N   UNL     1       1.560  -2.612  24.905  0.00  0.00    -0.240 NA
ATOM      8  N   UNL     1       2.336  -0.880  23.462  0.00  0.00    -0.327 N 
ATOM     21  C   UNL     1      -0.996  -1.479  24.858  0.00  0.00    +0.027 A 
ATOM     22  C   UNL     1       0.041  -0.891  24.142  0.00  0.00    +0.055 A 
ATOM     23  C   UNL     1      -0.756  -2.632  25.597  0.00  0.00    +0.031 A 
ATOM     24  C   UNL     1       1.290  -1.491  24.198  0.00  0.00    +0.119 A 
ATOM     25  C   UNL     1       0.527  -3.154  25.587  0.00  0.00    +0.113 A 
ATOM     29  H   UNL     1       3.245  -1.327  23.514  0.00  0.00    +0.148 HD
BRANCH   8  26
ATOM     26  C   UNL     1       2.144   0.302  22.687  0.00  0.00    +0.131 C 
BRANCH  26  27
ATOM     27  C   UNL     1       3.488   0.929  22.356  0.00  0.00    +0.178 C 
BRANCH  27   2
ATOM      2  O   UNL     1       4.320   0.906  23.509  0.00  0.00    -0.381 OA
ATOM     28  C   UNL     1       5.499   0.147  23.285  0.00  0.00    +0.194 C 
ENDBRANCH  27   2
ENDBRANCH  26  27
ENDBRANCH   8  26
ENDBRANCH  20  21
BRANCH  18  10
ATOM      3  N   UNL     1      -4.932   2.557  24.363  0.00  0.00    -0.288 NA
ATOM     10  C   UNL     1      -4.761   1.611  25.484  0.00  0.00    +0.146 C 
ATOM     11  C   UNL     1      -6.266   3.137  24.512  0.00  0.00    +0.085 C 
ATOM     14  C   UNL     1      -6.189   1.143  25.822  0.00  0.00    +0.030 C 
ATOM     15  C   UNL     1      -7.096   1.925  24.883  0.00  0.00    +0.017 C 
BRANCH   3   9
ATOM      4  N   UNL     1      -1.151   4.424  24.903  0.00  0.00    -0.305 NA
ATOM      9  C   UNL     1      -3.891   3.582  24.310  0.00  0.00    +0.060 C 
ATOM     12  C   UNL     1      -3.447   3.985  25.719  0.00  0.00    +0.034 C 
ATOM     13  C   UNL     1      -2.689   3.074  23.509  0.00  0.00    +0.034 C 
ATOM     16  C   UNL     1      -2.281   4.976  25.664  0.00  0.00    +0.085 C 
ATOM     17  C   UNL     1      -1.548   4.095  23.526  0.00  0.00    +0.085 C 
ATOM     19  C   UNL     1      -0.029   5.361  24.902  0.00  0.00    +0.104 C 
ENDBRANCH   3   9
ENDBRANCH  18  10
TORSDOF 6
ENDMDL
MODEL 7
REMARK VINA RESULT:       4.5      3.081      6.117
REMARK  Name = 45783277
REMARK  8 active torsions:
REMARK  status: ('A' for Active; 'I' for Inactive)
REMARK    1  A    between atoms: O_2  and  C_27
REMARK    2  A    between atoms: O_2  and  C_28
REMARK    3  A    between atoms: N_3  and  C_9
REMARK    4  A    between atoms: N_4  and  C_19
REMARK    5  A    between atoms: N_8  and  C_26
REMARK    6  A    between atoms: C_10  and  C_18
REMARK    7  A    between atoms: C_20  and  C_21
REMARK    8  A    between atoms: C_26  and  C_27
REMARK                            x       y       z     vdW  Elec       q    Type
REMARK                         _______ _______ _______ _____ _____    ______ ____
ROOT
ATOM      1  O   UNL     1       0.711   2.378  23.890  0.00  0.00    -0.336 OA
ATOM      5  N   UNL     1      -1.298   1.482  24.317  0.00  0.00    -0.190 NA
ATOM      6  N   UNL     1       0.929   1.009  24.088  0.00  0.00    -0.056 NA
ATOM     18  C   UNL     1      -0.626   2.572  24.043  0.00  0.00    +0.245 A 
ATOM     20  C   UNL     1      -0.302   0.549  24.334  0.00  0.00    +0.202 A 
ENDROOT
BRANCH  20  21
ATOM      7  N   UNL     1      -1.090  -3.531  25.122  0.00  0.00    -0.240 NA
ATOM      8  N   UNL     1      -3.190  -3.323  24.014  0.00  0.00    -0.327 N 
ATOM     21  C   UNL     1      -0.570  -0.834  24.602  0.00  0.00    +0.027 A 
ATOM     22  C   UNL     1      -1.761  -1.410  24.173  0.00  0.00    +0.055 A 
ATOM     23  C   UNL     1       0.360  -1.604  25.290  0.00  0.00    +0.031 A 
ATOM     24  C   UNL     1      -1.972  -2.751  24.456  0.00  0.00    +0.119 A 
ATOM     25  C   UNL     1       0.055  -2.936  25.522  0.00  0.00    +0.113 A 
ATOM     29  H   UNL     1      -3.330  -4.305  24.224  0.00  0.00    +0.148 HD
BRANCH   8  26
ATOM     26  C   UNL     1      -4.179  -2.577  23.306  0.00  0.00    +0.131 C 
BRANCH  26  27
ATOM     27  C   UNL     1      -4.982  -1.727  24.277  0.00  0.00    +0.178 C 
BRANCH  27   2
ATOM      2  O   UNL     1      -4.239  -0.563  24.613  0.00  0.00    -0.381 OA
ATOM     28  C   UNL     1      -3.935  -0.522  26.000  0.00  0.00    +0.194 C 
ENDBRANCH  27   2
ENDBRANCH  26  27
ENDBRANCH   8  26
ENDBRANCH  20  21
BRANCH  18  10
ATOM      3  N   UNL     1      -1.967   4.434  25.006  0.00  0.00    -0.288 NA
ATOM     10  C   UNL     1      -1.125   3.991  23.876  0.00  0.00    +0.146 C 
ATOM     11  C   UNL     1      -1.794   5.882  25.109  0.00  0.00    +0.085 C 
ATOM     14  C   UNL     1       0.018   5.021  23.813  0.00  0.00    +0.030 C 
ATOM     15  C   UNL     1      -0.300   6.034  24.904  0.00  0.00    +0.017 C 
BRANCH   3   9
ATOM      4  N   UNL     1      -5.466   2.020  25.022  0.00  0.00    -0.305 NA
ATOM      9  C   UNL     1      -3.372   4.058  24.859  0.00  0.00    +0.060 C 
ATOM     12  C   UNL     1      -3.540   2.972  23.793  0.00  0.00    +0.034 C 
ATOM     13  C   UNL     1      -3.932   3.567  26.197  0.00  0.00    +0.034 C 
ATOM     16  C   UNL     1      -4.994   2.499  23.716  0.00  0.00    +0.085 C 
ATOM     17  C   UNL     1      -5.373   3.075  26.041  0.00  0.00    +0.085 C 
ATOM     19  C   UNL     1      -6.839   1.526  24.920  0.00  0.00    +0.104 C 
ENDBRANCH   3   9
ENDBRANCH  18  10
TORSDOF 6
ENDMDL
MODEL 8
REMARK VINA RESULT:       4.6      2.457      6.696
REMARK  Name = 45783277
REMARK  8 active torsions:
REMARK  status: ('A' for Active; 'I' for Inactive)
REMARK    1  A    between atoms: O_2  and  C_27
REMARK    2  A    between atoms: O_2  and  C_28
REMARK    3  A    between atoms: N_3  and  C_9
REMARK    4  A    between atoms: N_4  and  C_19
REMARK    5  A    between atoms: N_8  and  C_26
REMARK    6  A    between atoms: C_10  and  C_18
REMARK    7  A    between atoms: C_20  and  C_21
REMARK    8  A    between atoms: C_26  and  C_27
REMARK                            x       y       z     vdW  Elec       q    Type
REMARK                         _______ _______ _______ _____ _____    ______ ____
ROOT
ATOM      1  O   UNL     1      -5.150  -0.424  24.331  0.00  0.00    -0.336 OA
ATOM      5  N   UNL     1      -3.398   0.943  24.615  0.00  0.00    -0.190 NA
ATOM      6  N   UNL     1      -5.683   0.831  24.650  0.00  0.00    -0.056 NA
ATOM     18  C   UNL     1      -3.800  -0.271  24.333  0.00  0.00    +0.245 A 
ATOM     20  C   UNL     1      -4.588   1.583  24.801  0.00  0.00    +0.202 A 
ENDROOT
BRANCH  20  21
ATOM      7  N   UNL     1      -4.771   5.689  25.800  0.00  0.00    -0.240 NA
ATOM      8  N   UNL     1      -2.431   5.878  25.386  0.00  0.00    -0.327 N 
ATOM     21  C   UNL     1      -4.650   2.975  25.142  0.00  0.00    +0.027 A 
ATOM     22  C   UNL     1      -3.500   3.755  25.098  0.00  0.00    +0.055 A 
ATOM     23  C   UNL     1      -5.860   3.550  25.513  0.00  0.00    +0.031 A 
ATOM     24  C   UNL     1      -3.612   5.096  25.434  0.00  0.00    +0.119 A 
ATOM     25  C   UNL     1      -5.867   4.899  25.830  0.00  0.00    +0.113 A 
ATOM     29  H   UNL     1      -2.528   6.857  25.630  0.00  0.00    +0.148 HD
BRANCH   8  26
ATOM     26  C   UNL     1      -1.165   5.338  25.012  0.00  0.00    +0.131 C 
BRANCH  26  27
ATOM     27  C   UNL     1      -1.239   3.821  24.970  0.00  0.00    +0.178 C 
BRANCH  27   2
ATOM      2  O   UNL     1      -0.009   3.273  25.427  0.00  0.00    -0.381 OA
ATOM     28  C   UNL     1      -0.214   2.330  26.468  0.00  0.00    +0.194 C 
ENDBRANCH  27   2
ENDBRANCH  26  27
ENDBRANCH   8  26
ENDBRANCH  20  21
BRANCH  18  10
ATOM      3  N   UNL     1      -1.921  -1.755  25.010  0.00  0.00    -0.288 NA
ATOM     10  C   UNL     1      -2.980  -1.503  24.013  0.00  0.00    +0.146 C 
ATOM     11  C   UNL     1      -1.706  -3.202  25.029  0.00  0.00    +0.085 C 
ATOM     14  C   UNL     1      -3.822  -2.792  24.002  0.00  0.00    +0.030 C 
ATOM     15  C   UNL     1      -3.125  -3.730  24.977  0.00  0.00    +0.017 C 
BRANCH   3   9
ATOM      4  N   UNL     1       1.470  -0.311  22.891  0.00  0.00    -0.305 NA
ATOM      9  C   UNL     1      -0.687  -1.020  24.738  0.00  0.00    +0.060 C 
ATOM     12  C   UNL     1       0.463  -1.980  24.417  0.00  0.00    +0.034 C 
ATOM     13  C   UNL     1      -0.895  -0.047  23.575  0.00  0.00    +0.034 C 
ATOM     16  C   UNL     1       1.727  -1.210  24.025  0.00  0.00    +0.085 C 
ATOM     17  C   UNL     1       0.413   0.660  23.211  0.00  0.00    +0.085 C 
ATOM     19  C   UNL     1       2.698   0.379  22.497  0.00  0.00    +0.104 C 
ENDBRANCH   3   9
ENDBRANCH  18  10
TORSDOF 6
ENDMDL
MODEL 9
REMARK VINA RESULT:       4.8      1.771      2.179
REMARK  Name = 45783277
REMARK  8 active torsions:
REMARK  status: ('A' for Active; 'I' for Inactive)
REMARK    1  A    between atoms: O_2  and  C_27
REMARK    2  A    between atoms: O_2  and  C_28
REMARK    3  A    between atoms: N_3  and  C_9
REMARK    4  A    between atoms: N_4  and  C_19
REMARK    5  A    between atoms: N_8  and  C_26
REMARK    6  A    between atoms: C_10  and  C_18
REMARK    7  A    between atoms: C_20  and  C_21
REMARK    8  A    between atoms: C_26  and  C_27
REMARK                            x       y       z     vdW  Elec       q    Type
REMARK                         _______ _______ _______ _____ _____    ______ ____
ROOT
ATOM      1  O   UNL     1      -1.265  -0.757  25.877  0.00  0.00    -0.336 OA
ATOM      5  N   UNL     1      -1.423   0.320  23.919  0.00  0.00    -0.190 NA
ATOM      6  N   UNL     1      -0.055  -0.982  25.210  0.00  0.00    -0.056 NA
ATOM     18  C   UNL     1      -2.014   0.017  25.048  0.00  0.00    +0.245 A 
ATOM     20  C   UNL     1      -0.224  -0.315  24.065  0.00  0.00    +0.202 A 
ENDROOT
BRANCH  20  21
ATOM      7  N   UNL     1       2.747  -0.172  21.058  0.00  0.00    -0.240 NA
ATOM      8  N   UNL     1       4.315   0.623  22.667  0.00  0.00    -0.327 N 
ATOM     21  C   UNL     1       0.783  -0.265  23.045  0.00  0.00    +0.027 A 
ATOM     22  C   UNL     1       2.070   0.159  23.356  0.00  0.00    +0.055 A 
ATOM     23  C   UNL     1       0.477  -0.643  21.743  0.00  0.00    +0.031 A 
ATOM     24  C   UNL     1       3.008   0.187  22.335  0.00  0.00    +0.119 A 
ATOM     25  C   UNL     1       1.485  -0.579  20.795  0.00  0.00    +0.113 A 
ATOM     29  H   UNL     1       4.992   0.636  21.912  0.00  0.00    +0.148 HD
BRANCH   8  26
ATOM     26  C   UNL     1       4.681   1.023  23.986  0.00  0.00    +0.131 C 
BRANCH  26  27
ATOM     27  C   UNL     1       5.696   0.049  24.560  0.00  0.00    +0.178 C 
BRANCH  27   2
ATOM      2  O   UNL     1       6.019  -0.931  23.582  0.00  0.00    -0.381 OA
ATOM     28  C   UNL     1       7.205  -0.593  22.878  0.00  0.00    +0.194 C 
ENDBRANCH  27   2
ENDBRANCH  26  27
ENDBRANCH   8  26
ENDBRANCH  20  21
BRANCH  18  10
ATOM      3  N   UNL     1      -4.060   1.380  24.662  0.00  0.00    -0.288 NA
ATOM     10  C   UNL     1      -3.390   0.405  25.547  0.00  0.00    +0.146 C 
ATOM     11  C   UNL     1      -5.496   1.142  24.798  0.00  0.00    +0.085 C 
ATOM     14  C   UNL     1      -4.358  -0.791  25.615  0.00  0.00    +0.030 C 
ATOM     15  C   UNL     1      -5.566  -0.372  24.790  0.00  0.00    +0.017 C 
BRANCH   3   9
ATOM      4  N   UNL     1      -1.791   4.974  24.753  0.00  0.00    -0.305 NA
ATOM      9  C   UNL     1      -3.702   2.766  24.957  0.00  0.00    +0.060 C 
ATOM     12  C   UNL     1      -2.437   2.834  25.817  0.00  0.00    +0.034 C 
ATOM     13  C   UNL     1      -3.492   3.546  23.657  0.00  0.00    +0.034 C 
ATOM     16  C   UNL     1      -1.999   4.285  26.035  0.00  0.00    +0.085 C 
ATOM     17  C   UNL     1      -3.019   4.974  23.945  0.00  0.00    +0.085 C 
ATOM     19  C   UNL     1      -1.326   6.342  24.977  0.00  0.00    +0.104 C 
ENDBRANCH   3   9
ENDBRANCH  18  10
TORSDOF 6
ENDMDL
MODEL 10
REMARK VINA RESULT:       5.5      2.103      3.529
REMARK  Name = 45783277
REMARK  8 active torsions:
REMARK  status: ('A' for Active; 'I' for Inactive)
REMARK    1  A    between atoms: O_2  and  C_27
REMARK    2  A    between atoms: O_2  and  C_28
REMARK    3  A    between atoms: N_3  and  C_9
REMARK    4  A    between atoms: N_4  and  C_19
REMARK    5  A    between atoms: N_8  and  C_26
REMARK    6  A    between atoms: C_10  and  C_18
REMARK    7  A    between atoms: C_20  and  C_21
REMARK    8  A    between atoms: C_26  and  C_27
REMARK                            x       y       z     vdW  Elec       q    Type
REMARK                         _______ _______ _______ _____ _____    ______ ____
ROOT
ATOM      1  O   UNL     1      -0.981  -2.638  25.172  0.00  0.00    -0.336 OA
ATOM      5  N   UNL     1      -1.304  -0.660  24.169  0.00  0.00    -0.190 NA
ATOM      6  N   UNL     1       0.293  -2.144  24.864  0.00  0.00    -0.056 NA
ATOM     18  C   UNL     1      -1.863  -1.704  24.729  0.00  0.00    +0.245 A 
ATOM     20  C   UNL     1       0.019  -0.976  24.276  0.00  0.00    +0.202 A 
ENDROOT
BRANCH  20  21
ATOM      7  N   UNL     1       3.043   1.601  22.823  0.00  0.00    -0.240 NA
ATOM      8  N   UNL     1       1.637   3.474  23.268  0.00  0.00    -0.327 N 
ATOM     21  C   UNL     1       1.044  -0.102  23.782  0.00  0.00    +0.027 A 
ATOM     22  C   UNL     1       0.839   1.273  23.765  0.00  0.00    +0.055 A 
ATOM     23  C   UNL     1       2.246  -0.626  23.320  0.00  0.00    +0.031 A 
ATOM     24  C   UNL     1       1.861   2.075  23.280  0.00  0.00    +0.119 A 
ATOM     25  C   UNL     1       3.204   0.260  22.856  0.00  0.00    +0.113 A 
ATOM     29  H   UNL     1       2.394   4.050  22.914  0.00  0.00    +0.148 HD
BRANCH   8  26
ATOM     26  C   UNL     1       0.423   4.064  23.728  0.00  0.00    +0.131 C 
BRANCH  26  27
ATOM     27  C   UNL     1      -0.163   3.232  24.856  0.00  0.00    +0.178 C 
BRANCH  27   2
ATOM      2  O   UNL     1      -0.977   4.056  25.680  0.00  0.00    -0.381 OA
ATOM     28  C   UNL     1      -1.365   5.245  25.007  0.00  0.00    +0.194 C 
ENDBRANCH  27   2
ENDBRANCH  26  27
ENDBRANCH   8  26
ENDBRANCH  20  21
BRANCH  18  10
ATOM      3  N   UNL     1      -4.216  -1.067  24.228  0.00  0.00    -0.288 NA
ATOM     10  C   UNL     1      -3.331  -2.006  24.946  0.00  0.00    +0.146 C 
ATOM     11  C   UNL     1      -5.440  -1.805  23.919  0.00  0.00    +0.085 C 
ATOM     14  C   UNL     1      -3.735  -3.399  24.428  0.00  0.00    +0.030 C 
ATOM     15  C   UNL     1      -4.892  -3.146  23.472  0.00  0.00    +0.017 C 
BRANCH   3   9
ATOM      4  N   UNL     1      -5.344   2.956  25.012  0.00  0.00    -0.305 NA
ATOM      9  C   UNL     1      -4.488   0.158  24.978  0.00  0.00    +0.060 C 
ATOM     12  C   UNL     1      -3.575   1.297  24.517  0.00  0.00    +0.034 C 
ATOM     13  C   UNL     1      -5.954   0.564  24.815  0.00  0.00    +0.034 C 
ATOM     16  C   UNL     1      -3.933   2.607  25.224  0.00  0.00    +0.085 C 
ATOM     17  C   UNL     1      -6.234   1.898  25.513  0.00  0.00    +0.085 C 
ATOM     19  C   UNL     1      -5.657   4.234  25.651  0.00  0.00    +0.104 C 
ENDBRANCH   3   9
ENDBRANCH  18  10
TORSDOF 6
ENDMDL
