MODEL 1
REMARK VINA RESULT:      -0.3      0.000      0.000
REMARK  Name = 45784327
REMARK  5 active torsions:
REMARK  status: ('A' for Active; 'I' for Inactive)
REMARK    1  A    between atoms: N_4  and  C_13
REMARK    2  A    between atoms: C_8  and  C_12
REMARK    3  A    between atoms: C_13  and  C_14
REMARK    4  A    between atoms: C_23  and  C_26
REMARK    5  A    between atoms: C_24  and  C_27
REMARK                            x       y       z     vdW  Elec       q    Type
REMARK                         _______ _______ _______ _____ _____    ______ ____
ROOT
ATOM      4  N   UNL     1      -3.305  -0.665  24.697  0.00  0.00    -0.297 NA
ATOM      8  C   UNL     1      -1.194  -1.296  23.894  0.00  0.00    +0.070 C 
ATOM      9  C   UNL     1      -1.414  -1.898  25.293  0.00  0.00    +0.028 C 
ATOM     10  C   UNL     1      -2.272  -0.212  23.764  0.00  0.00    +0.096 C 
ATOM     11  C   UNL     1      -2.574  -1.108  25.884  0.00  0.00    +0.085 C 
ENDROOT
BRANCH   8  12
ATOM      5  N   UNL     1       1.304  -1.534  23.916  0.00  0.00    -0.342 N 
ATOM      6  N   UNL     1       0.524   0.400  23.148  0.00  0.00    -0.232 NA
ATOM     12  C   UNL     1       0.201  -0.775  23.639  0.00  0.00    +0.113 A 
ATOM     15  C   UNL     1       2.412  -0.799  23.582  0.00  0.00    +0.067 A 
ATOM     16  C   UNL     1       1.899   0.404  23.106  0.00  0.00    +0.089 A 
ATOM     19  C   UNL     1       3.779  -1.075  23.653  0.00  0.00    +0.046 A 
ATOM     20  C   UNL     1       2.786   1.403  22.670  0.00  0.00    +0.031 A 
ATOM     24  C   UNL     1       4.647  -0.070  23.216  0.00  0.00    +0.054 A 
ATOM     25  C   UNL     1       4.162   1.147  22.733  0.00  0.00    +0.021 A 
ATOM     28  H   UNL     1       1.307  -2.471  24.299  0.00  0.00    +0.167 HD
BRANCH  24  27
ATOM      7  N   UNL     1       7.204  -0.478  23.302  0.00  0.00    -0.191 NA
ATOM     27  C   UNL     1       6.059  -0.295  23.264  0.00  0.00    +0.099 C 
ENDBRANCH  24  27
ENDBRANCH   8  12
BRANCH   4  13
ATOM     13  C   UNL     1      -4.277   0.376  24.999  0.00  0.00    +0.119 C 
BRANCH  13  14
ATOM     14  C   UNL     1      -3.655   1.747  24.980  0.00  0.00    -0.033 A 
ATOM     17  C   UNL     1      -2.473   1.984  25.683  0.00  0.00    +0.005 A 
ATOM     18  C   UNL     1      -4.257   2.778  24.259  0.00  0.00    +0.005 A 
ATOM     21  C   UNL     1      -1.895   3.254  25.666  0.00  0.00    +0.012 A 
ATOM     22  C   UNL     1      -3.680   4.048  24.243  0.00  0.00    +0.012 A 
ATOM     23  C   UNL     1      -2.499   4.286  24.945  0.00  0.00    +0.055 A 
BRANCH  23  26
ATOM      1  F   UNL     1      -0.514   5.619  24.891  0.00  0.00    -0.166 F 
ATOM      2  F   UNL     1      -2.204   6.385  26.022  0.00  0.00    -0.166 F 
ATOM      3  F   UNL     1      -2.249   6.396  23.848  0.00  0.00    -0.166 F 
ATOM     26  C   UNL     1      -1.878   5.642  24.925  0.00  0.00    +0.417 C 
ENDBRANCH  23  26
ENDBRANCH  13  14
ENDBRANCH   4  13
TORSDOF 5
ENDMDL
MODEL 2
REMARK VINA RESULT:       0.2      1.534      1.935
REMARK  Name = 45784327
REMARK  5 active torsions:
REMARK  status: ('A' for Active; 'I' for Inactive)
REMARK    1  A    between atoms: N_4  and  C_13
REMARK    2  A    between atoms: C_8  and  C_12
REMARK    3  A    between atoms: C_13  and  C_14
REMARK    4  A    between atoms: C_23  and  C_26
REMARK    5  A    between atoms: C_24  and  C_27
REMARK                            x       y       z     vdW  Elec       q    Type
REMARK                         _______ _______ _______ _____ _____    ______ ____
ROOT
ATOM      4  N   UNL     1      -3.208  -1.789  24.727  0.00  0.00    -0.297 NA
ATOM      8  C   UNL     1      -0.875  -2.020  24.691  0.00  0.00    +0.070 C 
ATOM      9  C   UNL     1      -1.330  -1.607  26.102  0.00  0.00    +0.028 C 
ATOM     10  C   UNL     1      -2.083  -1.727  23.792  0.00  0.00    +0.096 C 
ATOM     11  C   UNL     1      -2.747  -1.079  25.920  0.00  0.00    +0.085 C 
ENDROOT
BRANCH   8  12
ATOM      5  N   UNL     1       1.618  -1.925  24.415  0.00  0.00    -0.342 N 
ATOM      6  N   UNL     1       0.486  -0.206  23.577  0.00  0.00    -0.232 NA
ATOM     12  C   UNL     1       0.393  -1.352  24.212  0.00  0.00    +0.113 A 
ATOM     15  C   UNL     1       2.564  -1.092  23.875  0.00  0.00    +0.067 A 
ATOM     16  C   UNL     1       1.833  -0.027  23.358  0.00  0.00    +0.089 A 
ATOM     19  C   UNL     1       3.955  -1.177  23.796  0.00  0.00    +0.046 A 
ATOM     20  C   UNL     1       2.512   1.025  22.721  0.00  0.00    +0.031 A 
ATOM     24  C   UNL     1       4.614  -0.122  23.159  0.00  0.00    +0.054 A 
ATOM     25  C   UNL     1       3.909   0.961  22.631  0.00  0.00    +0.021 A 
ATOM     28  H   UNL     1       1.798  -2.805  24.881  0.00  0.00    +0.167 HD
BRANCH  24  27
ATOM      7  N   UNL     1       7.196  -0.178  22.955  0.00  0.00    -0.191 NA
ATOM     27  C   UNL     1       6.040  -0.153  23.047  0.00  0.00    +0.099 C 
ENDBRANCH  24  27
ENDBRANCH   8  12
BRANCH   4  13
ATOM     13  C   UNL     1      -4.424  -1.211  24.173  0.00  0.00    +0.119 C 
BRANCH  13  14
ATOM     14  C   UNL     1      -4.505   0.271  24.421  0.00  0.00    -0.033 A 
ATOM     17  C   UNL     1      -5.436   0.775  25.331  0.00  0.00    +0.005 A 
ATOM     18  C   UNL     1      -3.649   1.141  23.746  0.00  0.00    +0.005 A 
ATOM     21  C   UNL     1      -5.512   2.148  25.562  0.00  0.00    +0.012 A 
ATOM     22  C   UNL     1      -3.725   2.515  23.977  0.00  0.00    +0.012 A 
ATOM     23  C   UNL     1      -4.655   3.018  24.885  0.00  0.00    +0.055 A 
BRANCH  23  26
ATOM      1  F   UNL     1      -4.400   5.245  24.051  0.00  0.00    -0.166 F 
ATOM      2  F   UNL     1      -3.905   4.894  26.138  0.00  0.00    -0.166 F 
ATOM      3  F   UNL     1      -5.982   4.912  25.497  0.00  0.00    -0.166 F 
ATOM     26  C   UNL     1      -4.735   4.487  25.136  0.00  0.00    +0.417 C 
ENDBRANCH  23  26
ENDBRANCH  13  14
ENDBRANCH   4  13
TORSDOF 5
ENDMDL
MODEL 3
REMARK VINA RESULT:       2.5      1.368      2.229
REMARK  Name = 45784327
REMARK  5 active torsions:
REMARK  status: ('A' for Active; 'I' for Inactive)
REMARK    1  A    between atoms: N_4  and  C_13
REMARK    2  A    between atoms: C_8  and  C_12
REMARK    3  A    between atoms: C_13  and  C_14
REMARK    4  A    between atoms: C_23  and  C_26
REMARK    5  A    between atoms: C_24  and  C_27
REMARK                            x       y       z     vdW  Elec       q    Type
REMARK                         _______ _______ _______ _____ _____    ______ ____
ROOT
ATOM      4  N   UNL     1      -5.001   0.186  24.939  0.00  0.00    -0.297 NA
ATOM      8  C   UNL     1      -3.143  -1.155  24.440  0.00  0.00    +0.070 C 
ATOM      9  C   UNL     1      -3.595  -1.419  25.887  0.00  0.00    +0.028 C 
ATOM     10  C   UNL     1      -3.839   0.155  24.049  0.00  0.00    +0.096 C 
ATOM     11  C   UNL     1      -4.490  -0.238  26.242  0.00  0.00    +0.085 C 
ENDROOT
BRANCH   8  12
ATOM      5  N   UNL     1      -1.052  -0.093  23.546  0.00  0.00    -0.342 N 
ATOM      6  N   UNL     1      -0.768  -1.984  24.679  0.00  0.00    -0.232 NA
ATOM     12  C   UNL     1      -1.646  -1.110  24.241  0.00  0.00    +0.113 A 
ATOM     15  C   UNL     1       0.299  -0.327  23.535  0.00  0.00    +0.067 A 
ATOM     16  C   UNL     1       0.451  -1.512  24.249  0.00  0.00    +0.089 A 
ATOM     19  C   UNL     1       1.369   0.376  22.979  0.00  0.00    +0.046 A 
ATOM     20  C   UNL     1       1.739  -2.043  24.429  0.00  0.00    +0.031 A 
ATOM     24  C   UNL     1       2.644  -0.167  23.169  0.00  0.00    +0.054 A 
ATOM     25  C   UNL     1       2.828  -1.354  23.879  0.00  0.00    +0.021 A 
ATOM     28  H   UNL     1      -1.522   0.692  23.115  0.00  0.00    +0.167 HD
BRANCH  24  27
ATOM      7  N   UNL     1       4.702   1.058  22.180  0.00  0.00    -0.191 NA
ATOM     27  C   UNL     1       3.780   0.509  22.622  0.00  0.00    +0.099 C 
ENDBRANCH  24  27
ENDBRANCH   8  12
BRANCH   4  13
ATOM     13  C   UNL     1      -5.628   1.499  24.989  0.00  0.00    +0.119 C 
BRANCH  13  14
ATOM     14  C   UNL     1      -4.612   2.608  24.951  0.00  0.00    -0.033 A 
ATOM     17  C   UNL     1      -4.104   3.046  23.727  0.00  0.00    +0.005 A 
ATOM     18  C   UNL     1      -4.179   3.200  26.138  0.00  0.00    +0.005 A 
ATOM     21  C   UNL     1      -3.162   4.074  23.692  0.00  0.00    +0.012 A 
ATOM     22  C   UNL     1      -3.237   4.228  26.102  0.00  0.00    +0.012 A 
ATOM     23  C   UNL     1      -2.729   4.666  24.879  0.00  0.00    +0.055 A 
BRANCH  23  26
ATOM      1  F   UNL     1      -0.438   5.341  25.006  0.00  0.00    -0.166 F 
ATOM      2  F   UNL     1      -1.929   6.701  25.813  0.00  0.00    -0.166 F 
ATOM      3  F   UNL     1      -1.720   6.461  23.663  0.00  0.00    -0.166 F 
ATOM     26  C   UNL     1      -1.725   5.768  24.839  0.00  0.00    +0.417 C 
ENDBRANCH  23  26
ENDBRANCH  13  14
ENDBRANCH   4  13
TORSDOF 5
ENDMDL
MODEL 4
REMARK VINA RESULT:       2.5      3.737      5.066
REMARK  Name = 45784327
REMARK  5 active torsions:
REMARK  status: ('A' for Active; 'I' for Inactive)
REMARK    1  A    between atoms: N_4  and  C_13
REMARK    2  A    between atoms: C_8  and  C_12
REMARK    3  A    between atoms: C_13  and  C_14
REMARK    4  A    between atoms: C_23  and  C_26
REMARK    5  A    between atoms: C_24  and  C_27
REMARK                            x       y       z     vdW  Elec       q    Type
REMARK                         _______ _______ _______ _____ _____    ______ ____
ROOT
ATOM      4  N   UNL     1      -3.217   2.986  25.287  0.00  0.00    -0.297 NA
ATOM      8  C   UNL     1      -0.926   3.001  24.788  0.00  0.00    +0.070 C 
ATOM      9  C   UNL     1      -1.671   3.934  23.817  0.00  0.00    +0.028 C 
ATOM     10  C   UNL     1      -2.028   2.144  25.424  0.00  0.00    +0.096 C 
ATOM     11  C   UNL     1      -3.136   3.536  23.934  0.00  0.00    +0.085 C 
ENDROOT
BRANCH   8  12
ATOM      5  N   UNL     1       1.485   2.367  24.496  0.00  0.00    -0.342 N 
ATOM      6  N   UNL     1       0.030   1.228  23.262  0.00  0.00    -0.232 NA
ATOM     12  C   UNL     1       0.173   2.177  24.159  0.00  0.00    +0.113 A 
ATOM     15  C   UNL     1       2.236   1.482  23.768  0.00  0.00    +0.067 A 
ATOM     16  C   UNL     1       1.306   0.782  23.005  0.00  0.00    +0.089 A 
ATOM     19  C   UNL     1       3.610   1.240  23.713  0.00  0.00    +0.046 A 
ATOM     20  C   UNL     1       1.753  -0.222  22.130  0.00  0.00    +0.031 A 
ATOM     24  C   UNL     1       4.037   0.237  22.837  0.00  0.00    +0.054 A 
ATOM     25  C   UNL     1       3.128  -0.482  22.058  0.00  0.00    +0.021 A 
ATOM     28  H   UNL     1       1.840   3.040  25.163  0.00  0.00    +0.167 HD
BRANCH  24  27
ATOM      7  N   UNL     1       6.566  -0.293  22.655  0.00  0.00    -0.191 NA
ATOM     27  C   UNL     1       5.434  -0.056  22.737  0.00  0.00    +0.099 C 
ENDBRANCH  24  27
ENDBRANCH   8  12
BRANCH   4  13
ATOM     13  C   UNL     1      -4.451   2.247  25.513  0.00  0.00    +0.119 C 
BRANCH  13  14
ATOM     14  C   UNL     1      -4.300   0.787  25.182  0.00  0.00    -0.033 A 
ATOM     17  C   UNL     1      -4.560   0.336  23.887  0.00  0.00    +0.005 A 
ATOM     18  C   UNL     1      -3.897  -0.115  26.167  0.00  0.00    +0.005 A 
ATOM     21  C   UNL     1      -4.420  -1.017  23.579  0.00  0.00    +0.012 A 
ATOM     22  C   UNL     1      -3.757  -1.468  25.859  0.00  0.00    +0.012 A 
ATOM     23  C   UNL     1      -4.017  -1.919  24.565  0.00  0.00    +0.055 A 
BRANCH  23  26
ATOM      1  F   UNL     1      -4.870  -3.857  23.451  0.00  0.00    -0.166 F 
ATOM      2  F   UNL     1      -3.843  -4.160  25.343  0.00  0.00    -0.166 F 
ATOM      3  F   UNL     1      -2.713  -3.652  23.556  0.00  0.00    -0.166 F 
ATOM     26  C   UNL     1      -3.864  -3.366  24.234  0.00  0.00    +0.417 C 
ENDBRANCH  23  26
ENDBRANCH  13  14
ENDBRANCH   4  13
TORSDOF 5
ENDMDL
