MODEL 1
REMARK VINA RESULT:       9.3      0.000      0.000
REMARK  Name = 11913096
REMARK  8 active torsions:
REMARK  status: ('A' for Active; 'I' for Inactive)
REMARK    1  A    between atoms: O_3  and  C_13
REMARK    2  A    between atoms: O_3  and  C_17
REMARK    3  A    between atoms: O_5  and  C_32
REMARK    4  A    between atoms: O_5  and  C_39
REMARK    5  A    between atoms: N_6  and  C_12
REMARK    6  A    between atoms: N_9  and  C_21
REMARK    7  A    between atoms: C_18  and  C_22
REMARK    8  A    between atoms: C_29  and  C_33
REMARK                            x       y       z     vdW  Elec       q    Type
REMARK                         _______ _______ _______ _____ _____    ______ ____
ROOT
ATOM      1  O   UNL     1      -2.524   1.795  25.024  0.00  0.00    -0.368 OA
ATOM      2  O   UNL     1      -4.359   4.110  24.194  0.00  0.00    -0.368 OA
ATOM     10  C   UNL     1      -4.458   2.687  23.980  0.00  0.00    +0.173 C 
ATOM     11  C   UNL     1      -3.049   2.180  23.743  0.00  0.00    +0.192 C 
ATOM     12  C   UNL     1      -4.885   2.000  25.256  0.00  0.00    +0.130 C 
ATOM     13  C   UNL     1      -2.348   3.401  23.196  0.00  0.00    +0.235 C 
ATOM     14  C   UNL     1      -3.571   1.866  26.006  0.00  0.00    +0.185 C 
ATOM     15  C   UNL     1      -3.000   4.518  23.981  0.00  0.00    +0.207 C 
ENDROOT
BRANCH  12   6
ATOM      6  N   UNL     1      -5.431   0.692  24.962  0.00  0.00    -0.306 N 
ATOM      7  N   UNL     1      -3.340  -0.166  24.429  0.00  0.00    -0.214 NA
ATOM      8  N   UNL     1      -5.319  -1.536  24.318  0.00  0.00    -0.223 NA
ATOM     16  C   UNL     1      -4.663  -0.384  24.552  0.00  0.00    +0.216 A 
ATOM     18  C   UNL     1      -2.622  -1.236  24.026  0.00  0.00    +0.076 A 
ATOM     19  C   UNL     1      -4.541  -2.564  23.920  0.00  0.00    +0.116 A 
ATOM     20  C   UNL     1      -3.174  -2.471  23.756  0.00  0.00    +0.048 A 
ATOM     40  H   UNL     1      -6.420   0.521  25.107  0.00  0.00    +0.149 HD
BRANCH  18  22
ATOM     22  C   UNL     1      -1.203  -1.006  23.894  0.00  0.00    +0.001 A 
ATOM     25  C   UNL     1      -0.314  -1.624  24.774  0.00  0.00    +0.010 A 
ATOM     26  C   UNL     1      -0.722  -0.169  22.889  0.00  0.00    +0.010 A 
ATOM     27  C   UNL     1       1.058  -1.403  24.647  0.00  0.00    +0.009 A 
ATOM     28  C   UNL     1       0.650   0.051  22.762  0.00  0.00    +0.009 A 
ATOM     29  C   UNL     1       1.540  -0.566  23.641  0.00  0.00    -0.018 A 
BRANCH  29  33
ATOM     33  C   UNL     1       2.963  -0.337  23.509  0.00  0.00    -0.018 A 
ATOM     34  C   UNL     1       3.867  -1.316  23.920  0.00  0.00    +0.008 A 
ATOM     35  C   UNL     1       3.429   0.862  22.972  0.00  0.00    +0.008 A 
ATOM     36  C   UNL     1       5.239  -1.095  23.794  0.00  0.00    +0.001 A 
ATOM     37  C   UNL     1       4.800   1.082  22.844  0.00  0.00    +0.001 A 
ATOM     38  C   UNL     1       5.706   0.104  23.255  0.00  0.00    +0.000 A 
ENDBRANCH  29  33
ENDBRANCH  18  22
ENDBRANCH  12   6
BRANCH  13   3
ATOM      3  O   UNL     1      -0.950   3.374  23.373  0.00  0.00    -0.442 OA
BRANCH   3  17
ATOM      4  O   UNL     1      -0.422   4.924  24.968  0.00  0.00    -0.226 OA
ATOM      9  N   UNL     1      -0.081   2.635  25.318  0.00  0.00    -0.251 N 
ATOM     17  C   UNL     1      -0.471   3.754  24.609  0.00  0.00    +0.405 C 
ATOM     41  H   UNL     1      -0.199   1.741  24.848  0.00  0.00    +0.158 HD
BRANCH   9  21
ATOM     21  C   UNL     1       0.464   2.576  26.621  0.00  0.00    +0.037 A 
ATOM     23  C   UNL     1       1.742   3.080  26.865  0.00  0.00    +0.027 A 
ATOM     24  C   UNL     1      -0.276   2.015  27.662  0.00  0.00    +0.027 A 
ATOM     30  C   UNL     1       2.279   3.022  28.152  0.00  0.00    +0.047 A 
ATOM     31  C   UNL     1       0.262   1.958  28.948  0.00  0.00    +0.047 A 
ATOM     32  C   UNL     1       1.540   2.461  29.192  0.00  0.00    +0.120 A 
BRANCH  32   5
ATOM      5  O   UNL     1       2.064   2.406  30.447  0.00  0.00    -0.495 OA
ATOM     39  C   UNL     1       1.176   2.053  31.507  0.00  0.00    +0.277 C 
ENDBRANCH  32   5
ENDBRANCH   9  21
ENDBRANCH   3  17
ENDBRANCH  13   3
TORSDOF 7
ENDMDL
