MODEL 1
REMARK VINA RESULT:      -0.8      0.000      0.000
REMARK  Name = 25313098
REMARK  8 active torsions:
REMARK  status: ('A' for Active; 'I' for Inactive)
REMARK    1  A    between atoms: O_2  and  C_24
REMARK    2  A    between atoms: N_5  and  C_19
REMARK    3  A    between atoms: N_6  and  C_25
REMARK    4  A    between atoms: C_7  and  C_11
REMARK    5  A    between atoms: C_8  and  C_17
REMARK    6  A    between atoms: C_11  and  C_19
REMARK    7  A    between atoms: C_13  and  C_16
REMARK    8  A    between atoms: C_17  and  C_24
REMARK                            x       y       z     vdW  Elec       q    Type
REMARK                         _______ _______ _______ _____ _____    ______ ____
ROOT
ATOM      1  O   UNL     1      -6.185   4.217  25.674  0.00  0.00    -0.275 OA
ATOM      4  N   UNL     1      -4.697   2.440  25.743  0.00  0.00    -0.301 N 
ATOM      7  C   UNL     1      -3.254   0.762  24.619  0.00  0.00    +0.011 C 
ATOM      8  C   UNL     1      -4.336  -0.309  24.912  0.00  0.00    +0.006 C 
ATOM      9  C   UNL     1      -3.340   1.891  25.662  0.00  0.00    +0.111 C 
ATOM     10  C   UNL     1      -5.734   0.319  25.038  0.00  0.00    +0.023 C 
ATOM     12  C   UNL     1      -5.740   1.462  26.049  0.00  0.00    +0.108 C 
ATOM     16  C   UNL     1      -5.024   3.794  25.573  0.00  0.00    +0.219 C 
ENDROOT
BRANCH  16  13
ATOM     13  C   UNL     1      -3.870   4.758  25.251  0.00  0.00    +0.075 C 
ATOM     14  C   UNL     1      -2.503   4.471  25.907  0.00  0.00    +0.013 C 
ATOM     15  C   UNL     1      -3.165   4.592  23.889  0.00  0.00    +0.013 C 
ATOM     18  C   UNL     1      -1.856   4.988  24.605  0.00  0.00    +0.001 C 
ENDBRANCH  16  13
BRANCH   7  11
ATOM     11  C   UNL     1      -3.319   1.342  23.200  0.00  0.00    +0.020 C 
BRANCH  11  19
ATOM     19  C   UNL     1      -2.061   2.138  22.882  0.00  0.00    +0.085 C 
BRANCH  19   5
ATOM      5  N   UNL     1      -0.882   1.411  23.351  0.00  0.00    -0.299 NA
ATOM      6  N   UNL     1       1.852   0.582  23.327  0.00  0.00    -0.327 N 
ATOM     20  C   UNL     1       0.183   2.348  23.733  0.00  0.00    +0.103 C 
ATOM     21  C   UNL     1      -0.393   0.496  22.312  0.00  0.00    +0.103 C 
ATOM     22  C   UNL     1       1.402   1.601  24.280  0.00  0.00    +0.120 C 
ATOM     23  C   UNL     1       0.807  -0.312  22.812  0.00  0.00    +0.120 C 
BRANCH   6  25
ATOM     25  C   UNL     1       3.159   0.090  23.403  0.00  0.00    +0.030 A 
ATOM     26  C   UNL     1       4.236   0.921  23.095  0.00  0.00    +0.023 A 
ATOM     27  C   UNL     1       3.386  -1.231  23.788  0.00  0.00    +0.023 A 
ATOM     28  C   UNL     1       5.540   0.430  23.173  0.00  0.00    +0.002 A 
ATOM     29  C   UNL     1       4.689  -1.722  23.868  0.00  0.00    +0.002 A 
ATOM     30  C   UNL     1       5.767  -0.891  23.560  0.00  0.00    +0.000 A 
ENDBRANCH   6  25
ENDBRANCH  19   5
ENDBRANCH  11  19
ENDBRANCH   7  11
BRANCH   8  17
ATOM     17  C   UNL     1      -4.346  -1.447  23.891  0.00  0.00    +0.124 C 
BRANCH  17  24
ATOM      3  O   UNL     1      -2.061  -2.218  24.246  0.00  0.00    -0.251 OA
ATOM     24  C   UNL     1      -3.259  -2.449  24.166  0.00  0.00    +0.305 C 
BRANCH  24   2
ATOM      2  O   UNL     1      -3.801  -3.683  24.317  0.00  0.00    -0.481 OA
ATOM     31  H   UNL     1      -4.681  -3.752  23.888  0.00  0.00    +0.295 HD
ENDBRANCH  24   2
ENDBRANCH  17  24
ENDBRANCH   8  17
TORSDOF 8
ENDMDL
MODEL 2
REMARK VINA RESULT:      -0.5      1.629      4.369
REMARK  Name = 25313098
REMARK  8 active torsions:
REMARK  status: ('A' for Active; 'I' for Inactive)
REMARK    1  A    between atoms: O_2  and  C_24
REMARK    2  A    between atoms: N_5  and  C_19
REMARK    3  A    between atoms: N_6  and  C_25
REMARK    4  A    between atoms: C_7  and  C_11
REMARK    5  A    between atoms: C_8  and  C_17
REMARK    6  A    between atoms: C_11  and  C_19
REMARK    7  A    between atoms: C_13  and  C_16
REMARK    8  A    between atoms: C_17  and  C_24
REMARK                            x       y       z     vdW  Elec       q    Type
REMARK                         _______ _______ _______ _____ _____    ______ ____
ROOT
ATOM      1  O   UNL     1      -4.272  -0.857  26.549  0.00  0.00    -0.275 OA
ATOM      4  N   UNL     1      -4.584   0.833  24.993  0.00  0.00    -0.301 N 
ATOM      7  C   UNL     1      -3.712   2.666  23.562  0.00  0.00    +0.011 C 
ATOM      8  C   UNL     1      -4.286   3.684  24.581  0.00  0.00    +0.006 C 
ATOM      9  C   UNL     1      -4.516   1.355  23.623  0.00  0.00    +0.111 C 
ATOM     10  C   UNL     1      -4.386   3.078  25.991  0.00  0.00    +0.023 C 
ATOM     12  C   UNL     1      -5.150   1.756  25.975  0.00  0.00    +0.108 C 
ATOM     16  C   UNL     1      -4.174  -0.451  25.381  0.00  0.00    +0.219 C 
ENDROOT
BRANCH  16  13
ATOM     13  C   UNL     1      -3.587  -1.359  24.288  0.00  0.00    +0.075 C 
ATOM     14  C   UNL     1      -2.369  -2.227  24.667  0.00  0.00    +0.013 C 
ATOM     15  C   UNL     1      -4.333  -2.674  23.981  0.00  0.00    +0.013 C 
ATOM     18  C   UNL     1      -2.948  -3.310  23.734  0.00  0.00    +0.001 C 
ENDBRANCH  16  13
BRANCH   7  11
ATOM     11  C   UNL     1      -2.215   2.382  23.741  0.00  0.00    +0.020 C 
BRANCH  11  19
ATOM     19  C   UNL     1      -1.836   1.052  23.105  0.00  0.00    +0.085 C 
BRANCH  19   5
ATOM      5  N   UNL     1      -0.395   1.014  22.857  0.00  0.00    -0.299 NA
ATOM      6  N   UNL     1       2.303   0.180  23.283  0.00  0.00    -0.327 N 
ATOM     20  C   UNL     1       0.030  -0.344  22.494  0.00  0.00    +0.103 C 
ATOM     21  C   UNL     1       0.344   1.468  24.042  0.00  0.00    +0.103 C 
ATOM     22  C   UNL     1       1.526  -0.385  22.176  0.00  0.00    +0.120 C 
ATOM     23  C   UNL     1       1.851   1.487  23.775  0.00  0.00    +0.120 C 
BRANCH   6  25
ATOM     25  C   UNL     1       3.661  -0.137  23.412  0.00  0.00    +0.030 A 
ATOM     26  C   UNL     1       4.631   0.818  23.108  0.00  0.00    +0.023 A 
ATOM     27  C   UNL     1       4.043  -1.406  23.846  0.00  0.00    +0.023 A 
ATOM     28  C   UNL     1       5.984   0.503  23.239  0.00  0.00    +0.002 A 
ATOM     29  C   UNL     1       5.396  -1.721  23.978  0.00  0.00    +0.002 A 
ATOM     30  C   UNL     1       6.366  -0.766  23.674  0.00  0.00    +0.000 A 
ENDBRANCH   6  25
ENDBRANCH  19   5
ENDBRANCH  11  19
ENDBRANCH   7  11
BRANCH   8  17
ATOM     17  C   UNL     1      -3.513   5.002  24.614  0.00  0.00    +0.124 C 
BRANCH  17  24
ATOM      3  O   UNL     1      -2.081   4.182  26.407  0.00  0.00    -0.251 OA
ATOM     24  C   UNL     1      -2.252   4.886  25.423  0.00  0.00    +0.305 C 
BRANCH  24   2
ATOM      2  O   UNL     1      -1.295   5.693  24.898  0.00  0.00    -0.481 OA
ATOM     31  H   UNL     1      -1.528   5.997  23.994  0.00  0.00    +0.295 HD
ENDBRANCH  24   2
ENDBRANCH  17  24
ENDBRANCH   8  17
TORSDOF 8
ENDMDL
MODEL 3
REMARK VINA RESULT:       0.1     17.470     20.585
REMARK  Name = 25313098
REMARK  8 active torsions:
REMARK  status: ('A' for Active; 'I' for Inactive)
REMARK    1  A    between atoms: O_2  and  C_24
REMARK    2  A    between atoms: N_5  and  C_19
REMARK    3  A    between atoms: N_6  and  C_25
REMARK    4  A    between atoms: C_7  and  C_11
REMARK    5  A    between atoms: C_8  and  C_17
REMARK    6  A    between atoms: C_11  and  C_19
REMARK    7  A    between atoms: C_13  and  C_16
REMARK    8  A    between atoms: C_17  and  C_24
REMARK                            x       y       z     vdW  Elec       q    Type
REMARK                         _______ _______ _______ _____ _____    ______ ____
ROOT
ATOM      1  O   UNL     1      14.255  -8.649  26.555  0.00  0.00    -0.275 OA
ATOM      4  N   UNL     1      15.812  -7.411  27.746  0.00  0.00    -0.301 N 
ATOM      7  C   UNL     1      17.227  -7.041  29.752  0.00  0.00    +0.011 C 
ATOM      8  C   UNL     1      16.214  -5.965  30.222  0.00  0.00    +0.006 C 
ATOM      9  C   UNL     1      17.179  -7.170  28.219  0.00  0.00    +0.111 C 
ATOM     10  C   UNL     1      14.807  -6.231  29.661  0.00  0.00    +0.023 C 
ATOM     12  C   UNL     1      14.836  -6.399  28.145  0.00  0.00    +0.108 C 
ATOM     16  C   UNL     1      15.421  -8.499  26.951  0.00  0.00    +0.219 C 
ENDROOT
BRANCH  16  13
ATOM     13  C   UNL     1      16.507  -9.520  26.578  0.00  0.00    +0.075 C 
ATOM     14  C   UNL     1      16.060 -10.781  25.809  0.00  0.00    +0.013 C 
ATOM     15  C   UNL     1      17.405  -9.192  25.367  0.00  0.00    +0.013 C 
ATOM     18  C   UNL     1      17.405 -10.705  25.056  0.00  0.00    +0.001 C 
ENDBRANCH  16  13
BRANCH   7  11
ATOM     11  C   UNL     1      17.028  -8.413  30.409  0.00  0.00    +0.020 C 
BRANCH  11  19
ATOM     19  C   UNL     1      16.172  -9.315  29.532  0.00  0.00    +0.085 C 
BRANCH  19   5
ATOM      5  N   UNL     1      14.986  -9.746  30.272  0.00  0.00    -0.299 NA
ATOM      6  N   UNL     1      12.300  -9.568  31.224  0.00  0.00    -0.327 N 
ATOM     20  C   UNL     1      13.858  -9.959  29.357  0.00  0.00    +0.103 C 
ATOM     21  C   UNL     1      14.624  -8.751  31.289  0.00  0.00    +0.103 C 
ATOM     22  C   UNL     1      12.626 -10.466  30.112  0.00  0.00    +0.120 C 
ATOM     23  C   UNL     1      13.418  -9.218  32.108  0.00  0.00    +0.120 C 
BRANCH   6  25
ATOM     25  C   UNL     1      11.010  -9.578  31.769  0.00  0.00    +0.030 A 
ATOM     26  C   UNL     1      10.287 -10.770  31.827  0.00  0.00    +0.023 A 
ATOM     27  C   UNL     1      10.450  -8.398  32.256  0.00  0.00    +0.023 A 
ATOM     28  C   UNL     1       9.003 -10.780  32.372  0.00  0.00    +0.002 A 
ATOM     29  C   UNL     1       9.166  -8.408  32.803  0.00  0.00    +0.002 A 
ATOM     30  C   UNL     1       8.443  -9.599  32.860  0.00  0.00    +0.000 A 
ENDBRANCH   6  25
ENDBRANCH  19   5
ENDBRANCH  11  19
ENDBRANCH   7  11
BRANCH   8  17
ATOM     17  C   UNL     1      16.168  -5.806  31.741  0.00  0.00    +0.124 C 
BRANCH  17  24
ATOM      3  O   UNL     1      14.802  -3.889  32.374  0.00  0.00    -0.251 OA
ATOM     24  C   UNL     1      15.896  -4.383  32.143  0.00  0.00    +0.305 C 
BRANCH  24   2
ATOM      2  O   UNL     1      17.064  -3.696  32.217  0.00  0.00    -0.481 OA
ATOM     31  H   UNL     1      17.648  -3.883  31.450  0.00  0.00    +0.295 HD
ENDBRANCH  24   2
ENDBRANCH  17  24
ENDBRANCH   8  17
TORSDOF 8
ENDMDL
MODEL 4
REMARK VINA RESULT:       3.2      1.330      1.946
REMARK  Name = 25313098
REMARK  8 active torsions:
REMARK  status: ('A' for Active; 'I' for Inactive)
REMARK    1  A    between atoms: O_2  and  C_24
REMARK    2  A    between atoms: N_5  and  C_19
REMARK    3  A    between atoms: N_6  and  C_25
REMARK    4  A    between atoms: C_7  and  C_11
REMARK    5  A    between atoms: C_8  and  C_17
REMARK    6  A    between atoms: C_11  and  C_19
REMARK    7  A    between atoms: C_13  and  C_16
REMARK    8  A    between atoms: C_17  and  C_24
REMARK                            x       y       z     vdW  Elec       q    Type
REMARK                         _______ _______ _______ _____ _____    ______ ____
ROOT
ATOM      1  O   UNL     1      -4.281   3.133  23.018  0.00  0.00    -0.275 OA
ATOM      4  N   UNL     1      -4.310   1.664  24.812  0.00  0.00    -0.301 N 
ATOM      7  C   UNL     1      -3.230  -0.060  26.234  0.00  0.00    +0.011 C 
ATOM      8  C   UNL     1      -4.084  -1.135  25.515  0.00  0.00    +0.006 C 
ATOM      9  C   UNL     1      -3.951   1.299  26.186  0.00  0.00    +0.111 C 
ATOM     10  C   UNL     1      -4.479  -0.688  24.097  0.00  0.00    +0.023 C 
ATOM     12  C   UNL     1      -5.143   0.686  24.113  0.00  0.00    +0.108 C 
ATOM     16  C   UNL     1      -3.933   2.857  24.176  0.00  0.00    +0.219 C 
ENDROOT
BRANCH  16  13
ATOM     13  C   UNL     1      -3.054   3.830  24.978  0.00  0.00    +0.075 C 
ATOM     14  C   UNL     1      -1.528   3.735  24.779  0.00  0.00    +0.013 C 
ATOM     15  C   UNL     1      -2.955   5.282  24.468  0.00  0.00    +0.013 C 
ATOM     18  C   UNL     1      -1.488   5.268  24.949  0.00  0.00    +0.001 C 
ENDBRANCH  16  13
BRANCH   7  11
ATOM     11  C   UNL     1      -1.803   0.073  25.684  0.00  0.00    +0.020 C 
BRANCH  11  19
ATOM     19  C   UNL     1      -1.820   0.621  24.264  0.00  0.00    +0.085 C 
BRANCH  19   5
ATOM      5  N   UNL     1      -0.497   0.470  23.659  0.00  0.00    -0.299 NA
ATOM      6  N   UNL     1       2.315  -0.033  23.629  0.00  0.00    -0.327 N 
ATOM     20  C   UNL     1       0.018  -0.887  23.877  0.00  0.00    +0.103 C 
ATOM     21  C   UNL     1       0.439   1.455  24.217  0.00  0.00    +0.103 C 
ATOM     22  C   UNL     1       1.378  -1.075  23.200  0.00  0.00    +0.120 C 
ATOM     23  C   UNL     1       1.813   1.345  23.550  0.00  0.00    +0.120 C 
BRANCH   6  25
ATOM     25  C   UNL     1       3.692  -0.239  23.494  0.00  0.00    +0.030 A 
ATOM     26  C   UNL     1       4.256  -1.457  23.875  0.00  0.00    +0.023 A 
ATOM     27  C   UNL     1       4.501   0.773  22.976  0.00  0.00    +0.023 A 
ATOM     28  C   UNL     1       5.629  -1.663  23.737  0.00  0.00    +0.002 A 
ATOM     29  C   UNL     1       5.874   0.566  22.837  0.00  0.00    +0.002 A 
ATOM     30  C   UNL     1       6.438  -0.652  23.218  0.00  0.00    +0.000 A 
ENDBRANCH   6  25
ENDBRANCH  19   5
ENDBRANCH  11  19
ENDBRANCH   7  11
BRANCH   8  17
ATOM     17  C   UNL     1      -3.416  -2.509  25.480  0.00  0.00    +0.124 C 
BRANCH  17  24
ATOM      3  O   UNL     1      -2.072  -2.938  23.492  0.00  0.00    -0.251 OA
ATOM     24  C   UNL     1      -3.148  -2.961  24.071  0.00  0.00    +0.305 C 
BRANCH  24   2
ATOM      2  O   UNL     1      -4.297  -3.414  23.509  0.00  0.00    -0.481 OA
ATOM     31  H   UNL     1      -4.481  -2.977  22.650  0.00  0.00    +0.295 HD
ENDBRANCH  24   2
ENDBRANCH  17  24
ENDBRANCH   8  17
TORSDOF 8
ENDMDL
