MODEL 1
REMARK VINA RESULT:      -1.5      0.000      0.000
REMARK  Name = 25338452
REMARK  6 active torsions:
REMARK  status: ('A' for Active; 'I' for Inactive)
REMARK    1  A    between atoms: N_3  and  C_14
REMARK    2  A    between atoms: N_4  and  C_9
REMARK    3  A    between atoms: N_6  and  C_17
REMARK    4  A    between atoms: C_10  and  C_13
REMARK    5  A    between atoms: C_16  and  C_18
REMARK    6  A    between atoms: C_17  and  C_19
REMARK                            x       y       z     vdW  Elec       q    Type
REMARK                         _______ _______ _______ _____ _____    ______ ____
ROOT
ATOM      3  N   UNL     1      -2.476  -1.944  25.011  0.00  0.00    -0.293 NA
ATOM      9  C   UNL     1      -4.421  -0.859  24.322  0.00  0.00    +0.090 C 
ATOM     10  C   UNL     1      -2.149  -1.462  23.656  0.00  0.00    +0.147 C 
ATOM     11  C   UNL     1      -3.366  -0.611  23.243  0.00  0.00    +0.052 C 
ATOM     12  C   UNL     1      -3.933  -2.109  25.037  0.00  0.00    +0.107 C 
ATOM     14  C   UNL     1      -1.782  -3.176  25.364  0.00  0.00    +0.105 C 
ENDROOT
BRANCH   9   4
ATOM      2  O   UNL     1      -3.912   1.918  23.727  0.00  0.00    -0.253 OA
ATOM      4  N   UNL     1      -4.525   0.259  25.229  0.00  0.00    -0.295 N 
ATOM      6  N   UNL     1      -4.438   2.448  25.924  0.00  0.00    -0.295 N 
ATOM     15  C   UNL     1      -4.259   1.573  24.855  0.00  0.00    +0.300 C 
ATOM     29  H   UNL     1      -4.735   0.070  26.205  0.00  0.00    +0.151 HD
ATOM     30  H   UNL     1      -4.705   2.069  26.826  0.00  0.00    +0.151 HD
BRANCH   6  17
ATOM     17  C   UNL     1      -4.229   3.873  25.811  0.00  0.00    +0.141 C 
BRANCH  17  19
ATOM     19  C   UNL     1      -2.795   4.209  25.518  0.00  0.00    -0.030 A 
ATOM     22  C   UNL     1      -2.473   5.423  24.912  0.00  0.00    +0.005 A 
ATOM     23  C   UNL     1      -1.785   3.306  25.851  0.00  0.00    +0.005 A 
ATOM     26  C   UNL     1      -1.140   5.736  24.640  0.00  0.00    +0.000 A 
ATOM     27  C   UNL     1      -0.453   3.618  25.579  0.00  0.00    +0.000 A 
ATOM     28  C   UNL     1      -0.131   4.833  24.973  0.00  0.00    +0.000 A 
ENDBRANCH  17  19
ENDBRANCH   6  17
ENDBRANCH   9   4
BRANCH  10  13
ATOM      1  O   UNL     1      -0.944   0.664  23.689  0.00  0.00    -0.336 OA
ATOM      5  N   UNL     1       0.375  -1.130  23.446  0.00  0.00    -0.190 NA
ATOM      7  N   UNL     1       0.366   1.152  23.601  0.00  0.00    -0.056 NA
ATOM     13  C   UNL     1      -0.849  -0.688  23.589  0.00  0.00    +0.245 A 
ATOM     16  C   UNL     1       1.085   0.035  23.459  0.00  0.00    +0.202 A 
BRANCH  16  18
ATOM      8  N   UNL     1       5.297   0.073  23.076  0.00  0.00    -0.263 NA
ATOM     18  C   UNL     1       2.514   0.048  23.328  0.00  0.00    +0.025 A 
ATOM     20  C   UNL     1       3.260  -1.058  23.722  0.00  0.00    +0.031 A 
ATOM     21  C   UNL     1       3.157   1.165  22.809  0.00  0.00    +0.031 A 
ATOM     24  C   UNL     1       4.636  -0.996  23.577  0.00  0.00    +0.111 A 
ATOM     25  C   UNL     1       4.538   1.128  22.703  0.00  0.00    +0.111 A 
ENDBRANCH  16  18
ENDBRANCH  10  13
TORSDOF 5
ENDMDL
MODEL 2
REMARK VINA RESULT:      -1.0      1.535      6.116
REMARK  Name = 25338452
REMARK  6 active torsions:
REMARK  status: ('A' for Active; 'I' for Inactive)
REMARK    1  A    between atoms: N_3  and  C_14
REMARK    2  A    between atoms: N_4  and  C_9
REMARK    3  A    between atoms: N_6  and  C_17
REMARK    4  A    between atoms: C_10  and  C_13
REMARK    5  A    between atoms: C_16  and  C_18
REMARK    6  A    between atoms: C_17  and  C_19
REMARK                            x       y       z     vdW  Elec       q    Type
REMARK                         _______ _______ _______ _____ _____    ______ ____
ROOT
ATOM      3  N   UNL     1      -3.679  -1.787  24.030  0.00  0.00    -0.293 NA
ATOM      9  C   UNL     1      -1.707  -2.790  24.765  0.00  0.00    +0.090 C 
ATOM     10  C   UNL     1      -3.417  -1.138  25.329  0.00  0.00    +0.147 C 
ATOM     11  C   UNL     1      -2.038  -1.676  25.759  0.00  0.00    +0.052 C 
ATOM     12  C   UNL     1      -3.040  -3.105  24.104  0.00  0.00    +0.107 C 
ATOM     14  C   UNL     1      -5.099  -1.887  23.716  0.00  0.00    +0.105 C 
ENDROOT
BRANCH   9   4
ATOM      2  O   UNL     1      -0.253  -0.298  24.743  0.00  0.00    -0.253 OA
ATOM      4  N   UNL     1      -0.728  -2.363  23.795  0.00  0.00    -0.295 N 
ATOM      6  N   UNL     1       0.819  -0.982  22.802  0.00  0.00    -0.295 N 
ATOM     15  C   UNL     1      -0.071  -1.136  23.862  0.00  0.00    +0.300 C 
ATOM     29  H   UNL     1      -0.559  -2.955  22.986  0.00  0.00    +0.151 HD
ATOM     30  H   UNL     1       0.887  -1.720  22.109  0.00  0.00    +0.151 HD
BRANCH   6  17
ATOM     17  C   UNL     1       1.631   0.200  22.630  0.00  0.00    +0.141 C 
BRANCH  17  19
ATOM     19  C   UNL     1       3.051  -0.026  23.063  0.00  0.00    -0.030 A 
ATOM     22  C   UNL     1       3.976   1.015  22.991  0.00  0.00    +0.005 A 
ATOM     23  C   UNL     1       3.445  -1.277  23.536  0.00  0.00    +0.005 A 
ATOM     26  C   UNL     1       5.296   0.806  23.394  0.00  0.00    +0.000 A 
ATOM     27  C   UNL     1       4.764  -1.488  23.938  0.00  0.00    +0.000 A 
ATOM     28  C   UNL     1       5.689  -0.446  23.867  0.00  0.00    +0.000 A 
ENDBRANCH  17  19
ENDBRANCH   6  17
ENDBRANCH   9   4
BRANCH  10  13
ATOM      1  O   UNL     1      -4.687   0.950  25.301  0.00  0.00    -0.336 OA
ATOM      5  N   UNL     1      -2.468   1.229  25.180  0.00  0.00    -0.190 NA
ATOM      7  N   UNL     1      -4.470   2.332  25.230  0.00  0.00    -0.056 NA
ATOM     13  C   UNL     1      -3.456   0.374  25.266  0.00  0.00    +0.245 A 
ATOM     16  C   UNL     1      -3.139   2.416  25.161  0.00  0.00    +0.202 A 
BRANCH  16  18
ATOM      8  N   UNL     1      -1.103   6.114  24.903  0.00  0.00    -0.263 NA
ATOM     18  C   UNL     1      -2.449   3.671  25.073  0.00  0.00    +0.025 A 
ATOM     20  C   UNL     1      -1.120   3.709  24.663  0.00  0.00    +0.031 A 
ATOM     21  C   UNL     1      -3.105   4.852  25.398  0.00  0.00    +0.031 A 
ATOM     24  C   UNL     1      -0.498   4.945  24.595  0.00  0.00    +0.111 A 
ATOM     25  C   UNL     1      -2.394   6.038  25.297  0.00  0.00    +0.111 A 
ENDBRANCH  16  18
ENDBRANCH  10  13
TORSDOF 5
ENDMDL
MODEL 3
REMARK VINA RESULT:      -0.9      1.725      6.881
REMARK  Name = 25338452
REMARK  6 active torsions:
REMARK  status: ('A' for Active; 'I' for Inactive)
REMARK    1  A    between atoms: N_3  and  C_14
REMARK    2  A    between atoms: N_4  and  C_9
REMARK    3  A    between atoms: N_6  and  C_17
REMARK    4  A    between atoms: C_10  and  C_13
REMARK    5  A    between atoms: C_16  and  C_18
REMARK    6  A    between atoms: C_17  and  C_19
REMARK                            x       y       z     vdW  Elec       q    Type
REMARK                         _______ _______ _______ _____ _____    ______ ____
ROOT
ATOM      3  N   UNL     1      -2.484   4.015  26.035  0.00  0.00    -0.293 NA
ATOM      9  C   UNL     1      -1.181   4.692  24.225  0.00  0.00    +0.090 C 
ATOM     10  C   UNL     1      -3.338   3.740  24.864  0.00  0.00    +0.147 C 
ATOM     11  C   UNL     1      -2.437   4.038  23.649  0.00  0.00    +0.052 C 
ATOM     12  C   UNL     1      -1.588   5.103  25.632  0.00  0.00    +0.107 C 
ATOM     14  C   UNL     1      -3.244   4.351  27.232  0.00  0.00    +0.105 C 
ENDROOT
BRANCH   9   4
ATOM      2  O   UNL     1      -1.019   2.121  22.926  0.00  0.00    -0.253 OA
ATOM      4  N   UNL     1      -0.066   3.775  24.247  0.00  0.00    -0.295 N 
ATOM      6  N   UNL     1       1.125   1.866  23.775  0.00  0.00    -0.295 N 
ATOM     15  C   UNL     1      -0.075   2.548  23.588  0.00  0.00    +0.300 C 
ATOM     29  H   UNL     1       0.736   4.003  24.827  0.00  0.00    +0.151 HD
ATOM     30  H   UNL     1       1.841   2.288  24.357  0.00  0.00    +0.151 HD
BRANCH   6  17
ATOM     17  C   UNL     1       1.384   0.567  23.200  0.00  0.00    +0.141 C 
BRANCH  17  19
ATOM     19  C   UNL     1       2.831   0.183  23.309  0.00  0.00    -0.030 A 
ATOM     22  C   UNL     1       3.182  -1.116  23.680  0.00  0.00    +0.005 A 
ATOM     23  C   UNL     1       3.825   1.123  23.041  0.00  0.00    +0.005 A 
ATOM     26  C   UNL     1       4.527  -1.473  23.781  0.00  0.00    +0.000 A 
ATOM     27  C   UNL     1       5.170   0.767  23.142  0.00  0.00    +0.000 A 
ATOM     28  C   UNL     1       5.520  -0.532  23.513  0.00  0.00    +0.000 A 
ENDBRANCH  17  19
ENDBRANCH   6  17
ENDBRANCH   9   4
BRANCH  10  13
ATOM      1  O   UNL     1      -5.244   2.214  24.980  0.00  0.00    -0.336 OA
ATOM      5  N   UNL     1      -3.269   1.192  24.707  0.00  0.00    -0.190 NA
ATOM      7  N   UNL     1      -5.518   0.841  24.929  0.00  0.00    -0.056 NA
ATOM     13  C   UNL     1      -3.896   2.333  24.841  0.00  0.00    +0.245 A 
ATOM     16  C   UNL     1      -4.305   0.306  24.768  0.00  0.00    +0.202 A 
BRANCH  16  18
ATOM      8  N   UNL     1      -3.680  -3.865  24.455  0.00  0.00    -0.263 NA
ATOM     18  C   UNL     1      -4.093  -1.109  24.662  0.00  0.00    +0.025 A 
ATOM     20  C   UNL     1      -3.383  -1.784  25.649  0.00  0.00    +0.031 A 
ATOM     21  C   UNL     1      -4.597  -1.810  23.572  0.00  0.00    +0.031 A 
ATOM     24  C   UNL     1      -3.205  -3.150  25.500  0.00  0.00    +0.111 A 
ATOM     25  C   UNL     1      -4.366  -3.175  23.516  0.00  0.00    +0.111 A 
ENDBRANCH  16  18
ENDBRANCH  10  13
TORSDOF 5
ENDMDL
MODEL 4
REMARK VINA RESULT:      -0.5      1.727      4.716
REMARK  Name = 25338452
REMARK  6 active torsions:
REMARK  status: ('A' for Active; 'I' for Inactive)
REMARK    1  A    between atoms: N_3  and  C_14
REMARK    2  A    between atoms: N_4  and  C_9
REMARK    3  A    between atoms: N_6  and  C_17
REMARK    4  A    between atoms: C_10  and  C_13
REMARK    5  A    between atoms: C_16  and  C_18
REMARK    6  A    between atoms: C_17  and  C_19
REMARK                            x       y       z     vdW  Elec       q    Type
REMARK                         _______ _______ _______ _____ _____    ______ ____
ROOT
ATOM      3  N   UNL     1      -3.724   3.898  24.184  0.00  0.00    -0.293 NA
ATOM      9  C   UNL     1      -5.027   3.417  26.056  0.00  0.00    +0.090 C 
ATOM     10  C   UNL     1      -2.786   4.043  25.314  0.00  0.00    +0.147 C 
ATOM     11  C   UNL     1      -3.588   3.580  26.546  0.00  0.00    +0.052 C 
ATOM     12  C   UNL     1      -5.057   4.166  24.734  0.00  0.00    +0.107 C 
ATOM     14  C   UNL     1      -3.411   4.773  23.063  0.00  0.00    +0.105 C 
ENDROOT
BRANCH   9   4
ATOM      2  O   UNL     1      -3.678   1.486  24.390  0.00  0.00    -0.253 OA
ATOM      4  N   UNL     1      -5.374   2.026  25.881  0.00  0.00    -0.295 N 
ATOM      6  N   UNL     1      -5.212  -0.118  25.068  0.00  0.00    -0.295 N 
ATOM     15  C   UNL     1      -4.663   1.162  25.051  0.00  0.00    +0.300 C 
ATOM     29  H   UNL     1      -6.217   1.679  26.328  0.00  0.00    +0.151 HD
ATOM     30  H   UNL     1      -6.041  -0.287  25.629  0.00  0.00    +0.151 HD
BRANCH   6  17
ATOM     17  C   UNL     1      -4.669  -1.211  24.296  0.00  0.00    +0.141 C 
BRANCH  17  19
ATOM     19  C   UNL     1      -3.248  -1.514  24.674  0.00  0.00    -0.030 A 
ATOM     22  C   UNL     1      -2.618  -0.770  25.672  0.00  0.00    +0.005 A 
ATOM     23  C   UNL     1      -2.556  -2.536  24.026  0.00  0.00    +0.005 A 
ATOM     26  C   UNL     1      -1.297  -1.050  26.023  0.00  0.00    +0.000 A 
ATOM     27  C   UNL     1      -1.235  -2.817  24.376  0.00  0.00    +0.000 A 
ATOM     28  C   UNL     1      -0.606  -2.074  25.374  0.00  0.00    +0.000 A 
ENDBRANCH  17  19
ENDBRANCH   6  17
ENDBRANCH   9   4
BRANCH  10  13
ATOM      1  O   UNL     1      -0.673   3.202  26.210  0.00  0.00    -0.336 OA
ATOM      5  N   UNL     1      -1.053   2.632  24.077  0.00  0.00    -0.190 NA
ATOM      7  N   UNL     1       0.433   2.443  25.805  0.00  0.00    -0.056 NA
ATOM     13  C   UNL     1      -1.500   3.264  25.132  0.00  0.00    +0.245 A 
ATOM     16  C   UNL     1       0.135   2.144  24.538  0.00  0.00    +0.202 A 
BRANCH  16  18
ATOM      8  N   UNL     1       2.689  -0.169  22.085  0.00  0.00    -0.263 NA
ATOM     18  C   UNL     1       1.001   1.360  23.706  0.00  0.00    +0.025 A 
ATOM     20  C   UNL     1       0.500   0.258  23.020  0.00  0.00    +0.031 A 
ATOM     21  C   UNL     1       2.344   1.698  23.582  0.00  0.00    +0.031 A 
ATOM     24  C   UNL     1       1.378  -0.467  22.230  0.00  0.00    +0.111 A 
ATOM     25  C   UNL     1       3.139   0.909  22.767  0.00  0.00    +0.111 A 
ENDBRANCH  16  18
ENDBRANCH  10  13
TORSDOF 5
ENDMDL
MODEL 5
REMARK VINA RESULT:       0.6      1.298      1.520
REMARK  Name = 25338452
REMARK  6 active torsions:
REMARK  status: ('A' for Active; 'I' for Inactive)
REMARK    1  A    between atoms: N_3  and  C_14
REMARK    2  A    between atoms: N_4  and  C_9
REMARK    3  A    between atoms: N_6  and  C_17
REMARK    4  A    between atoms: C_10  and  C_13
REMARK    5  A    between atoms: C_16  and  C_18
REMARK    6  A    between atoms: C_17  and  C_19
REMARK                            x       y       z     vdW  Elec       q    Type
REMARK                         _______ _______ _______ _____ _____    ______ ____
ROOT
ATOM      3  N   UNL     1      -2.154  -1.092  26.025  0.00  0.00    -0.293 NA
ATOM      9  C   UNL     1      -3.903  -1.886  24.704  0.00  0.00    +0.090 C 
ATOM     10  C   UNL     1      -1.478  -1.917  25.006  0.00  0.00    +0.147 C 
ATOM     11  C   UNL     1      -2.601  -2.327  24.033  0.00  0.00    +0.052 C 
ATOM     12  C   UNL     1      -3.508  -1.640  26.152  0.00  0.00    +0.107 C 
ATOM     14  C   UNL     1      -1.454  -1.071  27.303  0.00  0.00    +0.105 C 
ENDROOT
BRANCH   9   4
ATOM      2  O   UNL     1      -3.330   0.845  25.435  0.00  0.00    -0.253 OA
ATOM      4  N   UNL     1      -4.437  -0.692  24.094  0.00  0.00    -0.295 N 
ATOM      6  N   UNL     1      -4.761   1.558  23.753  0.00  0.00    -0.295 N 
ATOM     15  C   UNL     1      -4.104   0.593  24.513  0.00  0.00    +0.300 C 
ATOM     29  H   UNL     1      -5.142  -0.794  23.370  0.00  0.00    +0.151 HD
ATOM     30  H   UNL     1      -5.399   1.255  23.025  0.00  0.00    +0.151 HD
BRANCH   6  17
ATOM     17  C   UNL     1      -4.595   2.975  23.977  0.00  0.00    +0.141 C 
BRANCH  17  19
ATOM     19  C   UNL     1      -3.197   3.317  24.404  0.00  0.00    -0.030 A 
ATOM     22  C   UNL     1      -2.121   3.029  23.563  0.00  0.00    +0.005 A 
ATOM     23  C   UNL     1      -2.973   3.920  25.640  0.00  0.00    +0.005 A 
ATOM     26  C   UNL     1      -0.821   3.346  23.959  0.00  0.00    +0.000 A 
ATOM     27  C   UNL     1      -1.674   4.237  26.038  0.00  0.00    +0.000 A 
ATOM     28  C   UNL     1      -0.598   3.950  25.197  0.00  0.00    +0.000 A 
ENDBRANCH  17  19
ENDBRANCH   6  17
ENDBRANCH   9   4
BRANCH  10  13
ATOM      1  O   UNL     1      -0.684  -0.263  23.392  0.00  0.00    -0.336 OA
ATOM      5  N   UNL     1       0.953  -1.357  24.460  0.00  0.00    -0.190 NA
ATOM      7  N   UNL     1       0.520   0.249  22.891  0.00  0.00    -0.056 NA
ATOM     13  C   UNL     1      -0.339  -1.204  24.310  0.00  0.00    +0.245 A 
ATOM     16  C   UNL     1       1.437  -0.445  23.569  0.00  0.00    +0.202 A 
BRANCH  16  18
ATOM      8  N   UNL     1       5.591   0.128  23.016  0.00  0.00    -0.263 NA
ATOM     18  C   UNL     1       2.846  -0.251  23.381  0.00  0.00    +0.025 A 
ATOM     20  C   UNL     1       3.745  -1.241  23.766  0.00  0.00    +0.031 A 
ATOM     21  C   UNL     1       3.319   0.928  22.814  0.00  0.00    +0.031 A 
ATOM     24  C   UNL     1       5.095  -1.004  23.563  0.00  0.00    +0.111 A 
ATOM     25  C   UNL     1       4.688   1.067  22.654  0.00  0.00    +0.111 A 
ENDBRANCH  16  18
ENDBRANCH  10  13
TORSDOF 5
ENDMDL
MODEL 6
REMARK VINA RESULT:       1.2     15.012     16.776
REMARK  Name = 25338452
REMARK  6 active torsions:
REMARK  status: ('A' for Active; 'I' for Inactive)
REMARK    1  A    between atoms: N_3  and  C_14
REMARK    2  A    between atoms: N_4  and  C_9
REMARK    3  A    between atoms: N_6  and  C_17
REMARK    4  A    between atoms: C_10  and  C_13
REMARK    5  A    between atoms: C_16  and  C_18
REMARK    6  A    between atoms: C_17  and  C_19
REMARK                            x       y       z     vdW  Elec       q    Type
REMARK                         _______ _______ _______ _____ _____    ______ ____
ROOT
ATOM      3  N   UNL     1      -4.394 -10.268  13.212  0.00  0.00    -0.293 NA
ATOM      9  C   UNL     1      -4.991 -10.490  10.970  0.00  0.00    +0.090 C 
ATOM     10  C   UNL     1      -3.147 -10.709  12.558  0.00  0.00    +0.147 C 
ATOM     11  C   UNL     1      -3.481 -10.714  11.053  0.00  0.00    +0.052 C 
ATOM     12  C   UNL     1      -5.487 -10.779  12.378  0.00  0.00    +0.107 C 
ATOM     14  C   UNL     1      -4.507 -10.719  14.593  0.00  0.00    +0.105 C 
ENDROOT
BRANCH   9   4
ATOM      2  O   UNL     1      -6.397  -9.669   8.588  0.00  0.00    -0.253 OA
ATOM      4  N   UNL     1      -5.307  -9.140  10.568  0.00  0.00    -0.295 N 
ATOM      6  N   UNL     1      -6.162  -7.459   9.253  0.00  0.00    -0.295 N 
ATOM     15  C   UNL     1      -5.992  -8.834   9.395  0.00  0.00    +0.300 C 
ATOM     29  H   UNL     1      -4.952  -8.373  11.131  0.00  0.00    +0.151 HD
ATOM     30  H   UNL     1      -5.774  -6.844   9.961  0.00  0.00    +0.151 HD
BRANCH   6  17
ATOM     17  C   UNL     1      -6.841  -6.867   8.124  0.00  0.00    +0.141 C 
BRANCH  17  19
ATOM     19  C   UNL     1      -8.176  -6.297   8.508  0.00  0.00    -0.030 A 
ATOM     22  C   UNL     1      -8.369  -4.915   8.509  0.00  0.00    +0.005 A 
ATOM     23  C   UNL     1      -9.221  -7.147   8.865  0.00  0.00    +0.005 A 
ATOM     26  C   UNL     1      -9.610  -4.385   8.865  0.00  0.00    +0.000 A 
ATOM     27  C   UNL     1     -10.461  -6.618   9.222  0.00  0.00    +0.000 A 
ATOM     28  C   UNL     1     -10.655  -5.237   9.222  0.00  0.00    +0.000 A 
ENDBRANCH  17  19
ENDBRANCH   6  17
ENDBRANCH   9   4
BRANCH  10  13
ATOM      1  O   UNL     1      -1.522  -9.861  14.174  0.00  0.00    -0.336 OA
ATOM      5  N   UNL     1      -1.261  -9.049  12.103  0.00  0.00    -0.190 NA
ATOM      7  N   UNL     1      -0.427  -8.989  14.231  0.00  0.00    -0.056 NA
ATOM     13  C   UNL     1      -1.954  -9.837  12.885  0.00  0.00    +0.245 A 
ATOM     16  C   UNL     1      -0.336  -8.551  12.973  0.00  0.00    +0.202 A 
BRANCH  16  18
ATOM      8  N   UNL     1       2.623  -5.795  11.731  0.00  0.00    -0.263 NA
ATOM     18  C   UNL     1       0.668  -7.616  12.552  0.00  0.00    +0.025 A 
ATOM     20  C   UNL     1       0.489  -6.254  12.771  0.00  0.00    +0.031 A 
ATOM     21  C   UNL     1       1.823  -8.069  11.924  0.00  0.00    +0.031 A 
ATOM     24  C   UNL     1       1.488  -5.393  12.345  0.00  0.00    +0.111 A 
ATOM     25  C   UNL     1       2.762  -7.127  11.536  0.00  0.00    +0.111 A 
ENDBRANCH  16  18
ENDBRANCH  10  13
TORSDOF 5
ENDMDL
