MODEL 1
REMARK VINA RESULT:      10.8      0.000      0.000
REMARK  Name = 40780285
REMARK  9 active torsions:
REMARK  status: ('A' for Active; 'I' for Inactive)
REMARK    1  A    between atoms: O_2  and  C_21
REMARK    2  A    between atoms: O_2  and  C_34
REMARK    3  A    between atoms: N_5  and  C_12
REMARK    4  A    between atoms: N_5  and  C_22
REMARK    5  A    between atoms: N_7  and  C_32
REMARK    6  A    between atoms: C_10  and  C_18
REMARK    7  A    between atoms: C_14  and  C_21
REMARK    8  A    between atoms: C_22  and  C_27
REMARK    9  A    between atoms: C_27  and  C_32
REMARK                            x       y       z     vdW  Elec       q    Type
REMARK                         _______ _______ _______ _____ _____    ______ ____
ROOT
ATOM      4  N   UNL     1      -1.060   1.499  25.776  0.00  0.00    -0.274 NA
ATOM      6  N   UNL     1      -3.766  -0.032  23.668  0.00  0.00    -0.356 N 
ATOM      9  C   UNL     1      -2.042   1.584  24.650  0.00  0.00    +0.106 C 
ATOM     10  C   UNL     1      -0.401   2.803  26.037  0.00  0.00    +0.090 C 
ATOM     11  C   UNL     1      -3.116   2.642  24.946  0.00  0.00    +0.044 C 
ATOM     12  C   UNL     1      -2.472   4.010  25.174  0.00  0.00    +0.057 C 
ATOM     13  C   UNL     1      -1.447   3.912  26.302  0.00  0.00    +0.042 C 
ATOM     14  C   UNL     1      -0.130   0.343  25.645  0.00  0.00    +0.172 C 
ATOM     15  C   UNL     1      -2.647   0.235  24.405  0.00  0.00    +0.038 A 
ATOM     16  C   UNL     1      -0.871  -1.018  25.642  0.00  0.00    +0.068 C 
ATOM     17  C   UNL     1      -2.119  -0.964  24.832  0.00  0.00    -0.016 A 
ATOM     19  C   UNL     1      -2.969  -2.004  24.368  0.00  0.00    +0.003 A 
ATOM     20  C   UNL     1      -3.995  -1.392  23.641  0.00  0.00    +0.047 A 
ATOM     25  C   UNL     1      -2.968  -3.408  24.488  0.00  0.00    +0.010 A 
ATOM     26  C   UNL     1      -5.023  -2.120  23.030  0.00  0.00    +0.026 A 
ATOM     28  C   UNL     1      -3.990  -4.147  23.883  0.00  0.00    +0.001 A 
ATOM     31  C   UNL     1      -5.001  -3.511  23.165  0.00  0.00    +0.002 A 
ATOM     39  H   UNL     1      -4.347   0.657  23.210  0.00  0.00    +0.166 HD
ENDROOT
BRANCH  10  18
ATOM      1  F   UNL     1       3.176   2.743  30.418  0.00  0.00    -0.205 F 
ATOM     18  C   UNL     1       0.565   2.787  27.220  0.00  0.00    -0.030 A 
ATOM     23  C   UNL     1       1.891   3.181  27.043  0.00  0.00    +0.008 A 
ATOM     24  C   UNL     1       0.121   2.377  28.477  0.00  0.00    +0.008 A 
ATOM     29  C   UNL     1       2.774   3.166  28.123  0.00  0.00    +0.038 A 
ATOM     30  C   UNL     1       1.003   2.363  29.558  0.00  0.00    +0.038 A 
ATOM     33  C   UNL     1       2.329   2.757  29.381  0.00  0.00    +0.123 A 
ENDBRANCH  10  18
BRANCH  14  21
ATOM      3  O   UNL     1       1.380   1.493  24.156  0.00  0.00    -0.249 OA
ATOM     21  C   UNL     1       0.725   0.492  24.418  0.00  0.00    +0.325 C 
BRANCH  21   2
ATOM      2  O   UNL     1       0.649  -0.645  23.669  0.00  0.00    -0.467 OA
ATOM     34  C   UNL     1       1.151  -0.536  22.334  0.00  0.00    +0.280 C 
ENDBRANCH  21   2
ENDBRANCH  14  21
BRANCH  12   5
ATOM      5  N   UNL     1      -3.499   5.003  25.487  0.00  0.00    -0.313 NA
ATOM     38  H   UNL     1      -4.007   4.720  26.325  0.00  0.00    +0.122 HD
BRANCH   5  22
ATOM     22  C   UNL     1      -4.444   5.132  24.388  0.00  0.00    +0.083 C 
BRANCH  22  27
ATOM     27  C   UNL     1      -5.860   5.326  24.927  0.00  0.00    +0.037 C 
BRANCH  27  32
ATOM     32  C   UNL     1      -6.092   4.483  26.183  0.00  0.00    +0.124 C 
BRANCH  32   7
ATOM      7  N   UNL     1      -6.128   3.010  25.867  0.00  0.00    -0.337 N 
ATOM      8  N   UNL     1      -6.295   1.137  24.683  0.00  0.00    -0.244 NA
ATOM     35  C   UNL     1      -5.983   1.986  26.761  0.00  0.00    +0.106 A 
ATOM     36  C   UNL     1      -6.313   2.451  24.633  0.00  0.00    +0.199 A 
ATOM     37  C   UNL     1      -6.090   0.842  26.007  0.00  0.00    +0.130 A 
ENDBRANCH  32   7
ENDBRANCH  27  32
ENDBRANCH  22  27
ENDBRANCH   5  22
ENDBRANCH  12   5
TORSDOF 8
ENDMDL
MODEL 2
REMARK VINA RESULT:      13.0      2.311      5.994
REMARK  Name = 40780285
REMARK  9 active torsions:
REMARK  status: ('A' for Active; 'I' for Inactive)
REMARK    1  A    between atoms: O_2  and  C_21
REMARK    2  A    between atoms: O_2  and  C_34
REMARK    3  A    between atoms: N_5  and  C_12
REMARK    4  A    between atoms: N_5  and  C_22
REMARK    5  A    between atoms: N_7  and  C_32
REMARK    6  A    between atoms: C_10  and  C_18
REMARK    7  A    between atoms: C_14  and  C_21
REMARK    8  A    between atoms: C_22  and  C_27
REMARK    9  A    between atoms: C_27  and  C_32
REMARK                            x       y       z     vdW  Elec       q    Type
REMARK                         _______ _______ _______ _____ _____    ______ ____
ROOT
ATOM      4  N   UNL     1      -0.819   1.351  24.574  0.00  0.00    -0.274 NA
ATOM      6  N   UNL     1      -4.100   2.346  26.108  0.00  0.00    -0.356 N 
ATOM      9  C   UNL     1      -1.811   1.279  25.692  0.00  0.00    +0.106 C 
ATOM     10  C   UNL     1       0.297   0.389  24.760  0.00  0.00    +0.090 C 
ATOM     11  C   UNL     1      -2.385  -0.141  25.818  0.00  0.00    +0.044 C 
ATOM     12  C   UNL     1      -1.264  -1.152  26.058  0.00  0.00    +0.057 C 
ATOM     13  C   UNL     1      -0.235  -1.054  24.932  0.00  0.00    +0.042 C 
ATOM     14  C   UNL     1      -0.396   2.745  24.264  0.00  0.00    +0.172 C 
ATOM     15  C   UNL     1      -2.891   2.296  25.472  0.00  0.00    +0.038 A 
ATOM     16  C   UNL     1      -1.582   3.639  23.819  0.00  0.00    +0.068 C 
ATOM     17  C   UNL     1      -2.799   3.388  24.638  0.00  0.00    -0.016 A 
ATOM     19  C   UNL     1      -4.015   4.117  24.740  0.00  0.00    +0.003 A 
ATOM     20  C   UNL     1      -4.813   3.441  25.668  0.00  0.00    +0.047 A 
ATOM     25  C   UNL     1      -4.517   5.289  24.139  0.00  0.00    +0.010 A 
ATOM     26  C   UNL     1      -6.094   3.883  26.023  0.00  0.00    +0.026 A 
ATOM     28  C   UNL     1      -5.796   5.740  24.484  0.00  0.00    +0.001 A 
ATOM     31  C   UNL     1      -6.570   5.046  25.412  0.00  0.00    +0.002 A 
ATOM     39  H   UNL     1      -4.431   1.684  26.796  0.00  0.00    +0.166 HD
ENDROOT
BRANCH  10  18
ATOM      1  F   UNL     1       4.035   0.337  20.516  0.00  0.00    -0.205 F 
ATOM     18  C   UNL     1       1.306   0.375  23.614  0.00  0.00    -0.030 A 
ATOM     23  C   UNL     1       1.018  -0.321  22.441  0.00  0.00    +0.008 A 
ATOM     24  C   UNL     1       2.515   1.058  23.742  0.00  0.00    +0.008 A 
ATOM     29  C   UNL     1       1.940  -0.334  21.393  0.00  0.00    +0.038 A 
ATOM     30  C   UNL     1       3.437   1.046  22.695  0.00  0.00    +0.038 A 
ATOM     33  C   UNL     1       3.150   0.349  21.521  0.00  0.00    +0.123 A 
ENDBRANCH  10  18
BRANCH  14  21
ATOM      3  O   UNL     1       0.451   4.555  25.615  0.00  0.00    -0.249 OA
ATOM     21  C   UNL     1       0.322   3.350  25.437  0.00  0.00    +0.325 C 
BRANCH  21   2
ATOM      2  O   UNL     1       0.792   2.358  26.245  0.00  0.00    -0.467 OA
ATOM     34  C   UNL     1       0.901   2.694  27.632  0.00  0.00    +0.280 C 
ENDBRANCH  21   2
ENDBRANCH  14  21
BRANCH  12   5
ATOM      5  N   UNL     1      -1.815  -2.503  26.144  0.00  0.00    -0.313 NA
ATOM     38  H   UNL     1      -1.147  -3.120  26.607  0.00  0.00    +0.122 HD
BRANCH   5  22
ATOM     22  C   UNL     1      -2.097  -3.030  24.818  0.00  0.00    +0.083 C 
BRANCH  22  27
ATOM     27  C   UNL     1      -3.536  -3.536  24.743  0.00  0.00    +0.037 C 
BRANCH  27  32
ATOM     32  C   UNL     1      -4.254  -2.975  23.513  0.00  0.00    +0.124 C 
BRANCH  32   7
ATOM      7  N   UNL     1      -4.333  -1.470  23.551  0.00  0.00    -0.337 N 
ATOM      8  N   UNL     1      -5.028   0.565  24.107  0.00  0.00    -0.244 NA
ATOM     35  C   UNL     1      -3.542  -0.600  22.855  0.00  0.00    +0.106 A 
ATOM     36  C   UNL     1      -5.210  -0.724  24.288  0.00  0.00    +0.199 A 
ATOM     37  C   UNL     1      -3.989   0.649  23.215  0.00  0.00    +0.130 A 
ENDBRANCH  32   7
ENDBRANCH  27  32
ENDBRANCH  22  27
ENDBRANCH   5  22
ENDBRANCH  12   5
TORSDOF 8
ENDMDL
MODEL 3
REMARK VINA RESULT:      13.1      2.921      6.574
REMARK  Name = 40780285
REMARK  9 active torsions:
REMARK  status: ('A' for Active; 'I' for Inactive)
REMARK    1  A    between atoms: O_2  and  C_21
REMARK    2  A    between atoms: O_2  and  C_34
REMARK    3  A    between atoms: N_5  and  C_12
REMARK    4  A    between atoms: N_5  and  C_22
REMARK    5  A    between atoms: N_7  and  C_32
REMARK    6  A    between atoms: C_10  and  C_18
REMARK    7  A    between atoms: C_14  and  C_21
REMARK    8  A    between atoms: C_22  and  C_27
REMARK    9  A    between atoms: C_27  and  C_32
REMARK                            x       y       z     vdW  Elec       q    Type
REMARK                         _______ _______ _______ _____ _____    ______ ____
ROOT
ATOM      4  N   UNL     1      -2.255   0.925  23.764  0.00  0.00    -0.274 NA
ATOM      6  N   UNL     1       0.910  -0.983  23.094  0.00  0.00    -0.356 N 
ATOM      9  C   UNL     1      -1.551  -0.309  23.298  0.00  0.00    +0.106 C 
ATOM     10  C   UNL     1      -3.725   0.731  23.836  0.00  0.00    +0.090 C 
ATOM     11  C   UNL     1      -1.859  -1.494  24.226  0.00  0.00    +0.044 C 
ATOM     12  C   UNL     1      -3.365  -1.751  24.285  0.00  0.00    +0.057 C 
ATOM     13  C   UNL     1      -4.084  -0.479  24.731  0.00  0.00    +0.042 C 
ATOM     14  C   UNL     1      -1.821   2.150  23.036  0.00  0.00    +0.172 C 
ATOM     15  C   UNL     1      -0.078  -0.045  23.207  0.00  0.00    +0.038 A 
ATOM     16  C   UNL     1      -0.311   2.445  23.219  0.00  0.00    +0.068 C 
ATOM     17  C   UNL     1       0.505   1.201  23.151  0.00  0.00    -0.016 A 
ATOM     19  C   UNL     1       1.910   1.020  23.036  0.00  0.00    +0.003 A 
ATOM     20  C   UNL     1       2.137  -0.360  23.003  0.00  0.00    +0.047 A 
ATOM     25  C   UNL     1       3.015   1.891  22.950  0.00  0.00    +0.010 A 
ATOM     26  C   UNL     1       3.419  -0.910  22.891  0.00  0.00    +0.026 A 
ATOM     28  C   UNL     1       4.302   1.353  22.839  0.00  0.00    +0.001 A 
ATOM     31  C   UNL     1       4.499  -0.025  22.810  0.00  0.00    +0.002 A 
ATOM     39  H   UNL     1       0.772  -1.984  23.081  0.00  0.00    +0.166 HD
ENDROOT
BRANCH  10  18
ATOM      1  F   UNL     1      -6.552   5.214  25.814  0.00  0.00    -0.205 F 
ATOM     18  C   UNL     1      -4.489   1.942  24.370  0.00  0.00    -0.030 A 
ATOM     23  C   UNL     1      -3.957   3.222  24.220  0.00  0.00    +0.008 A 
ATOM     24  C   UNL     1      -5.716   1.766  25.009  0.00  0.00    +0.008 A 
ATOM     29  C   UNL     1      -4.654   4.328  24.707  0.00  0.00    +0.038 A 
ATOM     30  C   UNL     1      -6.413   2.871  25.496  0.00  0.00    +0.038 A 
ATOM     33  C   UNL     1      -5.882   4.152  25.346  0.00  0.00    +0.123 A 
ENDBRANCH  10  18
BRANCH  14  21
ATOM      3  O   UNL     1      -2.064   1.027  20.915  0.00  0.00    -0.249 OA
ATOM     21  C   UNL     1      -2.177   2.049  21.580  0.00  0.00    +0.325 C 
BRANCH  21   2
ATOM      2  O   UNL     1      -2.633   3.255  21.138  0.00  0.00    -0.467 OA
ATOM     34  C   UNL     1      -4.057   3.386  21.067  0.00  0.00    +0.280 C 
ENDBRANCH  21   2
ENDBRANCH  14  21
BRANCH  12   5
ATOM      5  N   UNL     1      -3.650  -2.859  25.196  0.00  0.00    -0.313 NA
ATOM     38  H   UNL     1      -4.652  -2.899  25.386  0.00  0.00    +0.122 HD
BRANCH   5  22
ATOM     22  C   UNL     1      -2.942  -2.686  26.455  0.00  0.00    +0.083 C 
BRANCH  22  27
ATOM     27  C   UNL     1      -2.706  -1.203  26.732  0.00  0.00    +0.037 C 
BRANCH  27  32
ATOM     32  C   UNL     1      -1.211  -0.875  26.741  0.00  0.00    +0.124 C 
BRANCH  32   7
ATOM      7  N   UNL     1      -0.963   0.606  26.619  0.00  0.00    -0.337 N 
ATOM      8  N   UNL     1      -1.385   2.778  26.416  0.00  0.00    -0.244 NA
ATOM     35  C   UNL     1       0.255   1.225  26.598  0.00  0.00    +0.106 A 
ATOM     36  C   UNL     1      -1.918   1.580  26.507  0.00  0.00    +0.199 A 
ATOM     37  C   UNL     1      -0.031   2.564  26.473  0.00  0.00    +0.130 A 
ENDBRANCH  32   7
ENDBRANCH  27  32
ENDBRANCH  22  27
ENDBRANCH   5  22
ENDBRANCH  12   5
TORSDOF 8
ENDMDL
MODEL 4
REMARK VINA RESULT:      13.2      1.312      2.225
REMARK  Name = 40780285
REMARK  9 active torsions:
REMARK  status: ('A' for Active; 'I' for Inactive)
REMARK    1  A    between atoms: O_2  and  C_21
REMARK    2  A    between atoms: O_2  and  C_34
REMARK    3  A    between atoms: N_5  and  C_12
REMARK    4  A    between atoms: N_5  and  C_22
REMARK    5  A    between atoms: N_7  and  C_32
REMARK    6  A    between atoms: C_10  and  C_18
REMARK    7  A    between atoms: C_14  and  C_21
REMARK    8  A    between atoms: C_22  and  C_27
REMARK    9  A    between atoms: C_27  and  C_32
REMARK                            x       y       z     vdW  Elec       q    Type
REMARK                         _______ _______ _______ _____ _____    ______ ____
ROOT
ATOM      4  N   UNL     1      -1.256   1.424  26.130  0.00  0.00    -0.274 NA
ATOM      6  N   UNL     1      -4.020  -0.195  24.169  0.00  0.00    -0.356 N 
ATOM      9  C   UNL     1      -2.398   1.514  25.168  0.00  0.00    +0.106 C 
ATOM     10  C   UNL     1      -0.744   2.764  26.511  0.00  0.00    +0.090 C 
ATOM     11  C   UNL     1      -3.547   2.342  25.765  0.00  0.00    +0.044 C 
ATOM     12  C   UNL     1      -3.063   3.748  26.124  0.00  0.00    +0.057 C 
ATOM     13  C   UNL     1      -1.876   3.651  27.082  0.00  0.00    +0.042 C 
ATOM     14  C   UNL     1      -0.211   0.455  25.699  0.00  0.00    +0.172 C 
ATOM     15  C   UNL     1      -2.848   0.135  24.790  0.00  0.00    +0.038 A 
ATOM     16  C   UNL     1      -0.756  -0.990  25.572  0.00  0.00    +0.068 C 
ATOM     17  C   UNL     1      -2.108  -1.016  24.948  0.00  0.00    -0.016 A 
ATOM     19  C   UNL     1      -2.872  -2.099  24.437  0.00  0.00    +0.003 A 
ATOM     20  C   UNL     1      -4.068  -1.557  23.955  0.00  0.00    +0.047 A 
ATOM     25  C   UNL     1      -2.667  -3.489  24.330  0.00  0.00    +0.010 A 
ATOM     26  C   UNL     1      -5.069  -2.341  23.371  0.00  0.00    +0.026 A 
ATOM     28  C   UNL     1      -3.661  -4.285  23.749  0.00  0.00    +0.001 A 
ATOM     31  C   UNL     1      -4.843  -3.718  23.279  0.00  0.00    +0.002 A 
ATOM     39  H   UNL     1      -4.749   0.453  23.905  0.00  0.00    +0.166 HD
ENDROOT
BRANCH  10  18
ATOM      1  F   UNL     1       3.425   2.647  30.332  0.00  0.00    -0.205 F 
ATOM     18  C   UNL     1       0.382   2.732  27.543  0.00  0.00    -0.030 A 
ATOM     23  C   UNL     1       0.112   2.352  28.857  0.00  0.00    +0.008 A 
ATOM     24  C   UNL     1       1.679   3.084  27.170  0.00  0.00    +0.008 A 
ATOM     29  C   UNL     1       1.140   2.323  29.800  0.00  0.00    +0.038 A 
ATOM     30  C   UNL     1       2.707   3.055  28.112  0.00  0.00    +0.038 A 
ATOM     33  C   UNL     1       2.438   2.675  29.427  0.00  0.00    +0.123 A 
ENDBRANCH  10  18
BRANCH  14  21
ATOM      3  O   UNL     1       0.916   2.011  24.240  0.00  0.00    -0.249 OA
ATOM     21  C   UNL     1       0.423   0.904  24.412  0.00  0.00    +0.325 C 
BRANCH  21   2
ATOM      2  O   UNL     1       0.359  -0.104  23.497  0.00  0.00    -0.467 OA
ATOM     34  C   UNL     1       1.454  -0.172  22.579  0.00  0.00    +0.280 C 
ENDBRANCH  21   2
ENDBRANCH  14  21
BRANCH  12   5
ATOM      5  N   UNL     1      -4.154   4.517  26.721  0.00  0.00    -0.313 NA
ATOM     38  H   UNL     1      -4.523   4.019  27.531  0.00  0.00    +0.122 HD
BRANCH   5  22
ATOM     22  C   UNL     1      -5.230   4.714  25.762  0.00  0.00    +0.083 C 
BRANCH  22  27
ATOM     27  C   UNL     1      -5.056   3.777  24.569  0.00  0.00    +0.037 C 
BRANCH  27  32
ATOM     32  C   UNL     1      -4.226   4.439  23.466  0.00  0.00    +0.124 C 
BRANCH  32   7
ATOM      7  N   UNL     1      -3.365   3.437  22.739  0.00  0.00    -0.337 N 
ATOM      8  N   UNL     1      -1.562   2.284  22.146  0.00  0.00    -0.244 NA
ATOM     35  C   UNL     1      -3.776   2.574  21.763  0.00  0.00    +0.106 A 
ATOM     36  C   UNL     1      -2.029   3.226  22.935  0.00  0.00    +0.199 A 
ATOM     37  C   UNL     1      -2.646   1.873  21.414  0.00  0.00    +0.130 A 
ENDBRANCH  32   7
ENDBRANCH  27  32
ENDBRANCH  22  27
ENDBRANCH   5  22
ENDBRANCH  12   5
TORSDOF 8
ENDMDL
MODEL 5
REMARK VINA RESULT:      13.4      3.334      6.557
REMARK  Name = 40780285
REMARK  9 active torsions:
REMARK  status: ('A' for Active; 'I' for Inactive)
REMARK    1  A    between atoms: O_2  and  C_21
REMARK    2  A    between atoms: O_2  and  C_34
REMARK    3  A    between atoms: N_5  and  C_12
REMARK    4  A    between atoms: N_5  and  C_22
REMARK    5  A    between atoms: N_7  and  C_32
REMARK    6  A    between atoms: C_10  and  C_18
REMARK    7  A    between atoms: C_14  and  C_21
REMARK    8  A    between atoms: C_22  and  C_27
REMARK    9  A    between atoms: C_27  and  C_32
REMARK                            x       y       z     vdW  Elec       q    Type
REMARK                         _______ _______ _______ _____ _____    ______ ____
ROOT
ATOM      4  N   UNL     1      -1.717  -0.279  23.842  0.00  0.00    -0.274 NA
ATOM      6  N   UNL     1       1.484   1.666  23.543  0.00  0.00    -0.356 N 
ATOM      9  C   UNL     1      -0.926   0.973  24.059  0.00  0.00    +0.106 C 
ATOM     10  C   UNL     1      -3.150  -0.095  24.182  0.00  0.00    +0.090 C 
ATOM     11  C   UNL     1      -1.499   2.129  23.224  0.00  0.00    +0.044 C 
ATOM     12  C   UNL     1      -2.964   2.375  23.586  0.00  0.00    +0.057 C 
ATOM     13  C   UNL     1      -3.763   1.087  23.393  0.00  0.00    +0.042 C 
ATOM     14  C   UNL     1      -1.079  -1.479  24.450  0.00  0.00    +0.172 C 
ATOM     15  C   UNL     1       0.516   0.719  23.738  0.00  0.00    +0.038 A 
ATOM     16  C   UNL     1       0.323  -1.771  23.857  0.00  0.00    +0.068 C 
ATOM     17  C   UNL     1       1.109  -0.521  23.660  0.00  0.00    -0.016 A 
ATOM     19  C   UNL     1       2.487  -0.329  23.370  0.00  0.00    +0.003 A 
ATOM     20  C   UNL     1       2.694   1.053  23.301  0.00  0.00    +0.047 A 
ATOM     25  C   UNL     1       3.583  -1.190  23.163  0.00  0.00    +0.010 A 
ATOM     26  C   UNL     1       3.949   1.613  23.033  0.00  0.00    +0.026 A 
ATOM     28  C   UNL     1       4.842  -0.643  22.893  0.00  0.00    +0.001 A 
ATOM     31  C   UNL     1       5.020   0.738  22.830  0.00  0.00    +0.002 A 
ATOM     39  H   UNL     1       1.341   2.666  23.569  0.00  0.00    +0.166 HD
ENDROOT
BRANCH  10  18
ATOM      1  F   UNL     1      -6.357  -4.649  23.198  0.00  0.00    -0.205 F 
ATOM     18  C   UNL     1      -4.016  -1.325  23.916  0.00  0.00    -0.030 A 
ATOM     23  C   UNL     1      -3.420  -2.575  23.749  0.00  0.00    +0.008 A 
ATOM     24  C   UNL     1      -5.403  -1.198  23.840  0.00  0.00    +0.008 A 
ATOM     29  C   UNL     1      -4.210  -3.698  23.507  0.00  0.00    +0.038 A 
ATOM     30  C   UNL     1      -6.194  -2.320  23.598  0.00  0.00    +0.038 A 
ATOM     33  C   UNL     1      -5.598  -3.571  23.431  0.00  0.00    +0.123 A 
ENDBRANCH  10  18
BRANCH  14  21
ATOM      3  O   UNL     1      -0.053  -1.685  26.623  0.00  0.00    -0.249 OA
ATOM     21  C   UNL     1      -1.011  -1.338  25.944  0.00  0.00    +0.325 C 
BRANCH  21   2
ATOM      2  O   UNL     1      -2.165  -0.775  26.401  0.00  0.00    -0.467 OA
ATOM     34  C   UNL     1      -3.021  -1.645  27.148  0.00  0.00    +0.280 C 
ENDBRANCH  21   2
ENDBRANCH  14  21
BRANCH  12   5
ATOM      5  N   UNL     1      -3.509   3.454  22.763  0.00  0.00    -0.313 NA
ATOM     38  H   UNL     1      -2.752   3.930  22.272  0.00  0.00    +0.122 HD
BRANCH   5  22
ATOM     22  C   UNL     1      -4.215   4.424  23.587  0.00  0.00    +0.083 C 
BRANCH  22  27
ATOM     27  C   UNL     1      -4.544   3.821  24.951  0.00  0.00    +0.037 C 
BRANCH  27  32
ATOM     32  C   UNL     1      -3.725   4.487  26.060  0.00  0.00    +0.124 C 
BRANCH  32   7
ATOM      7  N   UNL     1      -2.244   4.382  25.800  0.00  0.00    -0.337 N 
ATOM      8  N   UNL     1      -0.170   3.590  25.864  0.00  0.00    -0.244 NA
ATOM     35  C   UNL     1      -1.490   5.245  25.057  0.00  0.00    +0.106 A 
ATOM     36  C   UNL     1      -1.409   3.404  26.263  0.00  0.00    +0.199 A 
ATOM     37  C   UNL     1      -0.214   4.735  25.111  0.00  0.00    +0.130 A 
ENDBRANCH  32   7
ENDBRANCH  27  32
ENDBRANCH  22  27
ENDBRANCH   5  22
ENDBRANCH  12   5
TORSDOF 8
ENDMDL
MODEL 6
REMARK VINA RESULT:      13.7      3.363      6.228
REMARK  Name = 40780285
REMARK  9 active torsions:
REMARK  status: ('A' for Active; 'I' for Inactive)
REMARK    1  A    between atoms: O_2  and  C_21
REMARK    2  A    between atoms: O_2  and  C_34
REMARK    3  A    between atoms: N_5  and  C_12
REMARK    4  A    between atoms: N_5  and  C_22
REMARK    5  A    between atoms: N_7  and  C_32
REMARK    6  A    between atoms: C_10  and  C_18
REMARK    7  A    between atoms: C_14  and  C_21
REMARK    8  A    between atoms: C_22  and  C_27
REMARK    9  A    between atoms: C_27  and  C_32
REMARK                            x       y       z     vdW  Elec       q    Type
REMARK                         _______ _______ _______ _____ _____    ______ ____
ROOT
ATOM      4  N   UNL     1      -1.297  -0.152  23.944  0.00  0.00    -0.274 NA
ATOM      6  N   UNL     1       2.020   1.591  23.681  0.00  0.00    -0.356 N 
ATOM      9  C   UNL     1      -0.422   1.033  24.207  0.00  0.00    +0.106 C 
ATOM     10  C   UNL     1      -2.710   0.108  24.318  0.00  0.00    +0.090 C 
ATOM     11  C   UNL     1      -0.929   2.264  23.440  0.00  0.00    +0.044 C 
ATOM     12  C   UNL     1      -2.369   2.588  23.839  0.00  0.00    +0.057 C 
ATOM     13  C   UNL     1      -3.254   1.366  23.599  0.00  0.00    +0.042 C 
ATOM     14  C   UNL     1      -0.732  -1.420  24.481  0.00  0.00    +0.172 C 
ATOM     15  C   UNL     1       0.995   0.702  23.847  0.00  0.00    +0.038 A 
ATOM     16  C   UNL     1       0.639  -1.773  23.849  0.00  0.00    +0.068 C 
ATOM     17  C   UNL     1       1.503  -0.570  23.698  0.00  0.00    -0.016 A 
ATOM     19  C   UNL     1       2.886  -0.454  23.393  0.00  0.00    +0.003 A 
ATOM     20  C   UNL     1       3.184   0.912  23.388  0.00  0.00    +0.047 A 
ATOM     25  C   UNL     1       3.919  -1.375  23.124  0.00  0.00    +0.010 A 
ATOM     26  C   UNL     1       4.469   1.401  23.125  0.00  0.00    +0.026 A 
ATOM     28  C   UNL     1       5.207  -0.898  22.859  0.00  0.00    +0.001 A 
ATOM     31  C   UNL     1       5.476   0.469  22.859  0.00  0.00    +0.002 A 
ATOM     39  H   UNL     1       1.945   2.595  23.758  0.00  0.00    +0.166 HD
ENDROOT
BRANCH  10  18
ATOM      1  F   UNL     1      -6.227  -4.171  23.176  0.00  0.00    -0.205 F 
ATOM     18  C   UNL     1      -3.660  -1.047  24.009  0.00  0.00    -0.030 A 
ATOM     23  C   UNL     1      -5.034  -0.820  23.937  0.00  0.00    +0.008 A 
ATOM     24  C   UNL     1      -3.153  -2.330  23.801  0.00  0.00    +0.008 A 
ATOM     29  C   UNL     1      -5.902  -1.875  23.656  0.00  0.00    +0.038 A 
ATOM     30  C   UNL     1      -4.020  -3.385  23.519  0.00  0.00    +0.038 A 
ATOM     33  C   UNL     1      -5.395  -3.158  23.447  0.00  0.00    +0.123 A 
ENDBRANCH  10  18
BRANCH  14  21
ATOM      3  O   UNL     1       0.269  -1.873  26.628  0.00  0.00    -0.249 OA
ATOM     21  C   UNL     1      -0.632  -1.359  25.979  0.00  0.00    +0.325 C 
BRANCH  21   2
ATOM      2  O   UNL     1      -1.687  -0.652  26.477  0.00  0.00    -0.467 OA
ATOM     34  C   UNL     1      -2.703  -1.432  27.115  0.00  0.00    +0.280 C 
ENDBRANCH  21   2
ENDBRANCH  14  21
BRANCH  12   5
ATOM      5  N   UNL     1      -2.854   3.740  23.081  0.00  0.00    -0.313 NA
ATOM     38  H   UNL     1      -2.160   4.009  22.383  0.00  0.00    +0.122 HD
BRANCH   5  22
ATOM     22  C   UNL     1      -3.095   4.873  23.961  0.00  0.00    +0.083 C 
BRANCH  22  27
ATOM     27  C   UNL     1      -2.407   4.654  25.307  0.00  0.00    +0.037 C 
BRANCH  27  32
ATOM     32  C   UNL     1      -3.432   4.561  26.441  0.00  0.00    +0.124 C 
BRANCH  32   7
ATOM      7  N   UNL     1      -4.574   3.644  26.086  0.00  0.00    -0.337 N 
ATOM      8  N   UNL     1      -5.802   1.796  25.968  0.00  0.00    -0.244 NA
ATOM     35  C   UNL     1      -5.686   3.978  25.365  0.00  0.00    +0.106 A 
ATOM     36  C   UNL     1      -4.689   2.324  26.426  0.00  0.00    +0.199 A 
ATOM     37  C   UNL     1      -6.429   2.822  25.306  0.00  0.00    +0.130 A 
ENDBRANCH  32   7
ENDBRANCH  27  32
ENDBRANCH  22  27
ENDBRANCH   5  22
ENDBRANCH  12   5
TORSDOF 8
ENDMDL
MODEL 7
REMARK VINA RESULT:      13.9      3.054      7.262
REMARK  Name = 40780285
REMARK  9 active torsions:
REMARK  status: ('A' for Active; 'I' for Inactive)
REMARK    1  A    between atoms: O_2  and  C_21
REMARK    2  A    between atoms: O_2  and  C_34
REMARK    3  A    between atoms: N_5  and  C_12
REMARK    4  A    between atoms: N_5  and  C_22
REMARK    5  A    between atoms: N_7  and  C_32
REMARK    6  A    between atoms: C_10  and  C_18
REMARK    7  A    between atoms: C_14  and  C_21
REMARK    8  A    between atoms: C_22  and  C_27
REMARK    9  A    between atoms: C_27  and  C_32
REMARK                            x       y       z     vdW  Elec       q    Type
REMARK                         _______ _______ _______ _____ _____    ______ ____
ROOT
ATOM      4  N   UNL     1      -1.743   2.342  25.364  0.00  0.00    -0.274 NA
ATOM      6  N   UNL     1       1.725   2.413  26.807  0.00  0.00    -0.356 N 
ATOM      9  C   UNL     1      -0.269   2.546  25.207  0.00  0.00    +0.106 C 
ATOM     10  C   UNL     1      -2.450   2.379  24.059  0.00  0.00    +0.090 C 
ATOM     11  C   UNL     1       0.331   1.479  24.278  0.00  0.00    +0.044 C 
ATOM     12  C   UNL     1      -0.344   1.522  22.907  0.00  0.00    +0.057 C 
ATOM     13  C   UNL     1      -1.853   1.346  23.073  0.00  0.00    +0.042 C 
ATOM     14  C   UNL     1      -2.337   3.207  26.421  0.00  0.00    +0.172 C 
ATOM     15  C   UNL     1       0.387   2.539  26.555  0.00  0.00    +0.038 A 
ATOM     16  C   UNL     1      -1.733   2.932  27.821  0.00  0.00    +0.068 C 
ATOM     17  C   UNL     1      -0.259   2.731  27.756  0.00  0.00    -0.016 A 
ATOM     19  C   UNL     1       0.717   2.686  28.788  0.00  0.00    +0.003 A 
ATOM     20  C   UNL     1       1.953   2.484  28.164  0.00  0.00    +0.047 A 
ATOM     25  C   UNL     1       0.677   2.801  30.192  0.00  0.00    +0.010 A 
ATOM     26  C   UNL     1       3.152   2.391  28.882  0.00  0.00    +0.026 A 
ATOM     28  C   UNL     1       1.868   2.708  30.920  0.00  0.00    +0.001 A 
ATOM     31  C   UNL     1       3.085   2.506  30.273  0.00  0.00    +0.002 A 
ATOM     39  H   UNL     1       2.445   2.285  26.109  0.00  0.00    +0.166 HD
ENDROOT
BRANCH  10  18
ATOM      1  F   UNL     1      -8.007   1.389  24.415  0.00  0.00    -0.205 F 
ATOM     18  C   UNL     1      -3.950   2.111  24.155  0.00  0.00    -0.030 A 
ATOM     23  C   UNL     1      -4.431   0.804  24.095  0.00  0.00    +0.008 A 
ATOM     24  C   UNL     1      -4.840   3.175  24.303  0.00  0.00    +0.008 A 
ATOM     29  C   UNL     1      -5.801   0.559  24.182  0.00  0.00    +0.038 A 
ATOM     30  C   UNL     1      -6.210   2.932  24.391  0.00  0.00    +0.038 A 
ATOM     33  C   UNL     1      -6.691   1.623  24.330  0.00  0.00    +0.123 A 
ENDBRANCH  10  18
BRANCH  14  21
ATOM      3  O   UNL     1      -3.011   5.521  26.359  0.00  0.00    -0.249 OA
ATOM     21  C   UNL     1      -2.200   4.657  26.053  0.00  0.00    +0.325 C 
BRANCH  21   2
ATOM      2  O   UNL     1      -1.053   4.840  25.340  0.00  0.00    -0.467 OA
ATOM     34  C   UNL     1      -1.023   6.006  24.511  0.00  0.00    +0.280 C 
ENDBRANCH  21   2
ENDBRANCH  14  21
BRANCH  12   5
ATOM      5  N   UNL     1       0.210   0.482  22.041  0.00  0.00    -0.313 NA
ATOM     38  H   UNL     1      -0.549  -0.054  21.618  0.00  0.00    +0.122 HD
BRANCH   5  22
ATOM     22  C   UNL     1       1.056  -0.425  22.802  0.00  0.00    +0.083 C 
BRANCH  22  27
ATOM     27  C   UNL     1       0.240  -1.614  23.306  0.00  0.00    +0.037 C 
BRANCH  27  32
ATOM     32  C   UNL     1      -0.058  -1.482  24.802  0.00  0.00    +0.124 C 
BRANCH  32   7
ATOM      7  N   UNL     1      -1.519  -1.699  25.101  0.00  0.00    -0.337 N 
ATOM      8  N   UNL     1      -3.500  -1.473  26.082  0.00  0.00    -0.244 NA
ATOM     35  C   UNL     1      -2.357  -2.564  24.457  0.00  0.00    +0.106 A 
ATOM     36  C   UNL     1      -2.249  -1.066  26.069  0.00  0.00    +0.199 A 
ATOM     37  C   UNL     1      -3.573  -2.406  25.079  0.00  0.00    +0.130 A 
ENDBRANCH  32   7
ENDBRANCH  27  32
ENDBRANCH  22  27
ENDBRANCH   5  22
ENDBRANCH  12   5
TORSDOF 8
ENDMDL
MODEL 8
REMARK VINA RESULT:      14.1      3.505      8.372
REMARK  Name = 40780285
REMARK  9 active torsions:
REMARK  status: ('A' for Active; 'I' for Inactive)
REMARK    1  A    between atoms: O_2  and  C_21
REMARK    2  A    between atoms: O_2  and  C_34
REMARK    3  A    between atoms: N_5  and  C_12
REMARK    4  A    between atoms: N_5  and  C_22
REMARK    5  A    between atoms: N_7  and  C_32
REMARK    6  A    between atoms: C_10  and  C_18
REMARK    7  A    between atoms: C_14  and  C_21
REMARK    8  A    between atoms: C_22  and  C_27
REMARK    9  A    between atoms: C_27  and  C_32
REMARK                            x       y       z     vdW  Elec       q    Type
REMARK                         _______ _______ _______ _____ _____    ______ ____
ROOT
ATOM      4  N   UNL     1      -1.675   2.177  25.226  0.00  0.00    -0.274 NA
ATOM      6  N   UNL     1       1.814   2.249  26.618  0.00  0.00    -0.356 N 
ATOM      9  C   UNL     1      -0.197   2.310  25.035  0.00  0.00    +0.106 C 
ATOM     10  C   UNL     1      -2.399   2.120  23.932  0.00  0.00    +0.090 C 
ATOM     11  C   UNL     1       0.350   1.141  24.201  0.00  0.00    +0.044 C 
ATOM     12  C   UNL     1      -0.343   1.084  22.839  0.00  0.00    +0.057 C 
ATOM     13  C   UNL     1      -1.854   0.980  23.038  0.00  0.00    +0.042 C 
ATOM     14  C   UNL     1      -2.222   3.155  26.206  0.00  0.00    +0.172 C 
ATOM     15  C   UNL     1       0.478   2.401  26.371  0.00  0.00    +0.038 A 
ATOM     16  C   UNL     1      -1.608   2.987  27.619  0.00  0.00    +0.068 C 
ATOM     17  C   UNL     1      -0.143   2.727  27.556  0.00  0.00    -0.016 A 
ATOM     19  C   UNL     1       0.845   2.739  28.577  0.00  0.00    +0.003 A 
ATOM     20  C   UNL     1       2.064   2.435  27.961  0.00  0.00    +0.047 A 
ATOM     25  C   UNL     1       0.830   2.983  29.965  0.00  0.00    +0.010 A 
ATOM     26  C   UNL     1       3.269   2.363  28.671  0.00  0.00    +0.026 A 
ATOM     28  C   UNL     1       2.027   2.912  30.685  0.00  0.00    +0.001 A 
ATOM     31  C   UNL     1       3.226   2.607  30.046  0.00  0.00    +0.002 A 
ATOM     39  H   UNL     1       2.518   2.031  25.928  0.00  0.00    +0.166 HD
ENDROOT
BRANCH  10  18
ATOM      1  F   UNL     1      -7.982   1.375  24.441  0.00  0.00    -0.205 F 
ATOM     18  C   UNL     1      -3.907   1.919  24.069  0.00  0.00    -0.030 A 
ATOM     23  C   UNL     1      -4.770   3.004  23.925  0.00  0.00    +0.008 A 
ATOM     24  C   UNL     1      -4.419   0.650  24.339  0.00  0.00    +0.008 A 
ATOM     29  C   UNL     1      -6.148   2.821  24.050  0.00  0.00    +0.038 A 
ATOM     30  C   UNL     1      -5.795   0.466  24.465  0.00  0.00    +0.038 A 
ATOM     33  C   UNL     1      -6.660   1.552  24.321  0.00  0.00    +0.123 A 
ENDBRANCH  10  18
BRANCH  14  21
ATOM      3  O   UNL     1      -1.023   4.964  25.153  0.00  0.00    -0.249 OA
ATOM     21  C   UNL     1      -2.038   4.560  25.705  0.00  0.00    +0.325 C 
BRANCH  21   2
ATOM      2  O   UNL     1      -3.163   5.286  25.963  0.00  0.00    -0.467 OA
ATOM     34  C   UNL     1      -4.234   4.563  26.578  0.00  0.00    +0.280 C 
ENDBRANCH  21   2
ENDBRANCH  14  21
BRANCH  12   5
ATOM      5  N   UNL     1       0.161  -0.050  22.067  0.00  0.00    -0.313 NA
ATOM     38  H   UNL     1      -0.481  -0.839  22.155  0.00  0.00    +0.122 HD
BRANCH   5  22
ATOM     22  C   UNL     1       1.473  -0.458  22.545  0.00  0.00    +0.083 C 
BRANCH  22  27
ATOM     27  C   UNL     1       2.565   0.096  21.633  0.00  0.00    +0.037 C 
BRANCH  27  32
ATOM     32  C   UNL     1       3.564   0.946  22.423  0.00  0.00    +0.124 C 
BRANCH  32   7
ATOM      7  N   UNL     1       4.495   0.092  23.244  0.00  0.00    -0.337 N 
ATOM      8  N   UNL     1       5.308  -1.693  24.288  0.00  0.00    -0.244 NA
ATOM     35  C   UNL     1       5.670   0.494  23.816  0.00  0.00    +0.106 A 
ATOM     36  C   UNL     1       4.321  -1.228  23.555  0.00  0.00    +0.199 A 
ATOM     37  C   UNL     1       6.153  -0.624  24.454  0.00  0.00    +0.130 A 
ENDBRANCH  32   7
ENDBRANCH  27  32
ENDBRANCH  22  27
ENDBRANCH   5  22
ENDBRANCH  12   5
TORSDOF 8
ENDMDL
