MODEL 1
REMARK VINA RESULT:      -1.9      0.000      0.000
REMARK  Name = 71693892
REMARK  8 active torsions:
REMARK  status: ('A' for Active; 'I' for Inactive)
REMARK    1  A    between atoms: O_2  and  C_9
REMARK    2  A    between atoms: O_3  and  C_11
REMARK    3  A    between atoms: O_5  and  C_19
REMARK    4  A    between atoms: O_5  and  C_25
REMARK    5  A    between atoms: N_6  and  C_8
REMARK    6  A    between atoms: C_7  and  C_12
REMARK    7  A    between atoms: C_15  and  C_16
REMARK    8  A    between atoms: C_16  and  C_20
REMARK                            x       y       z     vdW  Elec       q    Type
REMARK                         _______ _______ _______ _____ _____    ______ ____
ROOT
ATOM      7  C   UNL     1      -1.132   2.595  25.315  0.00  0.00    +0.044 C 
ATOM      8  C   UNL     1      -2.409   2.914  24.506  0.00  0.00    +0.111 C 
ATOM      9  C   UNL     1      -2.876   4.248  25.090  0.00  0.00    +0.164 C 
ATOM     10  C   UNL     1      -0.620   3.956  25.853  0.00  0.00    +0.044 C 
ATOM     11  C   UNL     1      -1.573   5.011  25.294  0.00  0.00    +0.145 C 
ENDROOT
BRANCH   7  12
ATOM     12  C   UNL     1      -0.107   1.814  24.520  0.00  0.00    -0.042 A 
ATOM     13  C   UNL     1       1.066   2.437  24.091  0.00  0.00    +0.007 A 
ATOM     14  C   UNL     1      -0.335   0.472  24.217  0.00  0.00    +0.007 A 
ATOM     17  C   UNL     1       2.010   1.717  23.359  0.00  0.00    +0.046 A 
ATOM     18  C   UNL     1       0.609  -0.248  23.485  0.00  0.00    +0.046 A 
ATOM     19  C   UNL     1       1.782   0.375  23.057  0.00  0.00    +0.120 A 
BRANCH  19   5
ATOM      5  O   UNL     1       2.704  -0.327  22.343  0.00  0.00    -0.495 OA
ATOM     25  C   UNL     1       4.029   0.199  22.299  0.00  0.00    +0.277 C 
ENDBRANCH  19   5
ENDBRANCH   7  12
BRANCH   8   6
ATOM      4  O   UNL     1      -4.892   3.111  25.946  0.00  0.00    -0.275 OA
ATOM      6  N   UNL     1      -3.408   1.887  24.645  0.00  0.00    -0.309 N 
ATOM     15  C   UNL     1      -4.584   2.074  25.364  0.00  0.00    +0.218 C 
ATOM     27  H   UNL     1      -3.265   1.016  24.144  0.00  0.00    +0.149 HD
BRANCH  15  16
ATOM     16  C   UNL     1      -5.456   0.834  25.343  0.00  0.00    +0.130 C 
BRANCH  16  20
ATOM      1 CL   UNL     1      -2.452  -4.167  23.868  0.00  0.00    -0.084 Cl
ATOM     20  C   UNL     1      -4.704  -0.419  24.975  0.00  0.00    -0.039 A 
ATOM     21  C   UNL     1      -4.989  -1.076  23.778  0.00  0.00    +0.005 A 
ATOM     22  C   UNL     1      -3.724  -0.921  25.831  0.00  0.00    +0.005 A 
ATOM     23  C   UNL     1      -4.293  -2.235  23.436  0.00  0.00    +0.020 A 
ATOM     24  C   UNL     1      -3.029  -2.080  25.489  0.00  0.00    +0.020 A 
ATOM     26  C   UNL     1      -3.313  -2.737  24.292  0.00  0.00    +0.041 A 
ENDBRANCH  16  20
ENDBRANCH  15  16
ENDBRANCH   8   6
BRANCH   9   2
ATOM      2  O   UNL     1      -3.744   4.942  24.215  0.00  0.00    -0.387 OA
ATOM     28  H   UNL     1      -4.438   5.354  24.759  0.00  0.00    +0.210 HD
ENDBRANCH   9   2
BRANCH  11   3
ATOM      3  O   UNL     1      -1.057   5.479  24.052  0.00  0.00    -0.389 OA
ATOM     29  H   UNL     1      -1.349   4.859  23.362  0.00  0.00    +0.210 HD
ENDBRANCH  11   3
TORSDOF 7
ENDMDL
MODEL 2
REMARK VINA RESULT:      -1.2      3.059      6.712
REMARK  Name = 71693892
REMARK  8 active torsions:
REMARK  status: ('A' for Active; 'I' for Inactive)
REMARK    1  A    between atoms: O_2  and  C_9
REMARK    2  A    between atoms: O_3  and  C_11
REMARK    3  A    between atoms: O_5  and  C_19
REMARK    4  A    between atoms: O_5  and  C_25
REMARK    5  A    between atoms: N_6  and  C_8
REMARK    6  A    between atoms: C_7  and  C_12
REMARK    7  A    between atoms: C_15  and  C_16
REMARK    8  A    between atoms: C_16  and  C_20
REMARK                            x       y       z     vdW  Elec       q    Type
REMARK                         _______ _______ _______ _____ _____    ______ ____
ROOT
ATOM      7  C   UNL     1      -1.260  -0.438  25.570  0.00  0.00    +0.044 C 
ATOM      8  C   UNL     1      -1.644  -1.108  24.232  0.00  0.00    +0.111 C 
ATOM      9  C   UNL     1      -2.224  -2.455  24.664  0.00  0.00    +0.164 C 
ATOM     10  C   UNL     1      -2.141  -1.115  26.651  0.00  0.00    +0.044 C 
ATOM     11  C   UNL     1      -3.036  -2.100  25.903  0.00  0.00    +0.145 C 
ENDROOT
BRANCH   7  12
ATOM     12  C   UNL     1      -1.373   1.072  25.529  0.00  0.00    -0.042 A 
ATOM     13  C   UNL     1      -0.307   1.864  25.958  0.00  0.00    +0.007 A 
ATOM     14  C   UNL     1      -2.543   1.670  25.062  0.00  0.00    +0.007 A 
ATOM     17  C   UNL     1      -0.412   3.254  25.920  0.00  0.00    +0.046 A 
ATOM     18  C   UNL     1      -2.647   3.061  25.024  0.00  0.00    +0.046 A 
ATOM     19  C   UNL     1      -1.582   3.852  25.453  0.00  0.00    +0.120 A 
BRANCH  19   5
ATOM      5  O   UNL     1      -1.683   5.209  25.415  0.00  0.00    -0.495 OA
ATOM     25  C   UNL     1      -0.728   5.910  24.620  0.00  0.00    +0.277 C 
ENDBRANCH  19   5
ENDBRANCH   7  12
BRANCH   8   6
ATOM      4  O   UNL     1      -0.070   0.992  23.052  0.00  0.00    -0.275 OA
ATOM      6  N   UNL     1      -0.507  -1.267  23.362  0.00  0.00    -0.309 N 
ATOM     15  C   UNL     1       0.195  -0.188  22.837  0.00  0.00    +0.218 C 
ATOM     27  H   UNL     1      -0.179  -2.211  23.179  0.00  0.00    +0.149 HD
BRANCH  15  16
ATOM     16  C   UNL     1       1.345  -0.642  21.960  0.00  0.00    +0.130 C 
BRANCH  16  20
ATOM      1 CL   UNL     1       6.755   0.518  24.325  0.00  0.00    -0.084 Cl
ATOM     20  C   UNL     1       2.699  -0.351  22.553  0.00  0.00    -0.039 A 
ATOM     21  C   UNL     1       3.348  -1.319  23.318  0.00  0.00    +0.005 A 
ATOM     22  C   UNL     1       3.304   0.888  22.336  0.00  0.00    +0.005 A 
ATOM     23  C   UNL     1       4.601  -1.051  23.867  0.00  0.00    +0.020 A 
ATOM     24  C   UNL     1       4.557   1.156  22.885  0.00  0.00    +0.020 A 
ATOM     26  C   UNL     1       5.206   0.188  23.650  0.00  0.00    +0.041 A 
ENDBRANCH  16  20
ENDBRANCH  15  16
ENDBRANCH   8   6
BRANCH   9   2
ATOM      2  O   UNL     1      -3.043  -3.031  23.663  0.00  0.00    -0.387 OA
ATOM     28  H   UNL     1      -2.829  -3.980  23.623  0.00  0.00    +0.210 HD
ENDBRANCH   9   2
BRANCH  11   3
ATOM      3  O   UNL     1      -4.246  -1.437  25.547  0.00  0.00    -0.389 OA
ATOM     29  H   UNL     1      -4.762  -1.314  26.362  0.00  0.00    +0.210 HD
ENDBRANCH  11   3
TORSDOF 7
ENDMDL
MODEL 3
REMARK VINA RESULT:      -0.9      3.096      7.194
REMARK  Name = 71693892
REMARK  8 active torsions:
REMARK  status: ('A' for Active; 'I' for Inactive)
REMARK    1  A    between atoms: O_2  and  C_9
REMARK    2  A    between atoms: O_3  and  C_11
REMARK    3  A    between atoms: O_5  and  C_19
REMARK    4  A    between atoms: O_5  and  C_25
REMARK    5  A    between atoms: N_6  and  C_8
REMARK    6  A    between atoms: C_7  and  C_12
REMARK    7  A    between atoms: C_15  and  C_16
REMARK    8  A    between atoms: C_16  and  C_20
REMARK                            x       y       z     vdW  Elec       q    Type
REMARK                         _______ _______ _______ _____ _____    ______ ____
ROOT
ATOM      7  C   UNL     1      -1.903  -0.159  25.251  0.00  0.00    +0.044 C 
ATOM      8  C   UNL     1      -1.901  -1.035  23.978  0.00  0.00    +0.111 C 
ATOM      9  C   UNL     1      -1.790  -2.458  24.526  0.00  0.00    +0.164 C 
ATOM     10  C   UNL     1      -2.384  -1.083  26.399  0.00  0.00    +0.044 C 
ATOM     11  C   UNL     1      -2.698  -2.428  25.750  0.00  0.00    +0.145 C 
ENDROOT
BRANCH   7  12
ATOM     12  C   UNL     1      -2.711   1.112  25.094  0.00  0.00    -0.042 A 
ATOM     13  C   UNL     1      -2.108   2.353  25.299  0.00  0.00    +0.007 A 
ATOM     14  C   UNL     1      -4.059   1.042  24.742  0.00  0.00    +0.007 A 
ATOM     17  C   UNL     1      -2.852   3.523  25.153  0.00  0.00    +0.046 A 
ATOM     18  C   UNL     1      -4.804   2.213  24.597  0.00  0.00    +0.046 A 
ATOM     19  C   UNL     1      -4.200   3.453  24.802  0.00  0.00    +0.120 A 
BRANCH  19   5
ATOM      5  O   UNL     1      -4.926   4.595  24.660  0.00  0.00    -0.495 OA
ATOM     25  C   UNL     1      -6.029   4.778  25.545  0.00  0.00    +0.277 C 
ENDBRANCH  19   5
ENDBRANCH   7  12
BRANCH   8   6
ATOM      4  O   UNL     1       0.446   0.490  24.643  0.00  0.00    -0.275 OA
ATOM      6  N   UNL     1      -0.807  -0.710  23.100  0.00  0.00    -0.309 N 
ATOM     15  C   UNL     1       0.292   0.036  23.512  0.00  0.00    +0.218 C 
ATOM     27  H   UNL     1      -0.821  -1.098  22.162  0.00  0.00    +0.149 HD
BRANCH  15  16
ATOM     16  C   UNL     1       1.294   0.223  22.390  0.00  0.00    +0.130 C 
BRANCH  16  20
ATOM      1 CL   UNL     1       7.004  -0.507  24.142  0.00  0.00    -0.084 Cl
ATOM     20  C   UNL     1       2.723   0.041  22.830  0.00  0.00    -0.039 A 
ATOM     21  C   UNL     1       3.138  -1.178  23.364  0.00  0.00    +0.005 A 
ATOM     22  C   UNL     1       3.631   1.093  22.702  0.00  0.00    +0.005 A 
ATOM     23  C   UNL     1       4.461  -1.348  23.771  0.00  0.00    +0.020 A 
ATOM     24  C   UNL     1       4.954   0.923  23.108  0.00  0.00    +0.020 A 
ATOM     26  C   UNL     1       5.369  -0.296  23.643  0.00  0.00    +0.041 A 
ENDBRANCH  16  20
ENDBRANCH  15  16
ENDBRANCH   8   6
BRANCH   9   2
ATOM      2  O   UNL     1      -2.223  -3.428  23.591  0.00  0.00    -0.387 OA
ATOM     28  H   UNL     1      -2.538  -2.952  22.803  0.00  0.00    +0.210 HD
ENDBRANCH   9   2
BRANCH  11   3
ATOM      3  O   UNL     1      -4.070  -2.442  25.367  0.00  0.00    -0.389 OA
ATOM     29  H   UNL     1      -4.251  -1.609  24.900  0.00  0.00    +0.210 HD
ENDBRANCH  11   3
TORSDOF 7
ENDMDL
MODEL 4
REMARK VINA RESULT:      -0.7      3.091      5.282
REMARK  Name = 71693892
REMARK  8 active torsions:
REMARK  status: ('A' for Active; 'I' for Inactive)
REMARK    1  A    between atoms: O_2  and  C_9
REMARK    2  A    between atoms: O_3  and  C_11
REMARK    3  A    between atoms: O_5  and  C_19
REMARK    4  A    between atoms: O_5  and  C_25
REMARK    5  A    between atoms: N_6  and  C_8
REMARK    6  A    between atoms: C_7  and  C_12
REMARK    7  A    between atoms: C_15  and  C_16
REMARK    8  A    between atoms: C_16  and  C_20
REMARK                            x       y       z     vdW  Elec       q    Type
REMARK                         _______ _______ _______ _____ _____    ______ ____
ROOT
ATOM      7  C   UNL     1       0.082  -0.304  23.402  0.00  0.00    +0.044 C 
ATOM      8  C   UNL     1      -0.478   0.193  24.753  0.00  0.00    +0.111 C 
ATOM      9  C   UNL     1      -1.698  -0.699  24.982  0.00  0.00    +0.164 C 
ATOM     10  C   UNL     1      -0.437  -1.755  23.236  0.00  0.00    +0.044 C 
ATOM     11  C   UNL     1      -1.220  -2.066  24.510  0.00  0.00    +0.145 C 
ENDROOT
BRANCH   7  12
ATOM     12  C   UNL     1       1.586  -0.164  23.296  0.00  0.00    -0.042 A 
ATOM     13  C   UNL     1       2.147   1.040  22.871  0.00  0.00    +0.007 A 
ATOM     14  C   UNL     1       2.410  -1.240  23.626  0.00  0.00    +0.007 A 
ATOM     17  C   UNL     1       3.533   1.168  22.775  0.00  0.00    +0.046 A 
ATOM     18  C   UNL     1       3.797  -1.112  23.529  0.00  0.00    +0.046 A 
ATOM     19  C   UNL     1       4.357   0.093  23.104  0.00  0.00    +0.120 A 
BRANCH  19   5
ATOM      5  O   UNL     1       5.709   0.219  23.010  0.00  0.00    -0.495 OA
ATOM     25  C   UNL     1       6.498  -0.571  23.899  0.00  0.00    +0.277 C 
ENDBRANCH  19   5
ENDBRANCH   7  12
BRANCH   8   6
ATOM      4  O   UNL     1       0.945   2.369  25.986  0.00  0.00    -0.275 OA
ATOM      6  N   UNL     1      -0.832   1.588  24.712  0.00  0.00    -0.309 N 
ATOM     15  C   UNL     1      -0.080   2.574  25.341  0.00  0.00    +0.218 C 
ATOM     27  H   UNL     1      -1.632   1.857  24.147  0.00  0.00    +0.149 HD
BRANCH  15  16
ATOM     16  C   UNL     1      -0.675   3.952  25.131  0.00  0.00    +0.130 C 
BRANCH  16  20
ATOM      1 CL   UNL     1      -6.678   4.049  25.540  0.00  0.00    -0.084 Cl
ATOM     20  C   UNL     1      -2.178   3.975  25.233  0.00  0.00    -0.039 A 
ATOM     21  C   UNL     1      -2.789   4.168  26.471  0.00  0.00    +0.005 A 
ATOM     22  C   UNL     1      -2.958   3.803  24.089  0.00  0.00    +0.005 A 
ATOM     23  C   UNL     1      -4.180   4.190  26.567  0.00  0.00    +0.020 A 
ATOM     24  C   UNL     1      -4.349   3.825  24.184  0.00  0.00    +0.020 A 
ATOM     26  C   UNL     1      -4.960   4.018  25.422  0.00  0.00    +0.041 A 
ENDBRANCH  16  20
ENDBRANCH  15  16
ENDBRANCH   8   6
BRANCH   9   2
ATOM      2  O   UNL     1      -2.089  -0.734  26.341  0.00  0.00    -0.387 OA
ATOM     28  H   UNL     1      -3.062  -0.748  26.365  0.00  0.00    +0.210 HD
ENDBRANCH   9   2
BRANCH  11   3
ATOM      3  O   UNL     1      -0.334  -2.652  25.459  0.00  0.00    -0.389 OA
ATOM     29  H   UNL     1       0.037  -3.455  25.055  0.00  0.00    +0.210 HD
ENDBRANCH  11   3
TORSDOF 7
ENDMDL
MODEL 5
REMARK VINA RESULT:      -0.7      3.007      5.197
REMARK  Name = 71693892
REMARK  8 active torsions:
REMARK  status: ('A' for Active; 'I' for Inactive)
REMARK    1  A    between atoms: O_2  and  C_9
REMARK    2  A    between atoms: O_3  and  C_11
REMARK    3  A    between atoms: O_5  and  C_19
REMARK    4  A    between atoms: O_5  and  C_25
REMARK    5  A    between atoms: N_6  and  C_8
REMARK    6  A    between atoms: C_7  and  C_12
REMARK    7  A    between atoms: C_15  and  C_16
REMARK    8  A    between atoms: C_16  and  C_20
REMARK                            x       y       z     vdW  Elec       q    Type
REMARK                         _______ _______ _______ _____ _____    ______ ____
ROOT
ATOM      7  C   UNL     1      -1.669  -0.916  23.688  0.00  0.00    +0.044 C 
ATOM      8  C   UNL     1      -2.290  -0.697  25.086  0.00  0.00    +0.111 C 
ATOM      9  C   UNL     1      -3.095  -1.975  25.321  0.00  0.00    +0.164 C 
ATOM     10  C   UNL     1      -1.643  -2.451  23.473  0.00  0.00    +0.044 C 
ATOM     11  C   UNL     1      -2.187  -3.063  24.761  0.00  0.00    +0.145 C 
ENDROOT
BRANCH   7  12
ATOM     12  C   UNL     1      -0.323  -0.241  23.526  0.00  0.00    -0.042 A 
ATOM     13  C   UNL     1      -0.082   0.990  24.137  0.00  0.00    +0.007 A 
ATOM     14  C   UNL     1       0.675  -0.851  22.767  0.00  0.00    +0.007 A 
ATOM     17  C   UNL     1       1.158   1.611  23.987  0.00  0.00    +0.046 A 
ATOM     18  C   UNL     1       1.915  -0.229  22.616  0.00  0.00    +0.046 A 
ATOM     19  C   UNL     1       2.156   1.001  23.228  0.00  0.00    +0.120 A 
BRANCH  19   5
ATOM      5  O   UNL     1       3.366   1.608  23.083  0.00  0.00    -0.495 OA
ATOM     25  C   UNL     1       4.508   0.760  22.969  0.00  0.00    +0.277 C 
ENDBRANCH  19   5
ENDBRANCH   7  12
BRANCH   8   6
ATOM      4  O   UNL     1      -5.090  -0.544  24.443  0.00  0.00    -0.275 OA
ATOM      6  N   UNL     1      -3.122   0.478  25.129  0.00  0.00    -0.309 N 
ATOM     15  C   UNL     1      -4.472   0.456  24.800  0.00  0.00    +0.218 C 
ATOM     27  H   UNL     1      -2.708   1.339  25.474  0.00  0.00    +0.149 HD
BRANCH  15  16
ATOM     16  C   UNL     1      -5.105   1.826  24.938  0.00  0.00    +0.130 C 
BRANCH  16  20
ATOM      1 CL   UNL     1      -1.088   6.306  25.012  0.00  0.00    -0.084 Cl
ATOM     20  C   UNL     1      -4.100   2.949  24.956  0.00  0.00    -0.039 A 
ATOM     21  C   UNL     1      -3.930   3.714  26.109  0.00  0.00    +0.005 A 
ATOM     22  C   UNL     1      -3.340   3.222  23.818  0.00  0.00    +0.005 A 
ATOM     23  C   UNL     1      -2.999   4.752  26.126  0.00  0.00    +0.020 A 
ATOM     24  C   UNL     1      -2.410   4.260  23.835  0.00  0.00    +0.020 A 
ATOM     26  C   UNL     1      -2.240   5.025  24.989  0.00  0.00    +0.041 A 
ENDBRANCH  16  20
ENDBRANCH  15  16
ENDBRANCH   8   6
BRANCH   9   2
ATOM      2  O   UNL     1      -3.368  -2.192  26.693  0.00  0.00    -0.387 OA
ATOM     28  H   UNL     1      -2.638  -2.723  27.055  0.00  0.00    +0.210 HD
ENDBRANCH   9   2
BRANCH  11   3
ATOM      3  O   UNL     1      -1.097  -3.320  25.641  0.00  0.00    -0.389 OA
ATOM     29  H   UNL     1      -0.912  -4.274  25.606  0.00  0.00    +0.210 HD
ENDBRANCH  11   3
TORSDOF 7
ENDMDL
MODEL 6
REMARK VINA RESULT:      -0.5      2.903      6.339
REMARK  Name = 71693892
REMARK  8 active torsions:
REMARK  status: ('A' for Active; 'I' for Inactive)
REMARK    1  A    between atoms: O_2  and  C_9
REMARK    2  A    between atoms: O_3  and  C_11
REMARK    3  A    between atoms: O_5  and  C_19
REMARK    4  A    between atoms: O_5  and  C_25
REMARK    5  A    between atoms: N_6  and  C_8
REMARK    6  A    between atoms: C_7  and  C_12
REMARK    7  A    between atoms: C_15  and  C_16
REMARK    8  A    between atoms: C_16  and  C_20
REMARK                            x       y       z     vdW  Elec       q    Type
REMARK                         _______ _______ _______ _____ _____    ______ ____
ROOT
ATOM      7  C   UNL     1      -2.351   1.908  23.781  0.00  0.00    +0.044 C 
ATOM      8  C   UNL     1      -0.941   2.247  24.313  0.00  0.00    +0.111 C 
ATOM      9  C   UNL     1      -0.992   3.761  24.519  0.00  0.00    +0.164 C 
ATOM     10  C   UNL     1      -3.272   3.060  24.259  0.00  0.00    +0.044 C 
ATOM     11  C   UNL     1      -2.386   3.983  25.093  0.00  0.00    +0.145 C 
ENDROOT
BRANCH   7  12
ATOM     12  C   UNL     1      -2.820   0.526  24.184  0.00  0.00    -0.042 A 
ATOM     13  C   UNL     1      -2.460   0.002  25.426  0.00  0.00    +0.007 A 
ATOM     14  C   UNL     1      -3.614  -0.222  23.315  0.00  0.00    +0.007 A 
ATOM     17  C   UNL     1      -2.893  -1.271  25.798  0.00  0.00    +0.046 A 
ATOM     18  C   UNL     1      -4.047  -1.495  23.687  0.00  0.00    +0.046 A 
ATOM     19  C   UNL     1      -3.687  -2.019  24.928  0.00  0.00    +0.120 A 
BRANCH  19   5
ATOM      5  O   UNL     1      -4.110  -3.260  25.292  0.00  0.00    -0.495 OA
ATOM     25  C   UNL     1      -4.124  -4.264  24.278  0.00  0.00    +0.277 C 
ENDBRANCH  19   5
ENDBRANCH   7  12
BRANCH   8   6
ATOM      4  O   UNL     1       0.084  -0.406  23.868  0.00  0.00    -0.275 OA
ATOM      6  N   UNL     1       0.093   1.865  23.385  0.00  0.00    -0.309 N 
ATOM     15  C   UNL     1       0.525   0.552  23.238  0.00  0.00    +0.218 C 
ATOM     27  H   UNL     1       0.472   2.585  22.776  0.00  0.00    +0.149 HD
BRANCH  15  16
ATOM     16  C   UNL     1       1.615   0.435  22.192  0.00  0.00    +0.130 C 
BRANCH  16  20
ATOM      1 CL   UNL     1       7.031  -0.774  24.520  0.00  0.00    -0.084 Cl
ATOM     20  C   UNL     1       2.971   0.132  22.773  0.00  0.00    -0.039 A 
ATOM     21  C   UNL     1       3.965   1.110  22.772  0.00  0.00    +0.005 A 
ATOM     22  C   UNL     1       3.232  -1.128  23.314  0.00  0.00    +0.005 A 
ATOM     23  C   UNL     1       5.220   0.830  23.311  0.00  0.00    +0.020 A 
ATOM     24  C   UNL     1       4.487  -1.408  23.853  0.00  0.00    +0.020 A 
ATOM     26  C   UNL     1       5.481  -0.429  23.851  0.00  0.00    +0.041 A 
ENDBRANCH  16  20
ENDBRANCH  15  16
ENDBRANCH   8   6
BRANCH   9   2
ATOM      2  O   UNL     1       0.007   4.215  25.411  0.00  0.00    -0.387 OA
ATOM     28  H   UNL     1      -0.388   4.913  25.961  0.00  0.00    +0.210 HD
ENDBRANCH   9   2
BRANCH  11   3
ATOM      3  O   UNL     1      -2.449   3.570  26.454  0.00  0.00    -0.389 OA
ATOM     29  H   UNL     1      -1.718   4.005  26.926  0.00  0.00    +0.210 HD
ENDBRANCH  11   3
TORSDOF 7
ENDMDL
MODEL 7
REMARK VINA RESULT:       0.6      2.281      5.572
REMARK  Name = 71693892
REMARK  8 active torsions:
REMARK  status: ('A' for Active; 'I' for Inactive)
REMARK    1  A    between atoms: O_2  and  C_9
REMARK    2  A    between atoms: O_3  and  C_11
REMARK    3  A    between atoms: O_5  and  C_19
REMARK    4  A    between atoms: O_5  and  C_25
REMARK    5  A    between atoms: N_6  and  C_8
REMARK    6  A    between atoms: C_7  and  C_12
REMARK    7  A    between atoms: C_15  and  C_16
REMARK    8  A    between atoms: C_16  and  C_20
REMARK                            x       y       z     vdW  Elec       q    Type
REMARK                         _______ _______ _______ _____ _____    ______ ____
ROOT
ATOM      7  C   UNL     1      -4.319   1.814  24.332  0.00  0.00    +0.044 C 
ATOM      8  C   UNL     1      -3.439   2.677  25.262  0.00  0.00    +0.111 C 
ATOM      9  C   UNL     1      -4.291   3.923  25.503  0.00  0.00    +0.164 C 
ATOM     10  C   UNL     1      -5.776   2.288  24.567  0.00  0.00    +0.044 C 
ATOM     11  C   UNL     1      -5.697   3.355  25.656  0.00  0.00    +0.145 C 
ENDROOT
BRANCH   7  12
ATOM     12  C   UNL     1      -4.108   0.327  24.528  0.00  0.00    -0.042 A 
ATOM     13  C   UNL     1      -4.489  -0.570  23.530  0.00  0.00    +0.007 A 
ATOM     14  C   UNL     1      -3.532  -0.145  25.707  0.00  0.00    +0.007 A 
ATOM     17  C   UNL     1      -4.294  -1.939  23.711  0.00  0.00    +0.046 A 
ATOM     18  C   UNL     1      -3.338  -1.515  25.889  0.00  0.00    +0.046 A 
ATOM     19  C   UNL     1      -3.718  -2.411  24.891  0.00  0.00    +0.120 A 
BRANCH  19   5
ATOM      5  O   UNL     1      -3.527  -3.747  25.067  0.00  0.00    -0.495 OA
ATOM     25  C   UNL     1      -3.556  -4.567  23.899  0.00  0.00    +0.277 C 
ENDBRANCH  19   5
ENDBRANCH   7  12
BRANCH   8   6
ATOM      4  O   UNL     1      -0.869   2.692  26.558  0.00  0.00    -0.275 OA
ATOM      6  N   UNL     1      -2.171   3.001  24.660  0.00  0.00    -0.309 N 
ATOM     15  C   UNL     1      -0.975   2.981  25.368  0.00  0.00    +0.218 C 
ATOM     27  H   UNL     1      -2.156   3.192  23.663  0.00  0.00    +0.149 HD
BRANCH  15  16
ATOM     16  C   UNL     1       0.202   3.357  24.490  0.00  0.00    +0.130 C 
BRANCH  16  20
ATOM      1 CL   UNL     1       2.968  -1.394  22.044  0.00  0.00    -0.084 Cl
ATOM     20  C   UNL     1       0.894   2.168  23.876  0.00  0.00    -0.039 A 
ATOM     21  C   UNL     1       2.223   2.269  23.467  0.00  0.00    +0.005 A 
ATOM     22  C   UNL     1       0.204   0.965  23.718  0.00  0.00    +0.005 A 
ATOM     23  C   UNL     1       2.864   1.169  22.900  0.00  0.00    +0.020 A 
ATOM     24  C   UNL     1       0.845  -0.136  23.151  0.00  0.00    +0.020 A 
ATOM     26  C   UNL     1       2.175  -0.034  22.742  0.00  0.00    +0.041 A 
ENDBRANCH  16  20
ENDBRANCH  15  16
ENDBRANCH   8   6
BRANCH   9   2
ATOM      2  O   UNL     1      -3.894   4.628  26.664  0.00  0.00    -0.387 OA
ATOM     28  H   UNL     1      -4.508   5.375  26.775  0.00  0.00    +0.210 HD
ENDBRANCH   9   2
BRANCH  11   3
ATOM      3  O   UNL     1      -5.857   2.726  26.924  0.00  0.00    -0.389 OA
ATOM     29  H   UNL     1      -5.787   3.417  27.605  0.00  0.00    +0.210 HD
ENDBRANCH  11   3
TORSDOF 7
ENDMDL
MODEL 8
REMARK VINA RESULT:       1.3      2.562      5.499
REMARK  Name = 71693892
REMARK  8 active torsions:
REMARK  status: ('A' for Active; 'I' for Inactive)
REMARK    1  A    between atoms: O_2  and  C_9
REMARK    2  A    between atoms: O_3  and  C_11
REMARK    3  A    between atoms: O_5  and  C_19
REMARK    4  A    between atoms: O_5  and  C_25
REMARK    5  A    between atoms: N_6  and  C_8
REMARK    6  A    between atoms: C_7  and  C_12
REMARK    7  A    between atoms: C_15  and  C_16
REMARK    8  A    between atoms: C_16  and  C_20
REMARK                            x       y       z     vdW  Elec       q    Type
REMARK                         _______ _______ _______ _____ _____    ______ ____
ROOT
ATOM      7  C   UNL     1      -4.793   1.378  24.339  0.00  0.00    +0.044 C 
ATOM      8  C   UNL     1      -4.532   2.426  25.443  0.00  0.00    +0.111 C 
ATOM      9  C   UNL     1      -5.843   3.209  25.508  0.00  0.00    +0.164 C 
ATOM     10  C   UNL     1      -6.333   1.218  24.263  0.00  0.00    +0.044 C 
ATOM     11  C   UNL     1      -6.901   2.124  25.353  0.00  0.00    +0.145 C 
ENDROOT
BRANCH   7  12
ATOM     12  C   UNL     1      -4.042   0.082  24.563  0.00  0.00    -0.042 A 
ATOM     13  C   UNL     1      -4.520  -1.106  24.010  0.00  0.00    +0.007 A 
ATOM     14  C   UNL     1      -2.872   0.077  25.322  0.00  0.00    +0.007 A 
ATOM     17  C   UNL     1      -3.828  -2.299  24.217  0.00  0.00    +0.046 A 
ATOM     18  C   UNL     1      -2.180  -1.117  25.529  0.00  0.00    +0.046 A 
ATOM     19  C   UNL     1      -2.658  -2.304  24.976  0.00  0.00    +0.120 A 
BRANCH  19   5
ATOM      5  O   UNL     1      -1.983  -3.469  25.176  0.00  0.00    -0.495 OA
ATOM     25  C   UNL     1      -0.560  -3.392  25.240  0.00  0.00    +0.277 C 
ENDBRANCH  19   5
ENDBRANCH   7  12
BRANCH   8   6
ATOM      4  O   UNL     1      -3.407   4.484  27.111  0.00  0.00    -0.275 OA
ATOM      6  N   UNL     1      -3.413   3.277  25.128  0.00  0.00    -0.309 N 
ATOM     15  C   UNL     1      -2.937   4.248  26.001  0.00  0.00    +0.218 C 
ATOM     27  H   UNL     1      -2.923   3.109  24.254  0.00  0.00    +0.149 HD
BRANCH  15  16
ATOM     16  C   UNL     1      -1.751   4.991  25.419  0.00  0.00    +0.130 C 
BRANCH  16  20
ATOM      1 CL   UNL     1       2.445   1.353  23.102  0.00  0.00    -0.084 Cl
ATOM     20  C   UNL     1      -0.701   4.079  24.838  0.00  0.00    -0.039 A 
ATOM     21  C   UNL     1      -0.052   4.429  23.655  0.00  0.00    +0.005 A 
ATOM     22  C   UNL     1      -0.380   2.886  25.485  0.00  0.00    +0.005 A 
ATOM     23  C   UNL     1       0.920   3.586  23.117  0.00  0.00    +0.020 A 
ATOM     24  C   UNL     1       0.592   2.043  24.948  0.00  0.00    +0.020 A 
ATOM     26  C   UNL     1       1.242   2.392  23.764  0.00  0.00    +0.041 A 
ENDBRANCH  16  20
ENDBRANCH  15  16
ENDBRANCH   8   6
BRANCH   9   2
ATOM      2  O   UNL     1      -5.995   3.902  26.732  0.00  0.00    -0.387 OA
ATOM     28  H   UNL     1      -5.353   3.528  27.360  0.00  0.00    +0.210 HD
ENDBRANCH   9   2
BRANCH  11   3
ATOM      3  O   UNL     1      -7.033   1.366  26.552  0.00  0.00    -0.389 OA
ATOM     29  H   UNL     1      -7.763   0.737  26.421  0.00  0.00    +0.210 HD
ENDBRANCH  11   3
TORSDOF 7
ENDMDL
