MODEL 1
REMARK VINA RESULT:       4.1      0.000      0.000
REMARK  Name = 25338502
REMARK  7 active torsions:
REMARK  status: ('A' for Active; 'I' for Inactive)
REMARK    1  A    between atoms: O_3  and  C_27
REMARK    2  A    between atoms: O_3  and  C_29
REMARK    3  A    between atoms: N_4  and  C_15
REMARK    4  A    between atoms: N_5  and  C_10
REMARK    5  A    between atoms: N_7  and  C_19
REMARK    6  A    between atoms: C_11  and  C_14
REMARK    7  A    between atoms: C_17  and  C_18
REMARK                            x       y       z     vdW  Elec       q    Type
REMARK                         _______ _______ _______ _____ _____    ______ ____
ROOT
ATOM      4  N   UNL     1      -4.277  -1.446  24.019  0.00  0.00    -0.293 NA
ATOM     10  C   UNL     1      -2.513  -2.715  24.865  0.00  0.00    +0.090 C 
ATOM     11  C   UNL     1      -4.022  -0.853  25.346  0.00  0.00    +0.147 C 
ATOM     12  C   UNL     1      -2.761  -1.578  25.857  0.00  0.00    +0.052 C 
ATOM     13  C   UNL     1      -3.827  -2.839  24.109  0.00  0.00    +0.107 C 
ATOM     15  C   UNL     1      -5.672  -1.351  23.606  0.00  0.00    +0.105 C 
ENDROOT
BRANCH  10   5
ATOM      2  O   UNL     1      -0.094  -1.334  25.530  0.00  0.00    -0.253 OA
ATOM      5  N   UNL     1      -1.419  -2.412  23.973  0.00  0.00    -0.295 N 
ATOM      7  N   UNL     1       0.613  -1.584  23.306  0.00  0.00    -0.269 N 
ATOM     16  C   UNL     1      -0.268  -1.731  24.380  0.00  0.00    +0.304 C 
ATOM     30  H   UNL     1      -1.522  -2.643  22.990  0.00  0.00    +0.151 HD
ATOM     31  H   UNL     1       0.315  -1.972  22.414  0.00  0.00    +0.156 HD
BRANCH   7  19
ATOM     19  C   UNL     1       1.881  -0.956  23.302  0.00  0.00    +0.035 A 
ATOM     22  C   UNL     1       3.001  -1.643  23.769  0.00  0.00    +0.027 A 
ATOM     23  C   UNL     1       2.011   0.351  22.831  0.00  0.00    +0.027 A 
ATOM     24  C   UNL     1       4.251  -1.024  23.765  0.00  0.00    +0.047 A 
ATOM     25  C   UNL     1       3.261   0.970  22.827  0.00  0.00    +0.047 A 
ATOM     27  C   UNL     1       4.381   0.283  23.294  0.00  0.00    +0.120 A 
BRANCH  27   3
ATOM      3  O   UNL     1       5.601   0.887  23.290  0.00  0.00    -0.495 OA
ATOM     29  C   UNL     1       6.743   0.040  23.402  0.00  0.00    +0.277 C 
ENDBRANCH  27   3
ENDBRANCH   7  19
ENDBRANCH  10   5
BRANCH  11  14
ATOM      1  O   UNL     1      -4.980   1.390  25.495  0.00  0.00    -0.336 OA
ATOM      6  N   UNL     1      -2.770   1.362  25.130  0.00  0.00    -0.190 NA
ATOM      8  N   UNL     1      -4.580   2.730  25.422  0.00  0.00    -0.056 NA
ATOM     14  C   UNL     1      -3.854   0.651  25.312  0.00  0.00    +0.245 A 
ATOM     17  C   UNL     1      -3.265   2.631  25.205  0.00  0.00    +0.204 A 
BRANCH  17  18
ATOM      9  N   UNL     1      -0.231   4.682  24.562  0.00  0.00    -0.263 NA
ATOM     18  C   UNL     1      -2.418   3.779  25.061  0.00  0.00    +0.041 A 
ATOM     20  C   UNL     1      -2.910   5.064  25.263  0.00  0.00    +0.014 A 
ATOM     21  C   UNL     1      -1.082   3.643  24.715  0.00  0.00    +0.122 A 
ATOM     26  C   UNL     1      -2.064   6.158  25.115  0.00  0.00    +0.020 A 
ATOM     28  C   UNL     1      -0.745   5.915  24.767  0.00  0.00    +0.111 A 
ENDBRANCH  17  18
ENDBRANCH  11  14
TORSDOF 5
ENDMDL
MODEL 2
REMARK VINA RESULT:       5.9      1.728      5.346
REMARK  Name = 25338502
REMARK  7 active torsions:
REMARK  status: ('A' for Active; 'I' for Inactive)
REMARK    1  A    between atoms: O_3  and  C_27
REMARK    2  A    between atoms: O_3  and  C_29
REMARK    3  A    between atoms: N_4  and  C_15
REMARK    4  A    between atoms: N_5  and  C_10
REMARK    5  A    between atoms: N_7  and  C_19
REMARK    6  A    between atoms: C_11  and  C_14
REMARK    7  A    between atoms: C_17  and  C_18
REMARK                            x       y       z     vdW  Elec       q    Type
REMARK                         _______ _______ _______ _____ _____    ______ ____
ROOT
ATOM      4  N   UNL     1      -3.444   4.146  26.182  0.00  0.00    -0.293 NA
ATOM     10  C   UNL     1      -2.298   5.267  24.490  0.00  0.00    +0.090 C 
ATOM     11  C   UNL     1      -4.149   3.740  24.952  0.00  0.00    +0.147 C 
ATOM     12  C   UNL     1      -3.313   4.349  23.809  0.00  0.00    +0.052 C 
ATOM     13  C   UNL     1      -2.854   5.457  25.893  0.00  0.00    +0.107 C 
ATOM     15  C   UNL     1      -4.312   4.187  27.354  0.00  0.00    +0.105 C 
ENDROOT
BRANCH  10   5
ATOM      2  O   UNL     1      -1.570   2.665  23.540  0.00  0.00    -0.253 OA
ATOM      5  N   UNL     1      -0.982   4.674  24.521  0.00  0.00    -0.295 N 
ATOM      7  N   UNL     1       0.643   3.088  24.196  0.00  0.00    -0.269 N 
ATOM     16  C   UNL     1      -0.711   3.391  24.035  0.00  0.00    +0.304 C 
ATOM     30  H   UNL     1      -0.235   5.184  24.981  0.00  0.00    +0.151 HD
ATOM     31  H   UNL     1       1.224   3.804  24.626  0.00  0.00    +0.156 HD
BRANCH   7  19
ATOM     19  C   UNL     1       1.316   1.897  23.835  0.00  0.00    +0.035 A 
ATOM     22  C   UNL     1       0.667   0.667  23.947  0.00  0.00    +0.027 A 
ATOM     23  C   UNL     1       2.629   1.952  23.366  0.00  0.00    +0.027 A 
ATOM     24  C   UNL     1       1.330  -0.507  23.590  0.00  0.00    +0.047 A 
ATOM     25  C   UNL     1       3.292   0.778  23.009  0.00  0.00    +0.047 A 
ATOM     27  C   UNL     1       2.643  -0.451  23.121  0.00  0.00    +0.120 A 
BRANCH  27   3
ATOM      3  O   UNL     1       3.290  -1.597  22.773  0.00  0.00    -0.495 OA
ATOM     29  C   UNL     1       4.487  -1.907  23.484  0.00  0.00    +0.277 C 
ENDBRANCH  27   3
ENDBRANCH   7  19
ENDBRANCH  10   5
BRANCH  11  14
ATOM      1  O   UNL     1      -5.587   1.768  24.830  0.00  0.00    -0.336 OA
ATOM      6  N   UNL     1      -3.398   1.314  24.688  0.00  0.00    -0.190 NA
ATOM      8  N   UNL     1      -5.486   0.378  24.695  0.00  0.00    -0.056 NA
ATOM     14  C   UNL     1      -4.313   2.241  24.818  0.00  0.00    +0.245 A 
ATOM     17  C   UNL     1      -4.165   0.187  24.617  0.00  0.00    +0.204 A 
BRANCH  17  18
ATOM      9  N   UNL     1      -1.634  -2.536  24.655  0.00  0.00    -0.263 NA
ATOM     18  C   UNL     1      -3.581  -1.113  24.468  0.00  0.00    +0.041 A 
ATOM     20  C   UNL     1      -4.333  -2.190  24.014  0.00  0.00    +0.014 A 
ATOM     21  C   UNL     1      -2.247  -1.337  24.773  0.00  0.00    +0.122 A 
ATOM     26  C   UNL     1      -3.738  -3.440  23.879  0.00  0.00    +0.020 A 
ATOM     28  C   UNL     1      -2.398  -3.559  24.210  0.00  0.00    +0.111 A 
ENDBRANCH  17  18
ENDBRANCH  11  14
TORSDOF 5
ENDMDL
MODEL 3
REMARK VINA RESULT:       7.7      2.569      6.439
REMARK  Name = 25338502
REMARK  7 active torsions:
REMARK  status: ('A' for Active; 'I' for Inactive)
REMARK    1  A    between atoms: O_3  and  C_27
REMARK    2  A    between atoms: O_3  and  C_29
REMARK    3  A    between atoms: N_4  and  C_15
REMARK    4  A    between atoms: N_5  and  C_10
REMARK    5  A    between atoms: N_7  and  C_19
REMARK    6  A    between atoms: C_11  and  C_14
REMARK    7  A    between atoms: C_17  and  C_18
REMARK                            x       y       z     vdW  Elec       q    Type
REMARK                         _______ _______ _______ _____ _____    ______ ____
ROOT
ATOM      4  N   UNL     1      -4.178   4.792  24.298  0.00  0.00    -0.293 NA
ATOM     10  C   UNL     1      -5.254   4.026  26.219  0.00  0.00    +0.090 C 
ATOM     11  C   UNL     1      -3.137   4.870  25.339  0.00  0.00    +0.147 C 
ATOM     12  C   UNL     1      -3.782   4.226  26.581  0.00  0.00    +0.052 C 
ATOM     13  C   UNL     1      -5.459   4.914  25.001  0.00  0.00    +0.107 C 
ATOM     15  C   UNL     1      -4.029   5.805  23.259  0.00  0.00    +0.105 C 
ENDROOT
BRANCH  10   5
ATOM      2  O   UNL     1      -3.372   2.012  25.441  0.00  0.00    -0.253 OA
ATOM      5  N   UNL     1      -5.544   2.645  25.917  0.00  0.00    -0.295 N 
ATOM      7  N   UNL     1      -5.136   0.469  25.316  0.00  0.00    -0.269 N 
ATOM     16  C   UNL     1      -4.562   1.722  25.543  0.00  0.00    +0.304 C 
ATOM     30  H   UNL     1      -6.515   2.347  25.909  0.00  0.00    +0.151 HD
ATOM     31  H   UNL     1      -6.142   0.397  25.446  0.00  0.00    +0.156 HD
BRANCH   7  19
ATOM     19  C   UNL     1      -4.487  -0.726  24.923  0.00  0.00    +0.035 A 
ATOM     22  C   UNL     1      -3.466  -1.257  25.712  0.00  0.00    +0.027 A 
ATOM     23  C   UNL     1      -4.869  -1.373  23.748  0.00  0.00    +0.027 A 
ATOM     24  C   UNL     1      -2.826  -2.434  25.325  0.00  0.00    +0.047 A 
ATOM     25  C   UNL     1      -4.229  -2.551  23.361  0.00  0.00    +0.047 A 
ATOM     27  C   UNL     1      -3.208  -3.081  24.149  0.00  0.00    +0.120 A 
BRANCH  27   3
ATOM      3  O   UNL     1      -2.584  -4.230  23.772  0.00  0.00    -0.495 OA
ATOM     29  C   UNL     1      -1.346  -4.097  23.076  0.00  0.00    +0.277 C 
ENDBRANCH  27   3
ENDBRANCH   7  19
ENDBRANCH  10   5
BRANCH  11  14
ATOM      1  O   UNL     1      -0.712   4.955  25.042  0.00  0.00    -0.336 OA
ATOM      6  N   UNL     1      -1.630   2.981  24.516  0.00  0.00    -0.190 NA
ATOM      8  N   UNL     1       0.343   4.133  24.629  0.00  0.00    -0.056 NA
ATOM     14  C   UNL     1      -1.838   4.200  24.944  0.00  0.00    +0.245 A 
ATOM     17  C   UNL     1      -0.277   2.986  24.336  0.00  0.00    +0.204 A 
BRANCH  17  18
ATOM      9  N   UNL     1       2.478   0.851  23.040  0.00  0.00    -0.263 NA
ATOM     18  C   UNL     1       0.424   1.829  23.862  0.00  0.00    +0.041 A 
ATOM     20  C   UNL     1      -0.212   0.598  23.757  0.00  0.00    +0.014 A 
ATOM     21  C   UNL     1       1.759   1.902  23.494  0.00  0.00    +0.122 A 
ATOM     26  C   UNL     1       0.494  -0.508  23.294  0.00  0.00    +0.020 A 
ATOM     28  C   UNL     1       1.825  -0.330  22.952  0.00  0.00    +0.111 A 
ENDBRANCH  17  18
ENDBRANCH  11  14
TORSDOF 5
ENDMDL
