MODEL 1
REMARK VINA RESULT:      -0.6      0.000      0.000
REMARK  Name = 38026967
REMARK  12 active torsions:
REMARK  status: ('A' for Active; 'I' for Inactive)
REMARK    1  A    between atoms: O_3  and  C_27
REMARK    2  A    between atoms: O_3  and  C_29
REMARK    3  A    between atoms: N_6  and  C_16
REMARK    4  A    between atoms: C_8  and  C_12
REMARK    5  A    between atoms: C_9  and  C_16
REMARK    6  A    between atoms: C_11  and  C_15
REMARK    7  A    between atoms: C_12  and  C_17
REMARK    8  A    between atoms: C_12  and  C_18
REMARK    9  A    between atoms: C_13  and  C_19
REMARK   10  A    between atoms: C_15  and  C_20
REMARK   11  A    between atoms: C_25  and  C_27
REMARK   12  A    between atoms: C_26  and  C_28
REMARK                            x       y       z     vdW  Elec       q    Type
REMARK                         _______ _______ _______ _____ _____    ______ ____
ROOT
ATOM      8  C   UNL     1      -1.193   1.173  25.126  0.00  0.00    +0.000 C 
ATOM      9  C   UNL     1       0.141   0.550  24.646  0.00  0.00    +0.032 C 
ATOM     10  C   UNL     1      -1.944   0.194  26.041  0.00  0.00    +0.012 C 
ATOM     11  C   UNL     1      -2.255  -1.140  25.336  0.00  0.00    +0.023 C 
ATOM     13  C   UNL     1      -1.044  -1.687  24.608  0.00  0.00    -0.073 C 
ATOM     14  C   UNL     1       0.022  -0.920  24.320  0.00  0.00    -0.022 C 
ATOM     19  C   UNL     1      -1.068  -3.149  24.259  0.00  0.00    +0.039 C 
ENDROOT
BRANCH   8  12
ATOM     12  C   UNL     1      -0.970   2.500  25.859  0.00  0.00    -0.013 C 
ATOM     17  C   UNL     1       0.292   2.430  26.713  0.00  0.00    +0.007 C 
ATOM     18  C   UNL     1      -0.884   3.651  24.861  0.00  0.00    +0.007 C 
ENDBRANCH   8  12
BRANCH  11  15
ATOM     15  C   UNL     1      -3.449  -0.998  24.386  0.00  0.00    +0.103 C 
BRANCH  15  20
ATOM      1  O   UNL     1      -2.497   0.404  22.730  0.00  0.00    -0.276 OA
ATOM      4  O   UNL     1      -6.970   4.514  26.497  0.00  0.00    -0.276 OA
ATOM      5  N   UNL     1      -4.230   1.310  23.983  0.00  0.00    -0.298 N 
ATOM      7  N   UNL     1      -5.193   3.632  25.289  0.00  0.00    -0.299 N 
ATOM     20  C   UNL     1      -3.343   0.297  23.620  0.00  0.00    +0.216 C 
ATOM     21  C   UNL     1      -4.191   2.599  23.290  0.00  0.00    +0.126 C 
ATOM     22  C   UNL     1      -5.298   1.188  24.985  0.00  0.00    +0.126 C 
ATOM     23  C   UNL     1      -4.127   3.753  24.287  0.00  0.00    +0.126 C 
ATOM     24  C   UNL     1      -5.232   2.341  25.983  0.00  0.00    +0.126 C 
ATOM     26  C   UNL     1      -6.082   4.643  25.650  0.00  0.00    +0.213 C 
ATOM     28  C   UNL     1      -5.924   5.964  24.942  0.00  0.00    +0.109 C 
ENDBRANCH  15  20
ENDBRANCH  11  15
BRANCH   9  16
ATOM     16  C   UNL     1       0.695   1.300  23.429  0.00  0.00    +0.112 C 
BRANCH  16   6
ATOM      2  O   UNL     1       2.485  -0.114  21.650  0.00  0.00    -0.273 OA
ATOM      6  N   UNL     1       2.124   1.316  23.450  0.00  0.00    -0.313 N 
ATOM     25  C   UNL     1       2.914   0.602  22.551  0.00  0.00    +0.239 C 
ATOM     30  H   UNL     1       2.587   1.923  24.123  0.00  0.00    +0.149 HD
BRANCH  25  27
ATOM     27  C   UNL     1       4.393   0.802  22.803  0.00  0.00    +0.255 C 
BRANCH  27   3
ATOM      3  O   UNL     1       4.720   0.477  24.137  0.00  0.00    -0.374 OA
ATOM     29  C   UNL     1       5.484  -0.724  24.220  0.00  0.00    +0.194 C 
ENDBRANCH  27   3
ENDBRANCH  25  27
ENDBRANCH  16   6
ENDBRANCH   9  16
TORSDOF 7
ENDMDL
MODEL 2
REMARK VINA RESULT:      -0.4      1.652      2.022
REMARK  Name = 38026967
REMARK  12 active torsions:
REMARK  status: ('A' for Active; 'I' for Inactive)
REMARK    1  A    between atoms: O_3  and  C_27
REMARK    2  A    between atoms: O_3  and  C_29
REMARK    3  A    between atoms: N_6  and  C_16
REMARK    4  A    between atoms: C_8  and  C_12
REMARK    5  A    between atoms: C_9  and  C_16
REMARK    6  A    between atoms: C_11  and  C_15
REMARK    7  A    between atoms: C_12  and  C_17
REMARK    8  A    between atoms: C_12  and  C_18
REMARK    9  A    between atoms: C_13  and  C_19
REMARK   10  A    between atoms: C_15  and  C_20
REMARK   11  A    between atoms: C_25  and  C_27
REMARK   12  A    between atoms: C_26  and  C_28
REMARK                            x       y       z     vdW  Elec       q    Type
REMARK                         _______ _______ _______ _____ _____    ______ ____
ROOT
ATOM      8  C   UNL     1      -1.183   0.106  25.096  0.00  0.00    +0.000 C 
ATOM      9  C   UNL     1      -0.469  -1.095  24.426  0.00  0.00    +0.032 C 
ATOM     10  C   UNL     1      -2.169  -0.386  26.166  0.00  0.00    +0.012 C 
ATOM     11  C   UNL     1      -3.241  -1.327  25.583  0.00  0.00    +0.023 C 
ATOM     13  C   UNL     1      -2.632  -2.385  24.686  0.00  0.00    -0.073 C 
ATOM     14  C   UNL     1      -1.388  -2.270  24.189  0.00  0.00    -0.022 C 
ATOM     19  C   UNL     1      -3.470  -3.602  24.410  0.00  0.00    +0.039 C 
ENDROOT
BRANCH   8  12
ATOM     12  C   UNL     1      -0.184   1.085  25.722  0.00  0.00    -0.013 C 
ATOM     17  C   UNL     1       0.241   2.135  24.702  0.00  0.00    +0.007 C 
ATOM     18  C   UNL     1      -0.788   1.744  26.958  0.00  0.00    +0.007 C 
ENDBRANCH   8  12
BRANCH  11  15
ATOM     15  C   UNL     1      -4.325  -0.537  24.842  0.00  0.00    +0.103 C 
BRANCH  15  20
ATOM      1  O   UNL     1      -3.267  -0.140  22.759  0.00  0.00    -0.276 OA
ATOM      4  O   UNL     1      -2.953   6.023  26.366  0.00  0.00    -0.276 OA
ATOM      5  N   UNL     1      -3.623   1.715  24.111  0.00  0.00    -0.298 N 
ATOM      7  N   UNL     1      -2.537   4.159  25.043  0.00  0.00    -0.299 N 
ATOM     20  C   UNL     1      -3.691   0.356  23.805  0.00  0.00    +0.216 C 
ATOM     21  C   UNL     1      -3.019   2.649  23.158  0.00  0.00    +0.126 C 
ATOM     22  C   UNL     1      -4.186   2.346  25.312  0.00  0.00    +0.126 C 
ATOM     23  C   UNL     1      -1.976   3.528  23.843  0.00  0.00    +0.126 C 
ATOM     24  C   UNL     1      -3.141   3.224  25.997  0.00  0.00    +0.126 C 
ATOM     26  C   UNL     1      -2.472   5.518  25.348  0.00  0.00    +0.213 C 
ATOM     28  C   UNL     1      -1.766   6.399  24.350  0.00  0.00    +0.109 C 
ENDBRANCH  15  20
ENDBRANCH  11  15
BRANCH   9  16
ATOM     16  C   UNL     1       0.183  -0.681  23.102  0.00  0.00    +0.112 C 
BRANCH  16   6
ATOM      2  O   UNL     1       2.308  -0.229  21.192  0.00  0.00    -0.273 OA
ATOM      6  N   UNL     1       1.425  -0.012  23.334  0.00  0.00    -0.313 N 
ATOM     25  C   UNL     1       2.399   0.163  22.352  0.00  0.00    +0.239 C 
ATOM     30  H   UNL     1       1.582   0.403  24.249  0.00  0.00    +0.149 HD
BRANCH  25  27
ATOM     27  C   UNL     1       3.611   0.904  22.873  0.00  0.00    +0.255 C 
BRANCH  27   3
ATOM      3  O   UNL     1       4.788   0.160  22.640  0.00  0.00    -0.374 OA
ATOM     29  C   UNL     1       5.433  -0.210  23.856  0.00  0.00    +0.194 C 
ENDBRANCH  27   3
ENDBRANCH  25  27
ENDBRANCH  16   6
ENDBRANCH   9  16
TORSDOF 7
ENDMDL
MODEL 3
REMARK VINA RESULT:       0.5      1.998      5.056
REMARK  Name = 38026967
REMARK  12 active torsions:
REMARK  status: ('A' for Active; 'I' for Inactive)
REMARK    1  A    between atoms: O_3  and  C_27
REMARK    2  A    between atoms: O_3  and  C_29
REMARK    3  A    between atoms: N_6  and  C_16
REMARK    4  A    between atoms: C_8  and  C_12
REMARK    5  A    between atoms: C_9  and  C_16
REMARK    6  A    between atoms: C_11  and  C_15
REMARK    7  A    between atoms: C_12  and  C_17
REMARK    8  A    between atoms: C_12  and  C_18
REMARK    9  A    between atoms: C_13  and  C_19
REMARK   10  A    between atoms: C_15  and  C_20
REMARK   11  A    between atoms: C_25  and  C_27
REMARK   12  A    between atoms: C_26  and  C_28
REMARK                            x       y       z     vdW  Elec       q    Type
REMARK                         _______ _______ _______ _____ _____    ______ ____
ROOT
ATOM      8  C   UNL     1      -2.442   2.482  23.969  0.00  0.00    +0.000 C 
ATOM      9  C   UNL     1      -1.285   3.187  24.721  0.00  0.00    +0.032 C 
ATOM     10  C   UNL     1      -3.690   3.376  23.946  0.00  0.00    +0.012 C 
ATOM     11  C   UNL     1      -4.177   3.734  25.363  0.00  0.00    +0.023 C 
ATOM     13  C   UNL     1      -3.036   4.187  26.252  0.00  0.00    -0.073 C 
ATOM     14  C   UNL     1      -1.751   3.945  25.942  0.00  0.00    -0.022 C 
ATOM     19  C   UNL     1      -3.406   4.966  27.484  0.00  0.00    +0.039 C 
ENDROOT
BRANCH   8  12
ATOM     12  C   UNL     1      -2.044   2.108  22.537  0.00  0.00    -0.013 C 
ATOM     17  C   UNL     1      -2.129   0.598  22.339  0.00  0.00    +0.007 C 
ATOM     18  C   UNL     1      -2.931   2.836  21.532  0.00  0.00    +0.007 C 
ENDBRANCH   8  12
BRANCH  11  15
ATOM     15  C   UNL     1      -4.936   2.565  25.999  0.00  0.00    +0.103 C 
BRANCH  15  20
ATOM      1  O   UNL     1      -6.390   1.670  24.355  0.00  0.00    -0.276 OA
ATOM      4  O   UNL     1      -1.108  -3.079  25.147  0.00  0.00    -0.276 OA
ATOM      5  N   UNL     1      -4.385   0.546  24.688  0.00  0.00    -0.298 N 
ATOM      7  N   UNL     1      -3.141  -1.993  24.860  0.00  0.00    -0.299 N 
ATOM     20  C   UNL     1      -5.310   1.559  24.939  0.00  0.00    +0.216 C 
ATOM     21  C   UNL     1      -4.674  -0.472  23.675  0.00  0.00    +0.126 C 
ATOM     22  C   UNL     1      -3.060   0.429  25.311  0.00  0.00    +0.126 C 
ATOM     23  C   UNL     1      -4.465  -1.875  24.238  0.00  0.00    +0.126 C 
ATOM     24  C   UNL     1      -2.853  -0.974  25.874  0.00  0.00    +0.126 C 
ATOM     26  C   UNL     1      -2.215  -3.004  24.608  0.00  0.00    +0.213 C 
ATOM     28  C   UNL     1      -2.622  -4.055  23.608  0.00  0.00    +0.109 C 
ENDBRANCH  15  20
ENDBRANCH  11  15
BRANCH   9  16
ATOM     16  C   UNL     1      -0.197   2.186  25.125  0.00  0.00    +0.112 C 
BRANCH  16   6
ATOM      2  O   UNL     1       0.342  -0.542  24.328  0.00  0.00    -0.273 OA
ATOM      6  N   UNL     1       0.543   1.751  23.982  0.00  0.00    -0.313 N 
ATOM     25  C   UNL     1       0.756   0.409  23.670  0.00  0.00    +0.239 C 
ATOM     30  H   UNL     1       0.885   2.457  23.335  0.00  0.00    +0.149 HD
BRANCH  25  27
ATOM     27  C   UNL     1       1.571   0.237  22.406  0.00  0.00    +0.255 C 
BRANCH  27   3
ATOM      3  O   UNL     1       2.874  -0.212  22.711  0.00  0.00    -0.374 OA
ATOM     29  C   UNL     1       3.820   0.855  22.701  0.00  0.00    +0.194 C 
ENDBRANCH  27   3
ENDBRANCH  25  27
ENDBRANCH  16   6
ENDBRANCH   9  16
TORSDOF 7
ENDMDL
MODEL 4
REMARK VINA RESULT:       0.6      2.238      5.961
REMARK  Name = 38026967
REMARK  12 active torsions:
REMARK  status: ('A' for Active; 'I' for Inactive)
REMARK    1  A    between atoms: O_3  and  C_27
REMARK    2  A    between atoms: O_3  and  C_29
REMARK    3  A    between atoms: N_6  and  C_16
REMARK    4  A    between atoms: C_8  and  C_12
REMARK    5  A    between atoms: C_9  and  C_16
REMARK    6  A    between atoms: C_11  and  C_15
REMARK    7  A    between atoms: C_12  and  C_17
REMARK    8  A    between atoms: C_12  and  C_18
REMARK    9  A    between atoms: C_13  and  C_19
REMARK   10  A    between atoms: C_15  and  C_20
REMARK   11  A    between atoms: C_25  and  C_27
REMARK   12  A    between atoms: C_26  and  C_28
REMARK                            x       y       z     vdW  Elec       q    Type
REMARK                         _______ _______ _______ _____ _____    ______ ____
ROOT
ATOM      8  C   UNL     1      -3.708   2.462  24.167  0.00  0.00    +0.000 C 
ATOM      9  C   UNL     1      -4.480   3.570  24.927  0.00  0.00    +0.032 C 
ATOM     10  C   UNL     1      -4.626   1.261  23.894  0.00  0.00    +0.012 C 
ATOM     11  C   UNL     1      -5.197   0.657  25.191  0.00  0.00    +0.023 C 
ATOM     13  C   UNL     1      -5.739   1.725  26.119  0.00  0.00    -0.073 C 
ATOM     14  C   UNL     1      -5.417   3.023  25.977  0.00  0.00    -0.022 C 
ATOM     19  C   UNL     1      -6.695   1.273  27.187  0.00  0.00    +0.039 C 
ENDROOT
BRANCH   8  12
ATOM     12  C   UNL     1      -3.123   2.978  22.848  0.00  0.00    -0.013 C 
ATOM     17  C   UNL     1      -2.598   1.816  22.010  0.00  0.00    +0.007 C 
ATOM     18  C   UNL     1      -4.171   3.772  22.077  0.00  0.00    +0.007 C 
ENDBRANCH   8  12
BRANCH  11  15
ATOM     15  C   UNL     1      -4.153  -0.210  25.904  0.00  0.00    +0.103 C 
BRANCH  15  20
ATOM      1  O   UNL     1      -3.951  -2.211  24.651  0.00  0.00    -0.276 OA
ATOM      4  O   UNL     1       2.099   1.438  23.571  0.00  0.00    -0.276 OA
ATOM      5  N   UNL     1      -2.294  -0.616  24.329  0.00  0.00    -0.298 N 
ATOM      7  N   UNL     1       0.478  -0.184  23.943  0.00  0.00    -0.299 N 
ATOM     20  C   UNL     1      -3.465  -1.107  24.906  0.00  0.00    +0.216 C 
ATOM     21  C   UNL     1      -1.564  -1.427  23.352  0.00  0.00    +0.126 C 
ATOM     22  C   UNL     1      -1.731   0.722  24.554  0.00  0.00    +0.126 C 
ATOM     23  C   UNL     1      -0.086  -1.520  23.718  0.00  0.00    +0.126 C 
ATOM     24  C   UNL     1      -0.252   0.628  24.920  0.00  0.00    +0.126 C 
ATOM     26  C   UNL     1       1.647   0.309  23.364  0.00  0.00    +0.213 C 
ATOM     28  C   UNL     1       2.379  -0.619  22.428  0.00  0.00    +0.109 C 
ENDBRANCH  15  20
ENDBRANCH  11  15
BRANCH   9  16
ATOM     16  C   UNL     1      -3.515   4.571  25.574  0.00  0.00    +0.112 C 
BRANCH  16   6
ATOM      2  O   UNL     1      -0.918   5.409  24.615  0.00  0.00    -0.273 OA
ATOM      6  N   UNL     1      -2.254   3.956  25.848  0.00  0.00    -0.313 N 
ATOM     25  C   UNL     1      -1.043   4.428  25.343  0.00  0.00    +0.239 C 
ATOM     30  H   UNL     1      -2.235   3.166  26.488  0.00  0.00    +0.149 HD
BRANCH  25  27
ATOM     27  C   UNL     1       0.132   3.586  25.793  0.00  0.00    +0.255 C 
BRANCH  27   3
ATOM      3  O   UNL     1      -0.236   2.752  26.870  0.00  0.00    -0.374 OA
ATOM     29  C   UNL     1       0.839   2.562  27.787  0.00  0.00    +0.194 C 
ENDBRANCH  27   3
ENDBRANCH  25  27
ENDBRANCH  16   6
ENDBRANCH   9  16
TORSDOF 7
ENDMDL
MODEL 5
REMARK VINA RESULT:       0.8      2.961      5.704
REMARK  Name = 38026967
REMARK  12 active torsions:
REMARK  status: ('A' for Active; 'I' for Inactive)
REMARK    1  A    between atoms: O_3  and  C_27
REMARK    2  A    between atoms: O_3  and  C_29
REMARK    3  A    between atoms: N_6  and  C_16
REMARK    4  A    between atoms: C_8  and  C_12
REMARK    5  A    between atoms: C_9  and  C_16
REMARK    6  A    between atoms: C_11  and  C_15
REMARK    7  A    between atoms: C_12  and  C_17
REMARK    8  A    between atoms: C_12  and  C_18
REMARK    9  A    between atoms: C_13  and  C_19
REMARK   10  A    between atoms: C_15  and  C_20
REMARK   11  A    between atoms: C_25  and  C_27
REMARK   12  A    between atoms: C_26  and  C_28
REMARK                            x       y       z     vdW  Elec       q    Type
REMARK                         _______ _______ _______ _____ _____    ______ ____
ROOT
ATOM      8  C   UNL     1      -2.923   2.987  23.680  0.00  0.00    +0.000 C 
ATOM      9  C   UNL     1      -1.724   3.756  24.288  0.00  0.00    +0.032 C 
ATOM     10  C   UNL     1      -4.243   3.690  24.028  0.00  0.00    +0.012 C 
ATOM     11  C   UNL     1      -4.459   3.804  25.549  0.00  0.00    +0.023 C 
ATOM     13  C   UNL     1      -3.217   4.307  26.257  0.00  0.00    -0.073 C 
ATOM     14  C   UNL     1      -2.006   4.290  25.673  0.00  0.00    -0.022 C 
ATOM     19  C   UNL     1      -3.407   4.874  27.636  0.00  0.00    +0.039 C 
ENDROOT
BRANCH   8  12
ATOM     12  C   UNL     1      -2.795   2.846  22.159  0.00  0.00    -0.013 C 
ATOM     17  C   UNL     1      -2.455   1.406  21.785  0.00  0.00    +0.007 C 
ATOM     18  C   UNL     1      -4.083   3.293  21.474  0.00  0.00    +0.007 C 
ENDBRANCH   8  12
BRANCH  11  15
ATOM     15  C   UNL     1      -4.927   2.472  26.143  0.00  0.00    +0.103 C 
BRANCH  15  20
ATOM      1  O   UNL     1      -6.336   1.581  24.458  0.00  0.00    -0.276 OA
ATOM      4  O   UNL     1      -0.797  -2.902  25.003  0.00  0.00    -0.276 OA
ATOM      5  N   UNL     1      -4.271   0.554  24.732  0.00  0.00    -0.298 N 
ATOM      7  N   UNL     1      -2.888  -1.917  24.775  0.00  0.00    -0.299 N 
ATOM     20  C   UNL     1      -5.249   1.501  25.035  0.00  0.00    +0.216 C 
ATOM     21  C   UNL     1      -4.507  -0.426  23.670  0.00  0.00    +0.126 C 
ATOM     22  C   UNL     1      -2.939   0.480  25.346  0.00  0.00    +0.126 C 
ATOM     23  C   UNL     1      -4.219  -1.842  24.161  0.00  0.00    +0.126 C 
ATOM     24  C   UNL     1      -2.652  -0.936  25.838  0.00  0.00    +0.126 C 
ATOM     26  C   UNL     1      -1.909  -2.862  24.471  0.00  0.00    +0.213 C 
ATOM     28  C   UNL     1      -2.261  -3.883  23.420  0.00  0.00    +0.109 C 
ENDBRANCH  15  20
ENDBRANCH  11  15
BRANCH   9  16
ATOM     16  C   UNL     1      -0.466   2.879  24.325  0.00  0.00    +0.112 C 
BRANCH  16   6
ATOM      2  O   UNL     1      -0.307   1.230  26.695  0.00  0.00    -0.273 OA
ATOM      6  N   UNL     1       0.298   3.136  25.505  0.00  0.00    -0.313 N 
ATOM     25  C   UNL     1       0.318   2.284  26.608  0.00  0.00    +0.239 C 
ATOM     30  H   UNL     1       0.899   3.957  25.519  0.00  0.00    +0.149 HD
BRANCH  25  27
ATOM     27  C   UNL     1       1.210   2.801  27.716  0.00  0.00    +0.255 C 
BRANCH  27   3
ATOM      3  O   UNL     1       0.761   2.341  28.973  0.00  0.00    -0.374 OA
ATOM     29  C   UNL     1       1.821   2.271  29.923  0.00  0.00    +0.194 C 
ENDBRANCH  27   3
ENDBRANCH  25  27
ENDBRANCH  16   6
ENDBRANCH   9  16
TORSDOF 7
ENDMDL
MODEL 6
REMARK VINA RESULT:       0.9      2.677      5.055
REMARK  Name = 38026967
REMARK  12 active torsions:
REMARK  status: ('A' for Active; 'I' for Inactive)
REMARK    1  A    between atoms: O_3  and  C_27
REMARK    2  A    between atoms: O_3  and  C_29
REMARK    3  A    between atoms: N_6  and  C_16
REMARK    4  A    between atoms: C_8  and  C_12
REMARK    5  A    between atoms: C_9  and  C_16
REMARK    6  A    between atoms: C_11  and  C_15
REMARK    7  A    between atoms: C_12  and  C_17
REMARK    8  A    between atoms: C_12  and  C_18
REMARK    9  A    between atoms: C_13  and  C_19
REMARK   10  A    between atoms: C_15  and  C_20
REMARK   11  A    between atoms: C_25  and  C_27
REMARK   12  A    between atoms: C_26  and  C_28
REMARK                            x       y       z     vdW  Elec       q    Type
REMARK                         _______ _______ _______ _____ _____    ______ ____
ROOT
ATOM      8  C   UNL     1       0.992   0.437  23.194  0.00  0.00    +0.000 C 
ATOM      9  C   UNL     1       0.305  -0.437  24.273  0.00  0.00    +0.032 C 
ATOM     10  C   UNL     1       1.671   1.653  23.841  0.00  0.00    +0.012 C 
ATOM     11  C   UNL     1       0.673   2.532  24.619  0.00  0.00    +0.023 C 
ATOM     13  C   UNL     1      -0.229   1.705  25.513  0.00  0.00    -0.073 C 
ATOM     14  C   UNL     1      -0.369   0.377  25.351  0.00  0.00    -0.022 C 
ATOM     19  C   UNL     1      -0.929   2.431  26.627  0.00  0.00    +0.039 C 
ENDROOT
BRANCH   8  12
ATOM     12  C   UNL     1       2.020  -0.361  22.385  0.00  0.00    -0.013 C 
ATOM     17  C   UNL     1       1.482  -0.657  20.988  0.00  0.00    +0.007 C 
ATOM     18  C   UNL     1       3.340   0.398  22.307  0.00  0.00    +0.007 C 
ENDBRANCH   8  12
BRANCH  11  15
ATOM     15  C   UNL     1      -0.151   3.406  23.668  0.00  0.00    +0.103 C 
BRANCH  15  20
ATOM      1  O   UNL     1      -0.775   5.207  25.076  0.00  0.00    -0.276 OA
ATOM      4  O   UNL     1      -6.534   1.009  24.532  0.00  0.00    -0.276 OA
ATOM      5  N   UNL     1      -2.475   3.767  24.421  0.00  0.00    -0.298 N 
ATOM      7  N   UNL     1      -4.823   2.410  25.241  0.00  0.00    -0.299 N 
ATOM     20  C   UNL     1      -1.155   4.213  24.453  0.00  0.00    +0.216 C 
ATOM     21  C   UNL     1      -3.511   4.493  25.160  0.00  0.00    +0.126 C 
ATOM     22  C   UNL     1      -2.972   2.634  23.629  0.00  0.00    +0.126 C 
ATOM     23  C   UNL     1      -4.326   3.543  26.032  0.00  0.00    +0.126 C 
ATOM     24  C   UNL     1      -3.787   1.683  24.502  0.00  0.00    +0.126 C 
ATOM     26  C   UNL     1      -6.144   1.965  25.207  0.00  0.00    +0.213 C 
ATOM     28  C   UNL     1      -7.132   2.723  26.056  0.00  0.00    +0.109 C 
ENDBRANCH  15  20
ENDBRANCH  11  15
BRANCH   9  16
ATOM     16  C   UNL     1      -0.713  -1.395  23.643  0.00  0.00    +0.112 C 
BRANCH  16   6
ATOM      2  O   UNL     1      -2.861  -3.312  23.922  0.00  0.00    -0.273 OA
ATOM      6  N   UNL     1      -2.024  -1.152  24.157  0.00  0.00    -0.313 N 
ATOM     25  C   UNL     1      -3.005  -2.139  24.257  0.00  0.00    +0.239 C 
ATOM     30  H   UNL     1      -2.234  -0.225  24.517  0.00  0.00    +0.149 HD
BRANCH  25  27
ATOM     27  C   UNL     1      -4.297  -1.604  24.835  0.00  0.00    +0.255 C 
BRANCH  27   3
ATOM      3  O   UNL     1      -4.051  -0.881  26.022  0.00  0.00    -0.374 OA
ATOM     29  C   UNL     1      -3.117  -1.548  26.867  0.00  0.00    +0.194 C 
ENDBRANCH  27   3
ENDBRANCH  25  27
ENDBRANCH  16   6
ENDBRANCH   9  16
TORSDOF 7
ENDMDL
MODEL 7
REMARK VINA RESULT:       1.5      2.235      4.657
REMARK  Name = 38026967
REMARK  12 active torsions:
REMARK  status: ('A' for Active; 'I' for Inactive)
REMARK    1  A    between atoms: O_3  and  C_27
REMARK    2  A    between atoms: O_3  and  C_29
REMARK    3  A    between atoms: N_6  and  C_16
REMARK    4  A    between atoms: C_8  and  C_12
REMARK    5  A    between atoms: C_9  and  C_16
REMARK    6  A    between atoms: C_11  and  C_15
REMARK    7  A    between atoms: C_12  and  C_17
REMARK    8  A    between atoms: C_12  and  C_18
REMARK    9  A    between atoms: C_13  and  C_19
REMARK   10  A    between atoms: C_15  and  C_20
REMARK   11  A    between atoms: C_25  and  C_27
REMARK   12  A    between atoms: C_26  and  C_28
REMARK                            x       y       z     vdW  Elec       q    Type
REMARK                         _______ _______ _______ _____ _____    ______ ____
ROOT
ATOM      8  C   UNL     1      -3.249  -0.021  25.026  0.00  0.00    +0.000 C 
ATOM      9  C   UNL     1      -2.075  -0.152  24.023  0.00  0.00    +0.032 C 
ATOM     10  C   UNL     1      -4.520   0.451  24.304  0.00  0.00    +0.012 C 
ATOM     11  C   UNL     1      -4.322   1.809  23.604  0.00  0.00    +0.023 C 
ATOM     13  C   UNL     1      -3.036   1.848  22.804  0.00  0.00    -0.073 C 
ATOM     14  C   UNL     1      -2.049   0.955  22.996  0.00  0.00    -0.022 C 
ATOM     19  C   UNL     1      -2.930   2.910  21.745  0.00  0.00    +0.039 C 
ENDROOT
BRANCH   8  12
ATOM     12  C   UNL     1      -3.525  -1.341  25.754  0.00  0.00    -0.013 C 
ATOM     17  C   UNL     1      -3.400  -2.516  24.789  0.00  0.00    +0.007 C 
ATOM     18  C   UNL     1      -2.574  -1.506  26.934  0.00  0.00    +0.007 C 
ENDBRANCH   8  12
BRANCH  11  15
ATOM     15  C   UNL     1      -4.377   2.963  24.611  0.00  0.00    +0.103 C 
BRANCH  15  20
ATOM      1  O   UNL     1      -3.013   4.556  23.508  0.00  0.00    -0.276 OA
ATOM      4  O   UNL     1       0.899   1.973  28.903  0.00  0.00    -0.276 OA
ATOM      5  N   UNL     1      -2.194   3.696  25.504  0.00  0.00    -0.298 N 
ATOM      7  N   UNL     1       0.111   2.783  26.874  0.00  0.00    -0.299 N 
ATOM     20  C   UNL     1      -3.138   3.813  24.484  0.00  0.00    +0.216 C 
ATOM     21  C   UNL     1      -0.961   4.486  25.453  0.00  0.00    +0.126 C 
ATOM     22  C   UNL     1      -2.347   2.880  26.715  0.00  0.00    +0.126 C 
ATOM     23  C   UNL     1       0.263   3.599  25.663  0.00  0.00    +0.126 C 
ATOM     24  C   UNL     1      -1.122   1.993  26.924  0.00  0.00    +0.126 C 
ATOM     26  C   UNL     1       1.053   2.668  27.895  0.00  0.00    +0.213 C 
ATOM     28  C   UNL     1       2.327   3.455  27.728  0.00  0.00    +0.109 C 
ENDBRANCH  15  20
ENDBRANCH  11  15
BRANCH   9  16
ATOM     16  C   UNL     1      -0.728  -0.205  24.752  0.00  0.00    +0.112 C 
BRANCH  16   6
ATOM      2  O   UNL     1       1.342   1.615  23.875  0.00  0.00    -0.273 OA
ATOM      6  N   UNL     1       0.334  -0.483  23.838  0.00  0.00    -0.313 N 
ATOM     25  C   UNL     1       1.295   0.457  23.468  0.00  0.00    +0.239 C 
ATOM     30  H   UNL     1       0.424  -1.431  23.481  0.00  0.00    +0.149 HD
BRANCH  25  27
ATOM     27  C   UNL     1       2.301  -0.106  22.487  0.00  0.00    +0.255 C 
BRANCH  27   3
ATOM      3  O   UNL     1       3.391   0.776  22.328  0.00  0.00    -0.374 OA
ATOM     29  C   UNL     1       4.532   0.349  23.070  0.00  0.00    +0.194 C 
ENDBRANCH  27   3
ENDBRANCH  25  27
ENDBRANCH  16   6
ENDBRANCH   9  16
TORSDOF 7
ENDMDL
MODEL 8
REMARK VINA RESULT:       1.7      2.303      6.545
REMARK  Name = 38026967
REMARK  12 active torsions:
REMARK  status: ('A' for Active; 'I' for Inactive)
REMARK    1  A    between atoms: O_3  and  C_27
REMARK    2  A    between atoms: O_3  and  C_29
REMARK    3  A    between atoms: N_6  and  C_16
REMARK    4  A    between atoms: C_8  and  C_12
REMARK    5  A    between atoms: C_9  and  C_16
REMARK    6  A    between atoms: C_11  and  C_15
REMARK    7  A    between atoms: C_12  and  C_17
REMARK    8  A    between atoms: C_12  and  C_18
REMARK    9  A    between atoms: C_13  and  C_19
REMARK   10  A    between atoms: C_15  and  C_20
REMARK   11  A    between atoms: C_25  and  C_27
REMARK   12  A    between atoms: C_26  and  C_28
REMARK                            x       y       z     vdW  Elec       q    Type
REMARK                         _______ _______ _______ _____ _____    ______ ____
ROOT
ATOM      8  C   UNL     1      -4.812   2.091  25.269  0.00  0.00    +0.000 C 
ATOM      9  C   UNL     1      -4.635   2.140  23.731  0.00  0.00    +0.032 C 
ATOM     10  C   UNL     1      -5.092   3.496  25.822  0.00  0.00    +0.012 C 
ATOM     11  C   UNL     1      -3.960   4.488  25.493  0.00  0.00    +0.023 C 
ATOM     13  C   UNL     1      -3.543   4.404  24.039  0.00  0.00    -0.073 C 
ATOM     14  C   UNL     1      -3.865   3.353  23.264  0.00  0.00    -0.022 C 
ATOM     19  C   UNL     1      -2.786   5.577  23.483  0.00  0.00    +0.039 C 
ENDROOT
BRANCH   8  12
ATOM     12  C   UNL     1      -5.938   1.137  25.682  0.00  0.00    -0.013 C 
ATOM     17  C   UNL     1      -6.491   1.528  27.049  0.00  0.00    +0.007 C 
ATOM     18  C   UNL     1      -7.043   1.134  24.631  0.00  0.00    +0.007 C 
ENDBRANCH   8  12
BRANCH  11  15
ATOM     15  C   UNL     1      -2.758   4.282  26.421  0.00  0.00    +0.103 C 
BRANCH  15  20
ATOM      1  O   UNL     1      -1.125   5.590  25.308  0.00  0.00    -0.276 OA
ATOM      4  O   UNL     1       0.545  -1.233  23.989  0.00  0.00    -0.276 OA
ATOM      5  N   UNL     1      -0.759   3.297  25.356  0.00  0.00    -0.298 N 
ATOM      7  N   UNL     1       0.145   1.053  23.883  0.00  0.00    -0.299 N 
ATOM     20  C   UNL     1      -1.476   4.458  25.646  0.00  0.00    +0.216 C 
ATOM     21  C   UNL     1       0.495   3.382  24.604  0.00  0.00    +0.126 C 
ATOM     22  C   UNL     1      -1.110   1.945  25.809  0.00  0.00    +0.126 C 
ATOM     23  C   UNL     1       0.495   2.405  23.432  0.00  0.00    +0.126 C 
ATOM     24  C   UNL     1      -1.111   0.969  24.635  0.00  0.00    +0.126 C 
ATOM     26  C   UNL     1       0.862  -0.107  23.596  0.00  0.00    +0.213 C 
ATOM     28  C   UNL     1       2.100   0.058  22.752  0.00  0.00    +0.109 C 
ENDBRANCH  15  20
ENDBRANCH  11  15
BRANCH   9  16
ATOM     16  C   UNL     1      -3.951   0.870  23.212  0.00  0.00    +0.112 C 
BRANCH  16   6
ATOM      2  O   UNL     1      -4.618  -1.933  23.469  0.00  0.00    -0.273 OA
ATOM      6  N   UNL     1      -3.613  -0.002  24.292  0.00  0.00    -0.313 N 
ATOM     25  C   UNL     1      -3.976  -1.348  24.337  0.00  0.00    +0.239 C 
ATOM     30  H   UNL     1      -3.031   0.365  25.041  0.00  0.00    +0.149 HD
BRANCH  25  27
ATOM     27  C   UNL     1      -3.486  -2.032  25.595  0.00  0.00    +0.255 C 
BRANCH  27   3
ATOM      3  O   UNL     1      -2.110  -2.328  25.497  0.00  0.00    -0.374 OA
ATOM     29  C   UNL     1      -1.786  -2.948  24.255  0.00  0.00    +0.194 C 
ENDBRANCH  27   3
ENDBRANCH  25  27
ENDBRANCH  16   6
ENDBRANCH   9  16
TORSDOF 7
ENDMDL
MODEL 9
REMARK VINA RESULT:       2.1      2.809      6.552
REMARK  Name = 38026967
REMARK  12 active torsions:
REMARK  status: ('A' for Active; 'I' for Inactive)
REMARK    1  A    between atoms: O_3  and  C_27
REMARK    2  A    between atoms: O_3  and  C_29
REMARK    3  A    between atoms: N_6  and  C_16
REMARK    4  A    between atoms: C_8  and  C_12
REMARK    5  A    between atoms: C_9  and  C_16
REMARK    6  A    between atoms: C_11  and  C_15
REMARK    7  A    between atoms: C_12  and  C_17
REMARK    8  A    between atoms: C_12  and  C_18
REMARK    9  A    between atoms: C_13  and  C_19
REMARK   10  A    between atoms: C_15  and  C_20
REMARK   11  A    between atoms: C_25  and  C_27
REMARK   12  A    between atoms: C_26  and  C_28
REMARK                            x       y       z     vdW  Elec       q    Type
REMARK                         _______ _______ _______ _____ _____    ______ ____
ROOT
ATOM      8  C   UNL     1      -1.832   2.675  25.370  0.00  0.00    +0.000 C 
ATOM      9  C   UNL     1      -1.244   1.865  26.553  0.00  0.00    +0.032 C 
ATOM     10  C   UNL     1      -3.047   1.949  24.775  0.00  0.00    +0.012 C 
ATOM     11  C   UNL     1      -2.693   0.537  24.271  0.00  0.00    +0.023 C 
ATOM     13  C   UNL     1      -1.875  -0.235  25.286  0.00  0.00    -0.073 C 
ATOM     14  C   UNL     1      -1.246   0.375  26.307  0.00  0.00    -0.022 C 
ATOM     19  C   UNL     1      -1.834  -1.729  25.128  0.00  0.00    +0.039 C 
ENDROOT
BRANCH   8  12
ATOM     12  C   UNL     1      -2.231   4.093  25.794  0.00  0.00    -0.013 C 
ATOM     17  C   UNL     1      -1.406   5.126  25.034  0.00  0.00    +0.007 C 
ATOM     18  C   UNL     1      -3.722   4.316  25.566  0.00  0.00    +0.007 C 
ENDBRANCH   8  12
BRANCH  11  15
ATOM     15  C   UNL     1      -1.974   0.597  22.919  0.00  0.00    +0.103 C 
BRANCH  15  20
ATOM      1  O   UNL     1      -0.987   2.743  22.735  0.00  0.00    -0.276 OA
ATOM      4  O   UNL     1       4.392  -1.844  23.787  0.00  0.00    -0.276 OA
ATOM      5  N   UNL     1       0.418   1.008  23.372  0.00  0.00    -0.298 N 
ATOM      7  N   UNL     1       3.001  -0.121  23.087  0.00  0.00    -0.299 N 
ATOM     20  C   UNL     1      -0.810   1.552  22.999  0.00  0.00    +0.216 C 
ATOM     21  C   UNL     1       1.600   1.868  23.470  0.00  0.00    +0.126 C 
ATOM     22  C   UNL     1       0.646  -0.389  23.765  0.00  0.00    +0.126 C 
ATOM     23  C   UNL     1       2.772   1.275  22.694  0.00  0.00    +0.126 C 
ATOM     24  C   UNL     1       1.819  -0.982  22.987  0.00  0.00    +0.126 C 
ATOM     26  C   UNL     1       4.228  -0.665  23.462  0.00  0.00    +0.213 C 
ATOM     28  C   UNL     1       5.409   0.272  23.464  0.00  0.00    +0.109 C 
ENDBRANCH  15  20
ENDBRANCH  11  15
BRANCH   9  16
ATOM     16  C   UNL     1       0.180   2.327  26.886  0.00  0.00    +0.112 C 
BRANCH  16   6
ATOM      2  O   UNL     1       2.606   3.047  28.286  0.00  0.00    -0.273 OA
ATOM      6  N   UNL     1       0.462   2.140  28.274  0.00  0.00    -0.313 N 
ATOM     25  C   UNL     1       1.664   2.518  28.871  0.00  0.00    +0.239 C 
ATOM     30  H   UNL     1      -0.272   1.760  28.867  0.00  0.00    +0.149 HD
BRANCH  25  27
ATOM     27  C   UNL     1       1.693   2.202  30.351  0.00  0.00    +0.255 C 
BRANCH  27   3
ATOM      3  O   UNL     1       0.539   2.703  30.990  0.00  0.00    -0.374 OA
ATOM     29  C   UNL     1       0.451   2.269  32.345  0.00  0.00    +0.194 C 
ENDBRANCH  27   3
ENDBRANCH  25  27
ENDBRANCH  16   6
ENDBRANCH   9  16
TORSDOF 7
ENDMDL
MODEL 10
REMARK VINA RESULT:       2.6      1.788      6.792
REMARK  Name = 38026967
REMARK  12 active torsions:
REMARK  status: ('A' for Active; 'I' for Inactive)
REMARK    1  A    between atoms: O_3  and  C_27
REMARK    2  A    between atoms: O_3  and  C_29
REMARK    3  A    between atoms: N_6  and  C_16
REMARK    4  A    between atoms: C_8  and  C_12
REMARK    5  A    between atoms: C_9  and  C_16
REMARK    6  A    between atoms: C_11  and  C_15
REMARK    7  A    between atoms: C_12  and  C_17
REMARK    8  A    between atoms: C_12  and  C_18
REMARK    9  A    between atoms: C_13  and  C_19
REMARK   10  A    between atoms: C_15  and  C_20
REMARK   11  A    between atoms: C_25  and  C_27
REMARK   12  A    between atoms: C_26  and  C_28
REMARK                            x       y       z     vdW  Elec       q    Type
REMARK                         _______ _______ _______ _____ _____    ______ ____
ROOT
ATOM      8  C   UNL     1      -3.327   1.066  23.798  0.00  0.00    +0.000 C 
ATOM      9  C   UNL     1      -4.845   0.780  23.908  0.00  0.00    +0.032 C 
ATOM     10  C   UNL     1      -2.618  -0.078  23.057  0.00  0.00    +0.012 C 
ATOM     11  C   UNL     1      -2.809  -1.435  23.762  0.00  0.00    +0.023 C 
ATOM     13  C   UNL     1      -4.256  -1.671  24.146  0.00  0.00    -0.073 C 
ATOM     14  C   UNL     1      -5.154  -0.671  24.193  0.00  0.00    -0.022 C 
ATOM     19  C   UNL     1      -4.657  -3.091  24.430  0.00  0.00    +0.039 C 
ENDROOT
BRANCH   8  12
ATOM     12  C   UNL     1      -3.048   2.395  23.088  0.00  0.00    -0.013 C 
ATOM     17  C   UNL     1      -2.217   2.162  21.830  0.00  0.00    +0.007 C 
ATOM     18  C   UNL     1      -4.357   3.100  22.748  0.00  0.00    +0.007 C 
ENDBRANCH   8  12
BRANCH  11  15
ATOM     15  C   UNL     1      -1.890  -1.558  24.982  0.00  0.00    +0.103 C 
BRANCH  15  20
ATOM      1  O   UNL     1      -1.818   0.620  25.914  0.00  0.00    -0.276 OA
ATOM      4  O   UNL     1       3.980   0.024  21.778  0.00  0.00    -0.276 OA
ATOM      5  N   UNL     1       0.059  -0.063  24.728  0.00  0.00    -0.298 N 
ATOM      7  N   UNL     1       2.078   0.731  22.907  0.00  0.00    -0.299 N 
ATOM     20  C   UNL     1      -1.221  -0.235  25.255  0.00  0.00    +0.216 C 
ATOM     21  C   UNL     1       0.776   1.195  24.946  0.00  0.00    +0.126 C 
ATOM     22  C   UNL     1       0.826  -1.086  24.005  0.00  0.00    +0.126 C 
ATOM     23  C   UNL     1       1.311   1.753  23.630  0.00  0.00    +0.126 C 
ATOM     24  C   UNL     1       1.359  -0.528  22.689  0.00  0.00    +0.126 C 
ATOM     26  C   UNL     1       3.358   0.901  22.382  0.00  0.00    +0.213 C 
ATOM     28  C   UNL     1       3.996   2.252  22.585  0.00  0.00    +0.109 C 
ENDBRANCH  15  20
ENDBRANCH  11  15
BRANCH   9  16
ATOM     16  C   UNL     1      -5.497   1.661  24.981  0.00  0.00    +0.112 C 
BRANCH  16   6
ATOM      2  O   UNL     1      -5.659   4.448  25.738  0.00  0.00    -0.273 OA
ATOM      6  N   UNL     1      -4.511   2.423  25.680  0.00  0.00    -0.313 N 
ATOM     25  C   UNL     1      -4.671   3.769  26.007  0.00  0.00    +0.239 C 
ATOM     30  H   UNL     1      -3.674   1.945  26.001  0.00  0.00    +0.149 HD
BRANCH  25  27
ATOM     27  C   UNL     1      -3.472   4.325  26.745  0.00  0.00    +0.255 C 
BRANCH  27   3
ATOM      3  O   UNL     1      -2.271   3.858  26.170  0.00  0.00    -0.374 OA
ATOM     29  C   UNL     1      -1.688   4.824  25.299  0.00  0.00    +0.194 C 
ENDBRANCH  27   3
ENDBRANCH  25  27
ENDBRANCH  16   6
ENDBRANCH   9  16
TORSDOF 7
ENDMDL
