MODEL 1
REMARK VINA RESULT:      -1.0      0.000      0.000
REMARK  Name = 75536086
REMARK  8 active torsions:
REMARK  status: ('A' for Active; 'I' for Inactive)
REMARK    1  A    between atoms: O_1  and  C_10
REMARK    2  A    between atoms: O_2  and  C_12
REMARK    3  A    between atoms: N_5  and  C_9
REMARK    4  A    between atoms: N_7  and  C_19
REMARK    5  A    between atoms: C_8  and  C_13
REMARK    6  A    between atoms: C_16  and  C_17
REMARK    7  A    between atoms: C_17  and  C_22
REMARK    8  A    between atoms: C_17  and  C_23
REMARK                            x       y       z     vdW  Elec       q    Type
REMARK                         _______ _______ _______ _____ _____    ______ ____
ROOT
ATOM      8  C   UNL     1      -2.610   0.619  23.561  0.00  0.00    +0.046 C 
ATOM      9  C   UNL     1      -3.142   1.093  24.932  0.00  0.00    +0.111 C 
ATOM     10  C   UNL     1      -4.542   0.487  25.000  0.00  0.00    +0.164 C 
ATOM     11  C   UNL     1      -3.425  -0.653  23.208  0.00  0.00    +0.044 C 
ATOM     12  C   UNL     1      -4.348  -0.902  24.401  0.00  0.00    +0.145 C 
ENDROOT
BRANCH   8  13
ATOM      6  N   UNL     1       1.100   1.399  23.430  0.00  0.00    -0.240 NA
ATOM     13  C   UNL     1      -1.108   0.422  23.544  0.00  0.00    -0.024 A 
ATOM     14  C   UNL     1      -0.550  -0.849  23.618  0.00  0.00    +0.009 A 
ATOM     15  C   UNL     1      -0.247   1.504  23.452  0.00  0.00    +0.116 A 
ATOM     18  C   UNL     1       0.832  -0.998  23.597  0.00  0.00    +0.044 A 
ATOM     19  C   UNL     1       1.607   0.147  23.503  0.00  0.00    +0.121 A 
BRANCH  19   7
ATOM      4  O   UNL     1       5.761  -0.401  23.170  0.00  0.00    -0.377 OA
ATOM      7  N   UNL     1       2.995  -0.017  23.482  0.00  0.00    -0.311 N 
ATOM     20  C   UNL     1       3.797   0.946  22.716  0.00  0.00    +0.134 C 
ATOM     21  C   UNL     1       3.575  -1.360  23.598  0.00  0.00    +0.134 C 
ATOM     24  C   UNL     1       5.238   0.926  23.211  0.00  0.00    +0.178 C 
ATOM     25  C   UNL     1       5.028  -1.257  24.046  0.00  0.00    +0.178 C 
ENDBRANCH  19   7
ENDBRANCH   8  13
BRANCH   9   5
ATOM      3  O   UNL     1      -1.227   2.771  26.273  0.00  0.00    -0.276 OA
ATOM      5  N   UNL     1      -3.173   2.531  25.032  0.00  0.00    -0.309 N 
ATOM     16  C   UNL     1      -2.200   3.262  25.703  0.00  0.00    +0.216 C 
ATOM     26  H   UNL     1      -3.906   3.028  24.535  0.00  0.00    +0.149 HD
BRANCH  16  17
ATOM     17  C   UNL     1      -2.465   4.765  25.665  0.00  0.00    +0.069 C 
ATOM     22  C   UNL     1      -1.309   5.487  24.977  0.00  0.00    +0.017 C 
ATOM     23  C   UNL     1      -3.782   5.074  24.956  0.00  0.00    +0.017 C 
ENDBRANCH  16  17
ENDBRANCH   9   5
BRANCH  10   1
ATOM      1  O   UNL     1      -5.028   0.406  26.326  0.00  0.00    -0.387 OA
ATOM     27  H   UNL     1      -5.903  -0.018  26.292  0.00  0.00    +0.210 HD
ENDBRANCH  10   1
BRANCH  12   2
ATOM      2  O   UNL     1      -3.683  -1.765  25.319  0.00  0.00    -0.389 OA
ATOM     28  H   UNL     1      -4.339  -2.050  25.978  0.00  0.00    +0.210 HD
ENDBRANCH  12   2
TORSDOF 6
ENDMDL
MODEL 2
REMARK VINA RESULT:       1.1      1.843      4.146
REMARK  Name = 75536086
REMARK  8 active torsions:
REMARK  status: ('A' for Active; 'I' for Inactive)
REMARK    1  A    between atoms: O_1  and  C_10
REMARK    2  A    between atoms: O_2  and  C_12
REMARK    3  A    between atoms: N_5  and  C_9
REMARK    4  A    between atoms: N_7  and  C_19
REMARK    5  A    between atoms: C_8  and  C_13
REMARK    6  A    between atoms: C_16  and  C_17
REMARK    7  A    between atoms: C_17  and  C_22
REMARK    8  A    between atoms: C_17  and  C_23
REMARK                            x       y       z     vdW  Elec       q    Type
REMARK                         _______ _______ _______ _____ _____    ______ ____
ROOT
ATOM      8  C   UNL     1      -2.487   1.917  25.719  0.00  0.00    +0.046 C 
ATOM      9  C   UNL     1      -3.697   1.528  24.841  0.00  0.00    +0.111 C 
ATOM     10  C   UNL     1      -4.778   2.522  25.263  0.00  0.00    +0.164 C 
ATOM     11  C   UNL     1      -2.716   3.396  26.124  0.00  0.00    +0.044 C 
ATOM     12  C   UNL     1      -4.005   3.826  25.424  0.00  0.00    +0.145 C 
ENDROOT
BRANCH   8  13
ATOM      6  N   UNL     1       0.464   0.053  24.235  0.00  0.00    -0.240 NA
ATOM     13  C   UNL     1      -1.157   1.653  25.047  0.00  0.00    -0.024 A 
ATOM     14  C   UNL     1      -0.343   2.699  24.631  0.00  0.00    +0.009 A 
ATOM     15  C   UNL     1      -0.712   0.358  24.828  0.00  0.00    +0.116 A 
ATOM     18  C   UNL     1       0.875   2.425  24.018  0.00  0.00    +0.044 A 
ATOM     19  C   UNL     1       1.229   1.097  23.845  0.00  0.00    +0.121 A 
BRANCH  19   7
ATOM      4  O   UNL     1       4.873   0.043  22.032  0.00  0.00    -0.377 OA
ATOM      7  N   UNL     1       2.457   0.836  23.228  0.00  0.00    -0.311 N 
ATOM     20  C   UNL     1       2.451   0.114  21.948  0.00  0.00    +0.134 C 
ATOM     21  C   UNL     1       3.662   0.649  24.045  0.00  0.00    +0.134 C 
ATOM     24  C   UNL     1       3.757   0.371  21.206  0.00  0.00    +0.178 C 
ATOM     25  C   UNL     1       4.903   0.877  23.190  0.00  0.00    +0.178 C 
ENDBRANCH  19   7
ENDBRANCH   8  13
BRANCH   9   5
ATOM      3  O   UNL     1      -3.385  -0.677  23.019  0.00  0.00    -0.276 OA
ATOM      5  N   UNL     1      -4.108   0.164  25.057  0.00  0.00    -0.309 N 
ATOM     16  C   UNL     1      -3.915  -0.841  24.117  0.00  0.00    +0.216 C 
ATOM     26  H   UNL     1      -4.497  -0.080  25.963  0.00  0.00    +0.149 HD
BRANCH  16  17
ATOM     17  C   UNL     1      -4.441  -2.195  24.588  0.00  0.00    +0.069 C 
ATOM     22  C   UNL     1      -4.826  -3.057  23.388  0.00  0.00    +0.017 C 
ATOM     23  C   UNL     1      -3.408  -2.916  25.452  0.00  0.00    +0.017 C 
ENDBRANCH  16  17
ENDBRANCH   9   5
BRANCH  10   1
ATOM      1  O   UNL     1      -5.798   2.651  24.291  0.00  0.00    -0.387 OA
ATOM     27  H   UNL     1      -6.283   3.472  24.483  0.00  0.00    +0.210 HD
ENDBRANCH  10   1
BRANCH  12   2
ATOM      2  O   UNL     1      -3.671   4.382  24.156  0.00  0.00    -0.389 OA
ATOM     28  H   UNL     1      -4.072   5.266  24.109  0.00  0.00    +0.210 HD
ENDBRANCH  12   2
TORSDOF 6
ENDMDL
