MODEL 1
REMARK VINA RESULT:      -3.5      0.000      0.000
REMARK  Name = 45783414
REMARK  9 active torsions:
REMARK  status: ('A' for Active; 'I' for Inactive)
REMARK    1  A    between atoms: O_3  and  C_21
REMARK    2  A    between atoms: O_3  and  C_25
REMARK    3  A    between atoms: O_4  and  C_26
REMARK    4  A    between atoms: O_4  and  C_27
REMARK    5  A    between atoms: N_5  and  C_13
REMARK    6  A    between atoms: C_9  and  C_14
REMARK    7  A    between atoms: C_13  and  C_15
REMARK    8  A    between atoms: C_16  and  C_19
REMARK    9  A    between atoms: C_25  and  C_26
REMARK                            x       y       z     vdW  Elec       q    Type
REMARK                         _______ _______ _______ _____ _____    ______ ____
ROOT
ATOM      1  O   UNL     1      -1.423   1.516  22.713  0.00  0.00    -0.336 OA
ATOM      6  N   UNL     1      -1.991   1.339  24.872  0.00  0.00    -0.190 NA
ATOM      7  N   UNL     1      -2.729   2.013  22.815  0.00  0.00    -0.056 NA
ATOM     14  C   UNL     1      -1.064   1.141  23.968  0.00  0.00    +0.245 A 
ATOM     16  C   UNL     1      -2.993   1.875  24.117  0.00  0.00    +0.207 A 
ENDROOT
BRANCH  16  19
ATOM      8  N   UNL     1      -5.690   3.981  25.594  0.00  0.00    -0.221 NA
ATOM     19  C   UNL     1      -4.248   2.262  24.695  0.00  0.00    +0.084 A 
ATOM     21  C   UNL     1      -4.523   3.573  25.047  0.00  0.00    +0.226 A 
ATOM     22  C   UNL     1      -5.234   1.307  24.919  0.00  0.00    +0.018 A 
ATOM     23  C   UNL     1      -6.448   1.688  25.480  0.00  0.00    +0.021 A 
ATOM     24  C   UNL     1      -6.624   3.026  25.797  0.00  0.00    +0.114 A 
BRANCH  21   3
ATOM      3  O   UNL     1      -3.582   4.550  24.845  0.00  0.00    -0.474 OA
BRANCH   3  25
ATOM     25  C   UNL     1      -2.508   4.603  25.776  0.00  0.00    +0.258 C 
BRANCH  25  26
ATOM     26  C   UNL     1      -1.286   5.184  25.090  0.00  0.00    +0.200 C 
BRANCH  26   4
ATOM      4  O   UNL     1      -0.281   4.181  25.005  0.00  0.00    -0.380 OA
ATOM     27  C   UNL     1      -0.226   3.398  26.190  0.00  0.00    +0.194 C 
ENDBRANCH  26   4
ENDBRANCH  25  26
ENDBRANCH   3  25
ENDBRANCH  21   3
ENDBRANCH  16  19
BRANCH  14   9
ATOM      5  N   UNL     1       0.397  -0.859  23.736  0.00  0.00    -0.284 NA
ATOM      9  C   UNL     1       0.326   0.562  24.129  0.00  0.00    +0.146 C 
ATOM     10  C   UNL     1       1.370   1.266  23.243  0.00  0.00    +0.030 C 
ATOM     11  C   UNL     1       2.019   0.153  22.432  0.00  0.00    +0.017 C 
ATOM     12  C   UNL     1       1.762  -1.089  23.261  0.00  0.00    +0.085 C 
BRANCH   5  13
ATOM     13  C   UNL     1       0.030  -1.772  24.812  0.00  0.00    +0.159 C 
BRANCH  13  15
ATOM      2  O   UNL     1      -2.123  -1.438  25.898  0.00  0.00    -0.467 OA
ATOM     15  C   UNL     1      -1.456  -2.012  24.861  0.00  0.00    +0.119 A 
ATOM     17  C   UNL     1      -2.324  -2.712  24.056  0.00  0.00    +0.046 A 
ATOM     18  C   UNL     1      -3.606  -2.558  24.634  0.00  0.00    +0.041 A 
ATOM     20  C   UNL     1      -3.432  -1.776  25.751  0.00  0.00    +0.195 A 
ENDBRANCH  13  15
ENDBRANCH   5  13
ENDBRANCH  14   9
TORSDOF 8
ENDMDL
MODEL 2
REMARK VINA RESULT:      -2.7      1.764      5.392
REMARK  Name = 45783414
REMARK  9 active torsions:
REMARK  status: ('A' for Active; 'I' for Inactive)
REMARK    1  A    between atoms: O_3  and  C_21
REMARK    2  A    between atoms: O_3  and  C_25
REMARK    3  A    between atoms: O_4  and  C_26
REMARK    4  A    between atoms: O_4  and  C_27
REMARK    5  A    between atoms: N_5  and  C_13
REMARK    6  A    between atoms: C_9  and  C_14
REMARK    7  A    between atoms: C_13  and  C_15
REMARK    8  A    between atoms: C_16  and  C_19
REMARK    9  A    between atoms: C_25  and  C_26
REMARK                            x       y       z     vdW  Elec       q    Type
REMARK                         _______ _______ _______ _____ _____    ______ ____
ROOT
ATOM      1  O   UNL     1      -2.670   2.151  22.241  0.00  0.00    -0.336 OA
ATOM      6  N   UNL     1      -2.629   1.471  24.375  0.00  0.00    -0.190 NA
ATOM      7  N   UNL     1      -2.834   0.760  22.210  0.00  0.00    -0.056 NA
ATOM     14  C   UNL     1      -2.558   2.487  23.552  0.00  0.00    +0.245 A 
ATOM     16  C   UNL     1      -2.798   0.433  23.505  0.00  0.00    +0.207 A 
ENDROOT
BRANCH  16  19
ATOM      8  N   UNL     1      -1.978  -2.851  25.065  0.00  0.00    -0.221 NA
ATOM     19  C   UNL     1      -2.928  -0.921  23.963  0.00  0.00    +0.084 A 
ATOM     21  C   UNL     1      -1.899  -1.578  24.617  0.00  0.00    +0.226 A 
ATOM     22  C   UNL     1      -4.116  -1.613  23.756  0.00  0.00    +0.018 A 
ATOM     23  C   UNL     1      -4.236  -2.925  24.203  0.00  0.00    +0.021 A 
ATOM     24  C   UNL     1      -3.147  -3.492  24.846  0.00  0.00    +0.114 A 
BRANCH  21   3
ATOM      3  O   UNL     1      -0.709  -0.936  24.844  0.00  0.00    -0.474 OA
BRANCH   3  25
ATOM     25  C   UNL     1       0.322  -1.145  23.888  0.00  0.00    +0.258 C 
BRANCH  25  26
ATOM     26  C   UNL     1       0.774   0.198  23.345  0.00  0.00    +0.200 C 
BRANCH  26   4
ATOM      4  O   UNL     1       1.733  -0.017  22.317  0.00  0.00    -0.380 OA
ATOM     27  C   UNL     1       3.012   0.481  22.685  0.00  0.00    +0.194 C 
ENDBRANCH  26   4
ENDBRANCH  25  26
ENDBRANCH   3  25
ENDBRANCH  21   3
ENDBRANCH  16  19
BRANCH  14   9
ATOM      5  N   UNL     1      -2.877   4.328  25.196  0.00  0.00    -0.284 NA
ATOM      9  C   UNL     1      -2.370   3.959  23.859  0.00  0.00    +0.146 C 
ATOM     10  C   UNL     1      -0.889   4.379  23.873  0.00  0.00    +0.030 C 
ATOM     11  C   UNL     1      -0.673   5.031  25.231  0.00  0.00    +0.017 C 
ATOM     12  C   UNL     1      -2.065   5.458  25.647  0.00  0.00    +0.085 C 
BRANCH   5  13
ATOM     13  C   UNL     1      -4.302   4.638  25.204  0.00  0.00    +0.159 C 
BRANCH  13  15
ATOM      2  O   UNL     1      -5.507   3.093  26.649  0.00  0.00    -0.467 OA
ATOM     15  C   UNL     1      -5.144   3.402  25.376  0.00  0.00    +0.119 A 
ATOM     17  C   UNL     1      -5.647   2.476  24.492  0.00  0.00    +0.046 A 
ATOM     18  C   UNL     1      -6.367   1.540  25.271  0.00  0.00    +0.041 A 
ATOM     20  C   UNL     1      -6.252   1.959  26.576  0.00  0.00    +0.195 A 
ENDBRANCH  13  15
ENDBRANCH   5  13
ENDBRANCH  14   9
TORSDOF 8
ENDMDL
MODEL 3
REMARK VINA RESULT:      -2.7      1.795      5.645
REMARK  Name = 45783414
REMARK  9 active torsions:
REMARK  status: ('A' for Active; 'I' for Inactive)
REMARK    1  A    between atoms: O_3  and  C_21
REMARK    2  A    between atoms: O_3  and  C_25
REMARK    3  A    between atoms: O_4  and  C_26
REMARK    4  A    between atoms: O_4  and  C_27
REMARK    5  A    between atoms: N_5  and  C_13
REMARK    6  A    between atoms: C_9  and  C_14
REMARK    7  A    between atoms: C_13  and  C_15
REMARK    8  A    between atoms: C_16  and  C_19
REMARK    9  A    between atoms: C_25  and  C_26
REMARK                            x       y       z     vdW  Elec       q    Type
REMARK                         _______ _______ _______ _____ _____    ______ ____
ROOT
ATOM      1  O   UNL     1      -1.185   2.190  25.774  0.00  0.00    -0.336 OA
ATOM      6  N   UNL     1      -2.248   1.386  23.974  0.00  0.00    -0.190 NA
ATOM      7  N   UNL     1      -1.303   0.809  25.975  0.00  0.00    -0.056 NA
ATOM     14  C   UNL     1      -1.766   2.446  24.573  0.00  0.00    +0.245 A 
ATOM     16  C   UNL     1      -1.940   0.406  24.873  0.00  0.00    +0.207 A 
ENDROOT
BRANCH  16  19
ATOM      8  N   UNL     1      -1.617  -3.213  24.040  0.00  0.00    -0.221 NA
ATOM     19  C   UNL     1      -2.284  -0.967  24.637  0.00  0.00    +0.084 A 
ATOM     21  C   UNL     1      -1.337  -1.910  24.271  0.00  0.00    +0.226 A 
ATOM     22  C   UNL     1      -3.602  -1.387  24.776  0.00  0.00    +0.018 A 
ATOM     23  C   UNL     1      -3.929  -2.719  24.547  0.00  0.00    +0.021 A 
ATOM     24  C   UNL     1      -2.909  -3.583  24.184  0.00  0.00    +0.114 A 
BRANCH  21   3
ATOM      3  O   UNL     1      -0.024  -1.544  24.122  0.00  0.00    -0.474 OA
BRANCH   3  25
ATOM     25  C   UNL     1       0.295  -0.765  22.976  0.00  0.00    +0.258 C 
BRANCH  25  26
ATOM     26  C   UNL     1       1.432   0.179  23.320  0.00  0.00    +0.200 C 
BRANCH  26   4
ATOM      4  O   UNL     1       2.429   0.090  22.309  0.00  0.00    -0.380 OA
ATOM     27  C   UNL     1       3.617   0.773  22.688  0.00  0.00    +0.194 C 
ENDBRANCH  26   4
ENDBRANCH  25  26
ENDBRANCH   3  25
ENDBRANCH  21   3
ENDBRANCH  16  19
BRANCH  14   9
ATOM      5  N   UNL     1      -2.672   4.736  24.925  0.00  0.00    -0.284 NA
ATOM      9  C   UNL     1      -1.770   3.890  24.118  0.00  0.00    +0.146 C 
ATOM     10  C   UNL     1      -0.389   4.558  24.247  0.00  0.00    +0.030 C 
ATOM     11  C   UNL     1      -0.626   5.803  25.090  0.00  0.00    +0.017 C 
ATOM     12  C   UNL     1      -2.103   6.084  24.904  0.00  0.00    +0.085 C 
BRANCH   5  13
ATOM     13  C   UNL     1      -4.052   4.717  24.453  0.00  0.00    +0.159 C 
BRANCH  13  15
ATOM      2  O   UNL     1      -5.114   2.553  24.113  0.00  0.00    -0.467 OA
ATOM     15  C   UNL     1      -4.814   3.539  25.000  0.00  0.00    +0.119 A 
ATOM     17  C   UNL     1      -5.295   3.228  26.250  0.00  0.00    +0.046 A 
ATOM     18  C   UNL     1      -5.930   1.969  26.124  0.00  0.00    +0.041 A 
ATOM     20  C   UNL     1      -5.793   1.601  24.807  0.00  0.00    +0.195 A 
ENDBRANCH  13  15
ENDBRANCH   5  13
ENDBRANCH  14   9
TORSDOF 8
ENDMDL
MODEL 4
REMARK VINA RESULT:      -2.6      1.181      6.787
REMARK  Name = 45783414
REMARK  9 active torsions:
REMARK  status: ('A' for Active; 'I' for Inactive)
REMARK    1  A    between atoms: O_3  and  C_21
REMARK    2  A    between atoms: O_3  and  C_25
REMARK    3  A    between atoms: O_4  and  C_26
REMARK    4  A    between atoms: O_4  and  C_27
REMARK    5  A    between atoms: N_5  and  C_13
REMARK    6  A    between atoms: C_9  and  C_14
REMARK    7  A    between atoms: C_13  and  C_15
REMARK    8  A    between atoms: C_16  and  C_19
REMARK    9  A    between atoms: C_25  and  C_26
REMARK                            x       y       z     vdW  Elec       q    Type
REMARK                         _______ _______ _______ _____ _____    ______ ____
ROOT
ATOM      1  O   UNL     1      -3.173   1.858  23.225  0.00  0.00    -0.336 OA
ATOM      6  N   UNL     1      -1.776   1.157  24.831  0.00  0.00    -0.190 NA
ATOM      7  N   UNL     1      -1.960   1.563  22.587  0.00  0.00    -0.056 NA
ATOM     14  C   UNL     1      -2.978   1.590  24.543  0.00  0.00    +0.245 A 
ATOM     16  C   UNL     1      -1.188   1.157  23.599  0.00  0.00    +0.207 A 
ENDROOT
BRANCH  16  19
ATOM      8  N   UNL     1       1.800  -1.022  23.137  0.00  0.00    -0.221 NA
ATOM     19  C   UNL     1       0.173   0.745  23.414  0.00  0.00    +0.084 A 
ATOM     21  C   UNL     1       0.531  -0.590  23.312  0.00  0.00    +0.226 A 
ATOM     22  C   UNL     1       1.183   1.698  23.333  0.00  0.00    +0.018 A 
ATOM     23  C   UNL     1       2.501   1.293  23.155  0.00  0.00    +0.021 A 
ATOM     24  C   UNL     1       2.754  -0.067  23.064  0.00  0.00    +0.114 A 
BRANCH  21   3
ATOM      3  O   UNL     1      -0.429  -1.566  23.385  0.00  0.00    -0.474 OA
BRANCH   3  25
ATOM     25  C   UNL     1      -0.850  -1.950  24.688  0.00  0.00    +0.258 C 
BRANCH  25  26
ATOM     26  C   UNL     1      -2.121  -2.770  24.577  0.00  0.00    +0.200 C 
BRANCH  26   4
ATOM      4  O   UNL     1      -3.237  -1.937  24.868  0.00  0.00    -0.380 OA
ATOM     27  C   UNL     1      -4.208  -1.988  23.832  0.00  0.00    +0.194 C 
ENDBRANCH  26   4
ENDBRANCH  25  26
ENDBRANCH   3  25
ENDBRANCH  21   3
ENDBRANCH  16  19
BRANCH  14   9
ATOM      5  N   UNL     1      -4.654   3.220  25.396  0.00  0.00    -0.284 NA
ATOM      9  C   UNL     1      -4.158   1.831  25.462  0.00  0.00    +0.146 C 
ATOM     10  C   UNL     1      -5.377   0.963  25.103  0.00  0.00    +0.030 C 
ATOM     11  C   UNL     1      -6.524   1.946  24.915  0.00  0.00    +0.017 C 
ATOM     12  C   UNL     1      -6.083   3.163  25.702  0.00  0.00    +0.085 C 
BRANCH   5  13
ATOM     13  C   UNL     1      -3.938   4.128  26.284  0.00  0.00    +0.159 C 
BRANCH  13  15
ATOM      2  O   UNL     1      -1.556   3.631  26.319  0.00  0.00    -0.467 OA
ATOM     15  C   UNL     1      -2.542   4.407  25.796  0.00  0.00    +0.119 A 
ATOM     17  C   UNL     1      -2.021   5.311  24.900  0.00  0.00    +0.046 A 
ATOM     18  C   UNL     1      -0.626   5.075  24.869  0.00  0.00    +0.041 A 
ATOM     20  C   UNL     1      -0.393   4.044  25.749  0.00  0.00    +0.195 A 
ENDBRANCH  13  15
ENDBRANCH   5  13
ENDBRANCH  14   9
TORSDOF 8
ENDMDL
MODEL 5
REMARK VINA RESULT:      -2.5      1.510      3.514
REMARK  Name = 45783414
REMARK  9 active torsions:
REMARK  status: ('A' for Active; 'I' for Inactive)
REMARK    1  A    between atoms: O_3  and  C_21
REMARK    2  A    between atoms: O_3  and  C_25
REMARK    3  A    between atoms: O_4  and  C_26
REMARK    4  A    between atoms: O_4  and  C_27
REMARK    5  A    between atoms: N_5  and  C_13
REMARK    6  A    between atoms: C_9  and  C_14
REMARK    7  A    between atoms: C_13  and  C_15
REMARK    8  A    between atoms: C_16  and  C_19
REMARK    9  A    between atoms: C_25  and  C_26
REMARK                            x       y       z     vdW  Elec       q    Type
REMARK                         _______ _______ _______ _____ _____    ______ ____
ROOT
ATOM      1  O   UNL     1      -1.679   1.048  22.628  0.00  0.00    -0.336 OA
ATOM      6  N   UNL     1      -2.719   0.465  24.525  0.00  0.00    -0.190 NA
ATOM      7  N   UNL     1      -2.645   2.036  22.864  0.00  0.00    -0.056 NA
ATOM     14  C   UNL     1      -1.790   0.163  23.653  0.00  0.00    +0.245 A 
ATOM     16  C   UNL     1      -3.216   1.622  23.998  0.00  0.00    +0.207 A 
ENDROOT
BRANCH  16  19
ATOM      8  N   UNL     1      -5.165   4.401  25.538  0.00  0.00    -0.221 NA
ATOM     19  C   UNL     1      -4.285   2.340  24.631  0.00  0.00    +0.084 A 
ATOM     21  C   UNL     1      -4.184   3.686  24.942  0.00  0.00    +0.226 A 
ATOM     22  C   UNL     1      -5.468   1.684  24.952  0.00  0.00    +0.018 A 
ATOM     23  C   UNL     1      -6.501   2.385  25.565  0.00  0.00    +0.021 A 
ATOM     24  C   UNL     1      -6.300   3.730  25.835  0.00  0.00    +0.114 A 
BRANCH  21   3
ATOM      3  O   UNL     1      -3.037   4.376  24.645  0.00  0.00    -0.474 OA
BRANCH   3  25
ATOM     25  C   UNL     1      -1.982   4.299  25.596  0.00  0.00    +0.258 C 
BRANCH  25  26
ATOM     26  C   UNL     1      -0.654   4.285  24.862  0.00  0.00    +0.200 C 
BRANCH  26   4
ATOM      4  O   UNL     1      -0.086   2.985  24.956  0.00  0.00    -0.380 OA
ATOM     27  C   UNL     1      -0.249   2.438  26.258  0.00  0.00    +0.194 C 
ENDBRANCH  26   4
ENDBRANCH  25  26
ENDBRANCH   3  25
ENDBRANCH  21   3
ENDBRANCH  16  19
BRANCH  14   9
ATOM      5  N   UNL     1       0.551  -0.630  23.937  0.00  0.00    -0.284 NA
ATOM      9  C   UNL     1      -0.841  -1.017  23.631  0.00  0.00    +0.146 C 
ATOM     10  C   UNL     1      -1.192  -2.081  24.686  0.00  0.00    +0.030 C 
ATOM     11  C   UNL     1       0.082  -2.272  25.498  0.00  0.00    +0.017 C 
ATOM     12  C   UNL     1       1.175  -1.795  24.564  0.00  0.00    +0.085 C 
BRANCH   5  13
ATOM     13  C   UNL     1       1.291  -0.176  22.765  0.00  0.00    +0.159 C 
BRANCH  13  15
ATOM      2  O   UNL     1       3.372   1.087  22.793  0.00  0.00    -0.467 OA
ATOM     15  C   UNL     1       2.772  -0.109  23.029  0.00  0.00    +0.119 A 
ATOM     17  C   UNL     1       3.691  -1.031  23.474  0.00  0.00    +0.046 A 
ATOM     18  C   UNL     1       4.934  -0.357  23.516  0.00  0.00    +0.041 A 
ATOM     20  C   UNL     1       4.688   0.928  23.093  0.00  0.00    +0.195 A 
ENDBRANCH  13  15
ENDBRANCH   5  13
ENDBRANCH  14   9
TORSDOF 8
ENDMDL
MODEL 6
REMARK VINA RESULT:      -2.0      1.681      6.164
REMARK  Name = 45783414
REMARK  9 active torsions:
REMARK  status: ('A' for Active; 'I' for Inactive)
REMARK    1  A    between atoms: O_3  and  C_21
REMARK    2  A    between atoms: O_3  and  C_25
REMARK    3  A    between atoms: O_4  and  C_26
REMARK    4  A    between atoms: O_4  and  C_27
REMARK    5  A    between atoms: N_5  and  C_13
REMARK    6  A    between atoms: C_9  and  C_14
REMARK    7  A    between atoms: C_13  and  C_15
REMARK    8  A    between atoms: C_16  and  C_19
REMARK    9  A    between atoms: C_25  and  C_26
REMARK                            x       y       z     vdW  Elec       q    Type
REMARK                         _______ _______ _______ _____ _____    ______ ____
ROOT
ATOM      1  O   UNL     1      -3.906   2.233  23.815  0.00  0.00    -0.336 OA
ATOM      6  N   UNL     1      -4.068   0.688  25.430  0.00  0.00    -0.190 NA
ATOM      7  N   UNL     1      -3.428   1.038  23.262  0.00  0.00    -0.056 NA
ATOM     14  C   UNL     1      -4.262   1.939  25.093  0.00  0.00    +0.245 A 
ATOM     16  C   UNL     1      -3.555   0.176  24.274  0.00  0.00    +0.207 A 
ENDROOT
BRANCH  16  19
ATOM      8  N   UNL     1      -1.468  -2.912  24.226  0.00  0.00    -0.221 NA
ATOM     19  C   UNL     1      -3.178  -1.204  24.164  0.00  0.00    +0.084 A 
ATOM     21  C   UNL     1      -1.867  -1.624  24.320  0.00  0.00    +0.226 A 
ATOM     22  C   UNL     1      -4.143  -2.169  23.893  0.00  0.00    +0.018 A 
ATOM     23  C   UNL     1      -3.771  -3.505  23.788  0.00  0.00    +0.021 A 
ATOM     24  C   UNL     1      -2.433  -3.821  23.961  0.00  0.00    +0.114 A 
BRANCH  21   3
ATOM      3  O   UNL     1      -0.881  -0.709  24.589  0.00  0.00    -0.474 OA
BRANCH   3  25
ATOM     25  C   UNL     1       0.389  -0.948  23.995  0.00  0.00    +0.258 C 
BRANCH  25  26
ATOM     26  C   UNL     1       0.668   0.136  22.970  0.00  0.00    +0.200 C 
BRANCH  26   4
ATOM      4  O   UNL     1       1.826  -0.219  22.224  0.00  0.00    -0.380 OA
ATOM     27  C   UNL     1       2.978   0.469  22.692  0.00  0.00    +0.194 C 
ENDBRANCH  26   4
ENDBRANCH  25  26
ENDBRANCH   3  25
ENDBRANCH  21   3
ENDBRANCH  16  19
BRANCH  14   9
ATOM      5  N   UNL     1      -4.153   4.366  25.631  0.00  0.00    -0.284 NA
ATOM      9  C   UNL     1      -4.820   3.080  25.919  0.00  0.00    +0.146 C 
ATOM     10  C   UNL     1      -6.311   3.342  25.641  0.00  0.00    +0.030 C 
ATOM     11  C   UNL     1      -6.393   4.815  25.266  0.00  0.00    +0.017 C 
ATOM     12  C   UNL     1      -5.145   5.411  25.884  0.00  0.00    +0.085 C 
BRANCH   5  13
ATOM     13  C   UNL     1      -2.934   4.567  26.406  0.00  0.00    +0.159 C 
BRANCH  13  15
ATOM      2  O   UNL     1      -1.186   2.874  26.370  0.00  0.00    -0.467 OA
ATOM     15  C   UNL     1      -1.736   3.945  25.739  0.00  0.00    +0.119 A 
ATOM     17  C   UNL     1      -1.046   4.233  24.585  0.00  0.00    +0.046 A 
ATOM     18  C   UNL     1      -0.007   3.278  24.499  0.00  0.00    +0.041 A 
ATOM     20  C   UNL     1      -0.134   2.474  25.608  0.00  0.00    +0.195 A 
ENDBRANCH  13  15
ENDBRANCH   5  13
ENDBRANCH  14   9
TORSDOF 8
ENDMDL
MODEL 7
REMARK VINA RESULT:      -0.5      1.919      4.599
REMARK  Name = 45783414
REMARK  9 active torsions:
REMARK  status: ('A' for Active; 'I' for Inactive)
REMARK    1  A    between atoms: O_3  and  C_21
REMARK    2  A    between atoms: O_3  and  C_25
REMARK    3  A    between atoms: O_4  and  C_26
REMARK    4  A    between atoms: O_4  and  C_27
REMARK    5  A    between atoms: N_5  and  C_13
REMARK    6  A    between atoms: C_9  and  C_14
REMARK    7  A    between atoms: C_13  and  C_15
REMARK    8  A    between atoms: C_16  and  C_19
REMARK    9  A    between atoms: C_25  and  C_26
REMARK                            x       y       z     vdW  Elec       q    Type
REMARK                         _______ _______ _______ _____ _____    ______ ____
ROOT
ATOM      1  O   UNL     1      -1.526   1.063  22.463  0.00  0.00    -0.336 OA
ATOM      6  N   UNL     1      -1.790   1.048  24.688  0.00  0.00    -0.190 NA
ATOM      7  N   UNL     1      -2.273   2.206  22.775  0.00  0.00    -0.056 NA
ATOM     14  C   UNL     1      -1.283   0.439  23.645  0.00  0.00    +0.245 A 
ATOM     16  C   UNL     1      -2.388   2.127  24.104  0.00  0.00    +0.207 A 
ENDROOT
BRANCH  16  19
ATOM      8  N   UNL     1      -5.167   3.949  25.791  0.00  0.00    -0.221 NA
ATOM     19  C   UNL     1      -3.093   3.108  24.878  0.00  0.00    +0.084 A 
ATOM     21  C   UNL     1      -4.463   3.048  25.070  0.00  0.00    +0.226 A 
ATOM     22  C   UNL     1      -2.398   4.161  25.464  0.00  0.00    +0.018 A 
ATOM     23  C   UNL     1      -3.087   5.108  26.214  0.00  0.00    +0.021 A 
ATOM     24  C   UNL     1      -4.459   4.958  26.345  0.00  0.00    +0.114 A 
BRANCH  21   3
ATOM      3  O   UNL     1      -5.191   2.028  24.512  0.00  0.00    -0.474 OA
BRANCH   3  25
ATOM     25  C   UNL     1      -5.184   0.786  25.205  0.00  0.00    +0.258 C 
BRANCH  25  26
ATOM     26  C   UNL     1      -4.825  -0.322  24.234  0.00  0.00    +0.200 C 
BRANCH  26   4
ATOM      4  O   UNL     1      -4.167  -1.365  24.942  0.00  0.00    -0.380 OA
ATOM     27  C   UNL     1      -4.085  -2.552  24.165  0.00  0.00    +0.194 C 
ENDBRANCH  26   4
ENDBRANCH  25  26
ENDBRANCH   3  25
ENDBRANCH  21   3
ENDBRANCH  16  19
BRANCH  14   9
ATOM      5  N   UNL     1       0.951  -0.631  23.878  0.00  0.00    -0.284 NA
ATOM      9  C   UNL     1      -0.479  -0.843  23.579  0.00  0.00    +0.146 C 
ATOM     10  C   UNL     1      -0.943  -1.890  24.609  0.00  0.00    +0.030 C 
ATOM     11  C   UNL     1       0.307  -2.251  25.399  0.00  0.00    +0.017 C 
ATOM     12  C   UNL     1       1.440  -1.879  24.465  0.00  0.00    +0.085 C 
BRANCH   5  13
ATOM     13  C   UNL     1       1.729  -0.233  22.711  0.00  0.00    +0.159 C 
BRANCH  13  15
ATOM      2  O   UNL     1       3.807  -1.167  23.569  0.00  0.00    -0.467 OA
ATOM     15  C   UNL     1       3.191  -0.078  23.038  0.00  0.00    +0.119 A 
ATOM     17  C   UNL     1       4.078   0.966  22.913  0.00  0.00    +0.046 A 
ATOM     18  C   UNL     1       5.318   0.487  23.397  0.00  0.00    +0.041 A 
ATOM     20  C   UNL     1       5.102  -0.814  23.784  0.00  0.00    +0.195 A 
ENDBRANCH  13  15
ENDBRANCH   5  13
ENDBRANCH  14   9
TORSDOF 8
ENDMDL
MODEL 8
REMARK VINA RESULT:       0.1      1.520      3.013
REMARK  Name = 45783414
REMARK  9 active torsions:
REMARK  status: ('A' for Active; 'I' for Inactive)
REMARK    1  A    between atoms: O_3  and  C_21
REMARK    2  A    between atoms: O_3  and  C_25
REMARK    3  A    between atoms: O_4  and  C_26
REMARK    4  A    between atoms: O_4  and  C_27
REMARK    5  A    between atoms: N_5  and  C_13
REMARK    6  A    between atoms: C_9  and  C_14
REMARK    7  A    between atoms: C_13  and  C_15
REMARK    8  A    between atoms: C_16  and  C_19
REMARK    9  A    between atoms: C_25  and  C_26
REMARK                            x       y       z     vdW  Elec       q    Type
REMARK                         _______ _______ _______ _____ _____    ______ ____
ROOT
ATOM      1  O   UNL     1       0.690   2.297  25.866  0.00  0.00    -0.336 OA
ATOM      6  N   UNL     1      -1.025   1.876  24.487  0.00  0.00    -0.190 NA
ATOM      7  N   UNL     1      -0.330   3.186  26.229  0.00  0.00    -0.056 NA
ATOM     14  C   UNL     1       0.198   1.563  24.834  0.00  0.00    +0.245 A 
ATOM     16  C   UNL     1      -1.307   2.877  25.372  0.00  0.00    +0.207 A 
ENDROOT
BRANCH  16  19
ATOM      8  N   UNL     1      -4.721   3.952  24.334  0.00  0.00    -0.221 NA
ATOM     19  C   UNL     1      -2.575   3.548  25.371  0.00  0.00    +0.084 A 
ATOM     21  C   UNL     1      -3.515   3.342  24.374  0.00  0.00    +0.226 A 
ATOM     22  C   UNL     1      -2.891   4.437  26.392  0.00  0.00    +0.018 A 
ATOM     23  C   UNL     1      -4.122   5.084  26.386  0.00  0.00    +0.021 A 
ATOM     24  C   UNL     1      -4.993   4.809  25.343  0.00  0.00    +0.114 A 
BRANCH  21   3
ATOM      3  O   UNL     1      -3.248   2.475  23.347  0.00  0.00    -0.474 OA
BRANCH   3  25
ATOM     25  C   UNL     1      -3.939   1.232  23.365  0.00  0.00    +0.258 C 
BRANCH  25  26
ATOM     26  C   UNL     1      -4.479   0.986  24.761  0.00  0.00    +0.200 C 
BRANCH  26   4
ATOM      4  O   UNL     1      -5.889   1.166  24.752  0.00  0.00    -0.380 OA
ATOM     27  C   UNL     1      -6.370   1.571  26.027  0.00  0.00    +0.194 C 
ENDBRANCH  26   4
ENDBRANCH  25  26
ENDBRANCH   3  25
ENDBRANCH  21   3
ENDBRANCH  16  19
BRANCH  14   9
ATOM      5  N   UNL     1       0.389  -0.647  23.706  0.00  0.00    -0.284 NA
ATOM      9  C   UNL     1       1.122   0.513  24.251  0.00  0.00    +0.146 C 
ATOM     10  C   UNL     1       1.952   1.043  23.068  0.00  0.00    +0.030 C 
ATOM     11  C   UNL     1       1.670   0.081  21.922  0.00  0.00    +0.017 C 
ATOM     12  C   UNL     1       1.212  -1.182  22.621  0.00  0.00    +0.085 C 
BRANCH   5  13
ATOM     13  C   UNL     1       0.083  -1.657  24.712  0.00  0.00    +0.159 C 
BRANCH  13  15
ATOM      2  O   UNL     1      -2.054  -2.625  24.063  0.00  0.00    -0.467 OA
ATOM     15  C   UNL     1      -1.400  -1.804  24.926  0.00  0.00    +0.119 A 
ATOM     17  C   UNL     1      -2.277  -1.267  25.840  0.00  0.00    +0.046 A 
ATOM     18  C   UNL     1      -3.550  -1.793  25.519  0.00  0.00    +0.041 A 
ATOM     20  C   UNL     1      -3.363  -2.613  24.431  0.00  0.00    +0.195 A 
ENDBRANCH  13  15
ENDBRANCH   5  13
ENDBRANCH  14   9
TORSDOF 8
ENDMDL
MODEL 9
REMARK VINA RESULT:       0.3      1.966      4.472
REMARK  Name = 45783414
REMARK  9 active torsions:
REMARK  status: ('A' for Active; 'I' for Inactive)
REMARK    1  A    between atoms: O_3  and  C_21
REMARK    2  A    between atoms: O_3  and  C_25
REMARK    3  A    between atoms: O_4  and  C_26
REMARK    4  A    between atoms: O_4  and  C_27
REMARK    5  A    between atoms: N_5  and  C_13
REMARK    6  A    between atoms: C_9  and  C_14
REMARK    7  A    between atoms: C_13  and  C_15
REMARK    8  A    between atoms: C_16  and  C_19
REMARK    9  A    between atoms: C_25  and  C_26
REMARK                            x       y       z     vdW  Elec       q    Type
REMARK                         _______ _______ _______ _____ _____    ______ ____
ROOT
ATOM      1  O   UNL     1       1.075  -1.220  24.555  0.00  0.00    -0.336 OA
ATOM      6  N   UNL     1      -0.477  -0.485  23.115  0.00  0.00    -0.190 NA
ATOM      7  N   UNL     1      -0.150  -1.728  25.008  0.00  0.00    -0.056 NA
ATOM     14  C   UNL     1       0.793  -0.501  23.437  0.00  0.00    +0.245 A 
ATOM     16  C   UNL     1      -1.015  -1.251  24.108  0.00  0.00    +0.207 A 
ENDROOT
BRANCH  16  19
ATOM      8  N   UNL     1      -4.692  -0.720  24.395  0.00  0.00    -0.221 NA
ATOM     19  C   UNL     1      -2.423  -1.520  24.172  0.00  0.00    +0.084 A 
ATOM     21  C   UNL     1      -3.358  -0.511  24.331  0.00  0.00    +0.226 A 
ATOM     22  C   UNL     1      -2.885  -2.829  24.073  0.00  0.00    +0.018 A 
ATOM     23  C   UNL     1      -4.251  -3.083  24.136  0.00  0.00    +0.021 A 
ATOM     24  C   UNL     1      -5.105  -2.003  24.296  0.00  0.00    +0.114 A 
BRANCH  21   3
ATOM      3  O   UNL     1      -2.950   0.794  24.432  0.00  0.00    -0.474 OA
BRANCH   3  25
ATOM     25  C   UNL     1      -3.328   1.664  23.373  0.00  0.00    +0.258 C 
BRANCH  25  26
ATOM     26  C   UNL     1      -4.103   2.835  23.947  0.00  0.00    +0.200 C 
BRANCH  26   4
ATOM      4  O   UNL     1      -4.303   2.622  25.339  0.00  0.00    -0.380 OA
ATOM     27  C   UNL     1      -5.683   2.645  25.676  0.00  0.00    +0.194 C 
ENDBRANCH  26   4
ENDBRANCH  25  26
ENDBRANCH   3  25
ENDBRANCH  21   3
ENDBRANCH  16  19
BRANCH  14   9
ATOM      5  N   UNL     1       2.486   1.322  23.498  0.00  0.00    -0.284 NA
ATOM      9  C   UNL     1       1.967   0.161  22.746  0.00  0.00    +0.146 C 
ATOM     10  C   UNL     1       3.176  -0.779  22.595  0.00  0.00    +0.030 C 
ATOM     11  C   UNL     1       4.340  -0.036  23.236  0.00  0.00    +0.017 C 
ATOM     12  C   UNL     1       3.911   1.415  23.181  0.00  0.00    +0.085 C 
BRANCH   5  13
ATOM     13  C   UNL     1       1.776   2.561  23.203  0.00  0.00    +0.159 C 
BRANCH  13  15
ATOM      2  O   UNL     1       0.717   2.082  25.342  0.00  0.00    -0.467 OA
ATOM     15  C   UNL     1       0.702   2.847  24.219  0.00  0.00    +0.119 A 
ATOM     17  C   UNL     1      -0.334   3.750  24.263  0.00  0.00    +0.046 A 
ATOM     18  C   UNL     1      -0.998   3.526  25.493  0.00  0.00    +0.041 A 
ATOM     20  C   UNL     1      -0.321   2.502  26.112  0.00  0.00    +0.195 A 
ENDBRANCH  13  15
ENDBRANCH   5  13
ENDBRANCH  14   9
TORSDOF 8
ENDMDL
MODEL 10
REMARK VINA RESULT:       0.3      1.808      4.345
REMARK  Name = 45783414
REMARK  9 active torsions:
REMARK  status: ('A' for Active; 'I' for Inactive)
REMARK    1  A    between atoms: O_3  and  C_21
REMARK    2  A    between atoms: O_3  and  C_25
REMARK    3  A    between atoms: O_4  and  C_26
REMARK    4  A    between atoms: O_4  and  C_27
REMARK    5  A    between atoms: N_5  and  C_13
REMARK    6  A    between atoms: C_9  and  C_14
REMARK    7  A    between atoms: C_13  and  C_15
REMARK    8  A    between atoms: C_16  and  C_19
REMARK    9  A    between atoms: C_25  and  C_26
REMARK                            x       y       z     vdW  Elec       q    Type
REMARK                         _______ _______ _______ _____ _____    ______ ____
ROOT
ATOM      1  O   UNL     1      -2.978   0.723  22.242  0.00  0.00    -0.336 OA
ATOM      6  N   UNL     1      -2.361   1.115  24.360  0.00  0.00    -0.190 NA
ATOM      7  N   UNL     1      -2.815   2.111  22.351  0.00  0.00    -0.056 NA
ATOM     14  C   UNL     1      -2.691   0.214  23.468  0.00  0.00    +0.245 A 
ATOM     16  C   UNL     1      -2.452   2.263  23.627  0.00  0.00    +0.207 A 
ENDROOT
BRANCH  16  19
ATOM      8  N   UNL     1      -2.961   5.589  25.229  0.00  0.00    -0.221 NA
ATOM     19  C   UNL     1      -2.174   3.548  24.203  0.00  0.00    +0.084 A 
ATOM     21  C   UNL     1      -3.178   4.374  24.680  0.00  0.00    +0.226 A 
ATOM     22  C   UNL     1      -0.861   3.998  24.294  0.00  0.00    +0.018 A 
ATOM     23  C   UNL     1      -0.597   5.244  24.853  0.00  0.00    +0.021 A 
ATOM     24  C   UNL     1      -1.673   5.994  25.301  0.00  0.00    +0.114 A 
BRANCH  21   3
ATOM      3  O   UNL     1      -4.488   3.972  24.612  0.00  0.00    -0.474 OA
BRANCH   3  25
ATOM     25  C   UNL     1      -5.240   4.043  25.816  0.00  0.00    +0.258 C 
BRANCH  25  26
ATOM     26  C   UNL     1      -5.641   2.641  26.234  0.00  0.00    +0.200 C 
BRANCH  26   4
ATOM      4  O   UNL     1      -5.436   1.755  25.140  0.00  0.00    -0.380 OA
ATOM     27  C   UNL     1      -6.670   1.329  24.578  0.00  0.00    +0.194 C 
ENDBRANCH  26   4
ENDBRANCH  25  26
ENDBRANCH   3  25
ENDBRANCH  21   3
ENDBRANCH  16  19
BRANCH  14   9
ATOM      5  N   UNL     1      -1.885  -1.820  24.653  0.00  0.00    -0.284 NA
ATOM      9  C   UNL     1      -2.793  -1.290  23.616  0.00  0.00    +0.146 C 
ATOM     10  C   UNL     1      -4.196  -1.750  24.052  0.00  0.00    +0.030 C 
ATOM     11  C   UNL     1      -3.970  -2.584  25.306  0.00  0.00    +0.017 C 
ATOM     12  C   UNL     1      -2.525  -3.023  25.186  0.00  0.00    +0.085 C 
BRANCH   5  13
ATOM     13  C   UNL     1      -0.541  -2.088  24.158  0.00  0.00    +0.159 C 
BRANCH  13  15
ATOM      2  O   UNL     1       0.977  -0.788  22.768  0.00  0.00    -0.467 OA
ATOM     15  C   UNL     1       0.225  -0.818  23.900  0.00  0.00    +0.119 A 
ATOM     17  C   UNL     1       0.337   0.369  24.586  0.00  0.00    +0.046 A 
ATOM     18  C   UNL     1       1.213   1.181  23.826  0.00  0.00    +0.041 A 
ATOM     20  C   UNL     1       1.574   0.433  22.731  0.00  0.00    +0.195 A 
ENDBRANCH  13  15
ENDBRANCH   5  13
ENDBRANCH  14   9
TORSDOF 8
ENDMDL
