MODEL 1
REMARK VINA RESULT:      -4.4      0.000      0.000
REMARK  Name = 45784178
REMARK  3 active torsions:
REMARK  status: ('A' for Active; 'I' for Inactive)
REMARK    1  A    between atoms: N_3  and  C_11
REMARK    2  A    between atoms: C_6  and  C_10
REMARK    3  A    between atoms: C_11  and  C_12
REMARK                            x       y       z     vdW  Elec       q    Type
REMARK                         _______ _______ _______ _____ _____    ______ ____
ROOT
ATOM      3  N   UNL     1       0.800  -0.552  23.650  0.00  0.00    -0.296 NA
ATOM      6  C   UNL     1      -0.980   0.074  25.042  0.00  0.00    +0.090 C 
ATOM      7  C   UNL     1      -1.283  -1.291  24.401  0.00  0.00    +0.029 C 
ATOM      8  C   UNL     1       0.172   0.648  24.207  0.00  0.00    +0.097 C 
ATOM      9  C   UNL     1      -0.315  -1.401  23.231  0.00  0.00    +0.085 C 
ENDROOT
BRANCH   6  10
ATOM      1 CL   UNL     1      -6.409   5.358  25.542  0.00  0.00    -0.083 Cl
ATOM      2  O   UNL     1      -3.390   0.418  25.140  0.00  0.00    -0.439 OA
ATOM      4  N   UNL     1      -2.163   2.321  25.218  0.00  0.00    -0.213 NA
ATOM     10  C   UNL     1      -2.163   1.009  25.137  0.00  0.00    +0.201 A 
ATOM     13  C   UNL     1      -3.499   2.634  25.280  0.00  0.00    +0.111 A 
ATOM     14  C   UNL     1      -4.254   1.471  25.233  0.00  0.00    +0.155 A 
ATOM     16  C   UNL     1      -4.160   3.867  25.377  0.00  0.00    +0.051 A 
ATOM     17  C   UNL     1      -5.641   1.425  25.275  0.00  0.00    +0.050 A 
ATOM     18  C   UNL     1      -5.562   3.862  25.422  0.00  0.00    +0.043 A 
ATOM     19  C   UNL     1      -6.286   2.664  25.372  0.00  0.00    +0.024 A 
ENDBRANCH   6  10
BRANCH   3  11
ATOM     11  C   UNL     1       1.706  -0.246  22.552  0.00  0.00    +0.139 C 
BRANCH  11  12
ATOM      5  N   UNL     1       3.614  -1.371  23.557  0.00  0.00    -0.259 NA
ATOM     12  C   UNL     1       3.144  -0.234  22.998  0.00  0.00    +0.055 A 
ATOM     15  C   UNL     1       3.901   0.914  22.818  0.00  0.00    +0.024 A 
ATOM     20  C   UNL     1       5.225   0.892  23.240  0.00  0.00    +0.003 A 
ATOM     21  C   UNL     1       4.907  -1.353  23.955  0.00  0.00    +0.111 A 
ATOM     22  C   UNL     1       5.745  -0.259  23.820  0.00  0.00    +0.020 A 
ENDBRANCH  11  12
ENDBRANCH   3  11
TORSDOF 3
ENDMDL
MODEL 2
REMARK VINA RESULT:      -2.5      3.546      7.411
REMARK  Name = 45784178
REMARK  3 active torsions:
REMARK  status: ('A' for Active; 'I' for Inactive)
REMARK    1  A    between atoms: N_3  and  C_11
REMARK    2  A    between atoms: C_6  and  C_10
REMARK    3  A    between atoms: C_11  and  C_12
REMARK                            x       y       z     vdW  Elec       q    Type
REMARK                         _______ _______ _______ _____ _____    ______ ____
ROOT
ATOM      3  N   UNL     1      -3.900   1.983  25.014  0.00  0.00    -0.296 NA
ATOM      6  C   UNL     1      -1.663   2.532  24.575  0.00  0.00    +0.090 C 
ATOM      7  C   UNL     1      -2.563   3.116  23.471  0.00  0.00    +0.029 C 
ATOM      8  C   UNL     1      -2.545   1.500  25.289  0.00  0.00    +0.097 C 
ATOM      9  C   UNL     1      -3.883   2.368  23.603  0.00  0.00    +0.085 C 
ENDROOT
BRANCH   6  10
ATOM      1 CL   UNL     1       5.267   0.179  22.553  0.00  0.00    -0.083 Cl
ATOM      2  O   UNL     1      -0.452   0.890  23.244  0.00  0.00    -0.439 OA
ATOM      4  N   UNL     1       0.868   2.346  24.373  0.00  0.00    -0.213 NA
ATOM     10  C   UNL     1      -0.355   1.954  24.088  0.00  0.00    +0.201 A 
ATOM     13  C   UNL     1       1.653   1.471  23.661  0.00  0.00    +0.111 A 
ATOM     14  C   UNL     1       0.848   0.579  22.967  0.00  0.00    +0.155 A 
ATOM     16  C   UNL     1       3.046   1.361  23.543  0.00  0.00    +0.051 A 
ATOM     17  C   UNL     1       1.319  -0.438  22.148  0.00  0.00    +0.050 A 
ATOM     18  C   UNL     1       3.560   0.345  22.723  0.00  0.00    +0.043 A 
ATOM     19  C   UNL     1       2.711  -0.536  22.041  0.00  0.00    +0.024 A 
ENDBRANCH   6  10
BRANCH   3  11
ATOM     11  C   UNL     1      -4.917   0.981  25.301  0.00  0.00    +0.139 C 
BRANCH  11  12
ATOM      5  N   UNL     1      -4.702  -0.963  23.855  0.00  0.00    -0.259 NA
ATOM     12  C   UNL     1      -4.412  -0.416  25.056  0.00  0.00    +0.055 A 
ATOM     15  C   UNL     1      -3.688  -1.060  26.048  0.00  0.00    +0.024 A 
ATOM     20  C   UNL     1      -3.236  -2.349  25.790  0.00  0.00    +0.003 A 
ATOM     21  C   UNL     1      -4.245  -2.217  23.641  0.00  0.00    +0.111 A 
ATOM     22  C   UNL     1      -3.515  -2.945  24.566  0.00  0.00    +0.020 A 
ENDBRANCH  11  12
ENDBRANCH   3  11
TORSDOF 3
ENDMDL
MODEL 3
REMARK VINA RESULT:      -0.8      3.249      7.524
REMARK  Name = 45784178
REMARK  3 active torsions:
REMARK  status: ('A' for Active; 'I' for Inactive)
REMARK    1  A    between atoms: N_3  and  C_11
REMARK    2  A    between atoms: C_6  and  C_10
REMARK    3  A    between atoms: C_11  and  C_12
REMARK                            x       y       z     vdW  Elec       q    Type
REMARK                         _______ _______ _______ _____ _____    ______ ____
ROOT
ATOM      3  N   UNL     1      -4.689  -0.317  24.763  0.00  0.00    -0.296 NA
ATOM      6  C   UNL     1      -2.562  -1.112  24.178  0.00  0.00    +0.090 C 
ATOM      7  C   UNL     1      -2.841  -1.428  25.658  0.00  0.00    +0.029 C 
ATOM      8  C   UNL     1      -3.616  -0.062  23.800  0.00  0.00    +0.097 C 
ATOM      9  C   UNL     1      -4.008  -0.528  26.040  0.00  0.00    +0.085 C 
ENDROOT
BRANCH   6  10
ATOM      1 CL   UNL     1       4.697   0.387  22.530  0.00  0.00    -0.083 Cl
ATOM      2  O   UNL     1      -0.908   0.670  24.011  0.00  0.00    -0.439 OA
ATOM      4  N   UNL     1      -0.122  -1.396  23.508  0.00  0.00    -0.213 NA
ATOM     10  C   UNL     1      -1.150  -0.664  23.879  0.00  0.00    +0.201 A 
ATOM     13  C   UNL     1       0.890  -0.476  23.382  0.00  0.00    +0.111 A 
ATOM     14  C   UNL     1       0.413   0.790  23.690  0.00  0.00    +0.155 A 
ATOM     16  C   UNL     1       2.237  -0.622  23.015  0.00  0.00    +0.051 A 
ATOM     17  C   UNL     1       1.175   1.951  23.663  0.00  0.00    +0.050 A 
ATOM     18  C   UNL     1       3.038   0.528  22.977  0.00  0.00    +0.043 A 
ATOM     19  C   UNL     1       2.515   1.788  23.294  0.00  0.00    +0.024 A 
ENDBRANCH   6  10
BRANCH   3  11
ATOM     11  C   UNL     1      -5.653   0.772  24.823  0.00  0.00    +0.139 C 
BRANCH  11  12
ATOM      5  N   UNL     1      -5.147   2.818  26.037  0.00  0.00    -0.259 NA
ATOM     12  C   UNL     1      -4.976   2.115  24.896  0.00  0.00    +0.055 A 
ATOM     15  C   UNL     1      -4.225   2.557  23.817  0.00  0.00    +0.024 A 
ATOM     20  C   UNL     1      -3.613   3.801  23.917  0.00  0.00    +0.003 A 
ATOM     21  C   UNL     1      -4.536   4.023  26.097  0.00  0.00    +0.111 A 
ATOM     22  C   UNL     1      -3.766   4.554  25.075  0.00  0.00    +0.020 A 
ENDBRANCH  11  12
ENDBRANCH   3  11
TORSDOF 3
ENDMDL
