MODEL 1
REMARK VINA RESULT:      -0.5      0.000      0.000
REMARK  Name = 11886487
REMARK  6 active torsions:
REMARK  status: ('A' for Active; 'I' for Inactive)
REMARK    1  A    between atoms: O_6  and  C_12
REMARK    2  A    between atoms: O_6  and  C_15
REMARK    3  A    between atoms: N_8  and  C_11
REMARK    4  A    between atoms: C_15  and  C_17
REMARK    5  A    between atoms: C_16  and  C_18
REMARK    6  A    between atoms: C_25  and  C_29
REMARK                            x       y       z     vdW  Elec       q    Type
REMARK                         _______ _______ _______ _____ _____    ______ ____
ROOT
ATOM      4  O   UNL     1      -2.827  -0.392  26.129  0.00  0.00    -0.369 OA
ATOM      5  O   UNL     1      -4.061  -1.300  23.473  0.00  0.00    -0.369 OA
ATOM      9  C   UNL     1      -2.760  -0.760  23.788  0.00  0.00    +0.172 C 
ATOM     10  C   UNL     1      -2.966   0.282  24.867  0.00  0.00    +0.180 C 
ATOM     11  C   UNL     1      -1.910  -1.814  24.460  0.00  0.00    +0.130 C 
ATOM     12  C   UNL     1      -4.389   0.726  24.625  0.00  0.00    +0.175 C 
ATOM     13  C   UNL     1      -2.383  -1.738  25.901  0.00  0.00    +0.185 C 
ATOM     14  C   UNL     1      -5.056  -0.561  24.196  0.00  0.00    +0.194 C 
ENDROOT
BRANCH  11   8
ATOM      7  O   UNL     1      -0.711   0.099  22.685  0.00  0.00    -0.270 OA
ATOM      8  N   UNL     1      -0.506  -1.502  24.351  0.00  0.00    -0.304 N 
ATOM     16  C   UNL     1      -0.019  -0.558  23.459  0.00  0.00    +0.244 C 
ATOM     30  H   UNL     1       0.136  -2.087  24.877  0.00  0.00    +0.149 HD
BRANCH  16  18
ATOM     18  C   UNL     1       1.456  -0.371  23.450  0.00  0.00    +0.037 A 
ATOM     19  C   UNL     1       2.264  -1.436  23.791  0.00  0.00    +0.013 A 
ATOM     20  C   UNL     1       1.970   0.860  23.100  0.00  0.00    +0.013 A 
ATOM     23  C   UNL     1       3.647  -1.261  23.782  0.00  0.00    +0.013 A 
ATOM     24  C   UNL     1       3.353   1.035  23.091  0.00  0.00    +0.013 A 
ATOM     25  C   UNL     1       4.193  -0.026  23.432  0.00  0.00    +0.055 A 
BRANCH  25  29
ATOM      1  F   UNL     1       6.063   1.447  23.669  0.00  0.00    -0.166 F 
ATOM      2  F   UNL     1       6.258  -0.168  22.233  0.00  0.00    -0.166 F 
ATOM      3  F   UNL     1       6.303  -0.601  24.364  0.00  0.00    -0.166 F 
ATOM     29  C   UNL     1       5.672   0.161  23.423  0.00  0.00    +0.417 C 
ENDBRANCH  25  29
ENDBRANCH  16  18
ENDBRANCH  11   8
BRANCH  12   6
ATOM      6  O   UNL     1      -5.005   1.290  25.761  0.00  0.00    -0.367 OA
BRANCH   6  15
ATOM     15  C   UNL     1      -5.306   2.671  25.575  0.00  0.00    +0.195 C 
BRANCH  15  17
ATOM     17  C   UNL     1      -4.027   3.428  25.373  0.00  0.00    -0.022 A 
ATOM     21  C   UNL     1      -3.667   3.842  24.095  0.00  0.00    +0.006 A 
ATOM     22  C   UNL     1      -3.213   3.710  26.464  0.00  0.00    +0.006 A 
ATOM     26  C   UNL     1      -2.477   4.546  23.907  0.00  0.00    +0.000 A 
ATOM     27  C   UNL     1      -2.023   4.413  26.276  0.00  0.00    +0.000 A 
ATOM     28  C   UNL     1      -1.656   4.833  24.997  0.00  0.00    +0.000 A 
ENDBRANCH  15  17
ENDBRANCH   6  15
ENDBRANCH  12   6
TORSDOF 6
ENDMDL
MODEL 2
REMARK VINA RESULT:       0.0      1.635      3.790
REMARK  Name = 11886487
REMARK  6 active torsions:
REMARK  status: ('A' for Active; 'I' for Inactive)
REMARK    1  A    between atoms: O_6  and  C_12
REMARK    2  A    between atoms: O_6  and  C_15
REMARK    3  A    between atoms: N_8  and  C_11
REMARK    4  A    between atoms: C_15  and  C_17
REMARK    5  A    between atoms: C_16  and  C_18
REMARK    6  A    between atoms: C_25  and  C_29
REMARK                            x       y       z     vdW  Elec       q    Type
REMARK                         _______ _______ _______ _____ _____    ______ ____
ROOT
ATOM      4  O   UNL     1      -3.068   1.453  23.307  0.00  0.00    -0.369 OA
ATOM      5  O   UNL     1      -3.140   4.201  24.666  0.00  0.00    -0.369 OA
ATOM      9  C   UNL     1      -2.115   3.186  24.614  0.00  0.00    +0.172 C 
ATOM     10  C   UNL     1      -2.820   1.847  24.667  0.00  0.00    +0.180 C 
ATOM     11  C   UNL     1      -1.448   3.191  23.258  0.00  0.00    +0.130 C 
ATOM     12  C   UNL     1      -4.101   2.179  25.395  0.00  0.00    +0.175 C 
ATOM     13  C   UNL     1      -2.416   2.375  22.420  0.00  0.00    +0.185 C 
ATOM     14  C   UNL     1      -4.409   3.566  24.878  0.00  0.00    +0.194 C 
ENDROOT
BRANCH  11   8
ATOM      7  O   UNL     1      -0.860   0.404  22.896  0.00  0.00    -0.270 OA
ATOM      8  N   UNL     1      -0.147   2.570  23.313  0.00  0.00    -0.304 N 
ATOM     16  C   UNL     1       0.039   1.208  23.124  0.00  0.00    +0.244 C 
ATOM     30  H   UNL     1       0.628   3.155  23.610  0.00  0.00    +0.149 HD
BRANCH  16  18
ATOM     18  C   UNL     1       1.438   0.720  23.238  0.00  0.00    +0.037 A 
ATOM     19  C   UNL     1       1.658  -0.616  23.501  0.00  0.00    +0.013 A 
ATOM     20  C   UNL     1       2.472   1.618  23.077  0.00  0.00    +0.013 A 
ATOM     23  C   UNL     1       2.971  -1.074  23.607  0.00  0.00    +0.013 A 
ATOM     24  C   UNL     1       3.785   1.160  23.184  0.00  0.00    +0.013 A 
ATOM     25  C   UNL     1       4.035  -0.186  23.449  0.00  0.00    +0.055 A 
BRANCH  25  29
ATOM      1  F   UNL     1       6.122  -0.137  24.616  0.00  0.00    -0.166 F 
ATOM      2  F   UNL     1       6.204  -0.403  22.465  0.00  0.00    -0.166 F 
ATOM      3  F   UNL     1       5.510  -2.028  23.733  0.00  0.00    -0.166 F 
ATOM     29  C   UNL     1       5.438  -0.675  23.563  0.00  0.00    +0.417 C 
ENDBRANCH  25  29
ENDBRANCH  16  18
ENDBRANCH  11   8
BRANCH  12   6
ATOM      6  O   UNL     1      -5.147   1.272  25.137  0.00  0.00    -0.367 OA
BRANCH   6  15
ATOM     15  C   UNL     1      -5.066   0.114  25.966  0.00  0.00    +0.195 C 
BRANCH  15  17
ATOM     17  C   UNL     1      -4.082  -0.848  25.369  0.00  0.00    -0.022 A 
ATOM     21  C   UNL     1      -2.836  -1.016  25.963  0.00  0.00    +0.006 A 
ATOM     22  C   UNL     1      -4.424  -1.563  24.226  0.00  0.00    +0.006 A 
ATOM     26  C   UNL     1      -1.921  -1.910  25.408  0.00  0.00    +0.000 A 
ATOM     27  C   UNL     1      -3.509  -2.457  23.670  0.00  0.00    +0.000 A 
ATOM     28  C   UNL     1      -2.258  -2.632  24.262  0.00  0.00    +0.000 A 
ENDBRANCH  15  17
ENDBRANCH   6  15
ENDBRANCH  12   6
TORSDOF 6
ENDMDL
MODEL 3
REMARK VINA RESULT:       2.0      1.636      3.488
REMARK  Name = 11886487
REMARK  6 active torsions:
REMARK  status: ('A' for Active; 'I' for Inactive)
REMARK    1  A    between atoms: O_6  and  C_12
REMARK    2  A    between atoms: O_6  and  C_15
REMARK    3  A    between atoms: N_8  and  C_11
REMARK    4  A    between atoms: C_15  and  C_17
REMARK    5  A    between atoms: C_16  and  C_18
REMARK    6  A    between atoms: C_25  and  C_29
REMARK                            x       y       z     vdW  Elec       q    Type
REMARK                         _______ _______ _______ _____ _____    ______ ____
ROOT
ATOM      4  O   UNL     1      -2.170   0.557  24.656  0.00  0.00    -0.369 OA
ATOM      5  O   UNL     1      -2.735   2.778  22.618  0.00  0.00    -0.369 OA
ATOM      9  C   UNL     1      -1.519   2.378  23.284  0.00  0.00    +0.172 C 
ATOM     10  C   UNL     1      -1.902   1.969  24.691  0.00  0.00    +0.180 C 
ATOM     11  C   UNL     1      -0.984   1.105  22.670  0.00  0.00    +0.130 C 
ATOM     12  C   UNL     1      -3.160   2.770  24.933  0.00  0.00    +0.175 C 
ATOM     13  C   UNL     1      -1.813   0.040  23.364  0.00  0.00    +0.185 C 
ATOM     14  C   UNL     1      -3.810   2.761  23.568  0.00  0.00    +0.194 C 
ENDROOT
BRANCH  11   8
ATOM      7  O   UNL     1       0.832  -0.671  21.331  0.00  0.00    -0.270 OA
ATOM      8  N   UNL     1       0.422   0.941  22.947  0.00  0.00    -0.304 N 
ATOM     16  C   UNL     1       1.222   0.053  22.243  0.00  0.00    +0.244 C 
ATOM     30  H   UNL     1       0.788   1.421  23.763  0.00  0.00    +0.149 HD
BRANCH  16  18
ATOM     18  C   UNL     1       2.644  -0.019  22.668  0.00  0.00    +0.037 A 
ATOM     19  C   UNL     1       3.472   1.054  22.407  0.00  0.00    +0.013 A 
ATOM     20  C   UNL     1       3.092  -1.154  23.309  0.00  0.00    +0.013 A 
ATOM     23  C   UNL     1       4.807   0.987  22.806  0.00  0.00    +0.013 A 
ATOM     24  C   UNL     1       4.427  -1.221  23.709  0.00  0.00    +0.013 A 
ATOM     25  C   UNL     1       5.285  -0.151  23.457  0.00  0.00    +0.055 A 
BRANCH  25  29
ATOM      1  F   UNL     1       7.558  -0.639  22.895  0.00  0.00    -0.166 F 
ATOM      2  F   UNL     1       6.930  -1.080  24.924  0.00  0.00    -0.166 F 
ATOM      3  F   UNL     1       7.197   0.985  24.296  0.00  0.00    -0.166 F 
ATOM     29  C   UNL     1       6.712  -0.222  23.883  0.00  0.00    +0.417 C 
ENDBRANCH  25  29
ENDBRANCH  16  18
ENDBRANCH  11   8
BRANCH  12   6
ATOM      6  O   UNL     1      -3.997   2.218  25.923  0.00  0.00    -0.367 OA
BRANCH   6  15
ATOM     15  C   UNL     1      -5.031   1.413  25.361  0.00  0.00    +0.195 C 
BRANCH  15  17
ATOM     17  C   UNL     1      -4.534   0.004  25.223  0.00  0.00    -0.022 A 
ATOM     21  C   UNL     1      -4.782  -0.702  24.051  0.00  0.00    +0.006 A 
ATOM     22  C   UNL     1      -3.829  -0.583  26.268  0.00  0.00    +0.006 A 
ATOM     26  C   UNL     1      -4.321  -2.012  23.922  0.00  0.00    +0.000 A 
ATOM     27  C   UNL     1      -3.368  -1.893  26.139  0.00  0.00    +0.000 A 
ATOM     28  C   UNL     1      -3.613  -2.607  24.966  0.00  0.00    +0.000 A 
ENDBRANCH  15  17
ENDBRANCH   6  15
ENDBRANCH  12   6
TORSDOF 6
ENDMDL
MODEL 4
REMARK VINA RESULT:       3.1      1.896      2.795
REMARK  Name = 11886487
REMARK  6 active torsions:
REMARK  status: ('A' for Active; 'I' for Inactive)
REMARK    1  A    between atoms: O_6  and  C_12
REMARK    2  A    between atoms: O_6  and  C_15
REMARK    3  A    between atoms: N_8  and  C_11
REMARK    4  A    between atoms: C_15  and  C_17
REMARK    5  A    between atoms: C_16  and  C_18
REMARK    6  A    between atoms: C_25  and  C_29
REMARK                            x       y       z     vdW  Elec       q    Type
REMARK                         _______ _______ _______ _____ _____    ______ ____
ROOT
ATOM      4  O   UNL     1      -1.652   2.141  25.484  0.00  0.00    -0.369 OA
ATOM      5  O   UNL     1      -2.802   1.689  22.677  0.00  0.00    -0.369 OA
ATOM      9  C   UNL     1      -1.442   1.816  23.145  0.00  0.00    +0.172 C 
ATOM     10  C   UNL     1      -1.452   2.851  24.249  0.00  0.00    +0.180 C 
ATOM     11  C   UNL     1      -1.013   0.546  23.842  0.00  0.00    +0.130 C 
ATOM     12  C   UNL     1      -2.650   3.699  23.893  0.00  0.00    +0.175 C 
ATOM     13  C   UNL     1      -1.596   0.729  25.232  0.00  0.00    +0.185 C 
ATOM     14  C   UNL     1      -3.612   2.673  23.337  0.00  0.00    +0.194 C 
ENDROOT
BRANCH  11   8
ATOM      7  O   UNL     1       0.700  -0.390  21.736  0.00  0.00    -0.270 OA
ATOM      8  N   UNL     1       0.425   0.433  23.886  0.00  0.00    -0.304 N 
ATOM     16  C   UNL     1       1.170  -0.032  22.812  0.00  0.00    +0.244 C 
ATOM     30  H   UNL     1       0.871   0.602  24.782  0.00  0.00    +0.149 HD
BRANCH  16  18
ATOM     18  C   UNL     1       2.638  -0.113  23.026  0.00  0.00    +0.037 A 
ATOM     19  C   UNL     1       3.176  -1.285  23.516  0.00  0.00    +0.013 A 
ATOM     20  C   UNL     1       3.417   0.985  22.728  0.00  0.00    +0.013 A 
ATOM     23  C   UNL     1       4.555  -1.361  23.716  0.00  0.00    +0.013 A 
ATOM     24  C   UNL     1       4.795   0.909  22.928  0.00  0.00    +0.013 A 
ATOM     25  C   UNL     1       5.364  -0.264  23.422  0.00  0.00    +0.055 A 
BRANCH  25  29
ATOM      1  F   UNL     1       7.420   0.862  23.901  0.00  0.00    -0.166 F 
ATOM      2  F   UNL     1       7.520  -0.843  22.562  0.00  0.00    -0.166 F 
ATOM      3  F   UNL     1       7.171  -1.151  24.687  0.00  0.00    -0.166 F 
ATOM     29  C   UNL     1       6.838  -0.345  23.636  0.00  0.00    +0.417 C 
ENDBRANCH  25  29
ENDBRANCH  16  18
ENDBRANCH  11   8
BRANCH  12   6
ATOM      6  O   UNL     1      -3.194   4.396  24.990  0.00  0.00    -0.367 OA
BRANCH   6  15
ATOM     15  C   UNL     1      -4.600   4.590  24.856  0.00  0.00    +0.195 C 
BRANCH  15  17
ATOM     17  C   UNL     1      -5.314   3.378  25.376  0.00  0.00    -0.022 A 
ATOM     21  C   UNL     1      -5.939   2.512  24.486  0.00  0.00    +0.006 A 
ATOM     22  C   UNL     1      -5.344   3.130  26.744  0.00  0.00    +0.006 A 
ATOM     26  C   UNL     1      -6.603   1.385  24.969  0.00  0.00    +0.000 A 
ATOM     27  C   UNL     1      -6.008   2.003  27.228  0.00  0.00    +0.000 A 
ATOM     28  C   UNL     1      -6.637   1.130  26.340  0.00  0.00    +0.000 A 
ENDBRANCH  15  17
ENDBRANCH   6  15
ENDBRANCH  12   6
TORSDOF 6
ENDMDL
