MODEL 1
REMARK VINA RESULT:      -0.5      0.000      0.000
REMARK  Name = 51136914
REMARK  5 active torsions:
REMARK  status: ('A' for Active; 'I' for Inactive)
REMARK    1  A    between atoms: N_2  and  C_13
REMARK    2  A    between atoms: C_9  and  C_14
REMARK    3  A    between atoms: C_13  and  C_15
REMARK    4  A    between atoms: C_16  and  C_19
REMARK    5  A    between atoms: C_25  and  C_26
REMARK                            x       y       z     vdW  Elec       q    Type
REMARK                         _______ _______ _______ _____ _____    ______ ____
ROOT
ATOM      1  O   UNL     1      -3.363   2.628  22.347  0.00  0.00    -0.336 OA
ATOM      3  N   UNL     1      -2.424   1.612  24.108  0.00  0.00    -0.190 NA
ATOM      4  N   UNL     1      -2.056   2.307  21.960  0.00  0.00    -0.056 NA
ATOM     14  C   UNL     1      -3.497   2.185  23.625  0.00  0.00    +0.245 A 
ATOM     16  C   UNL     1      -1.567   1.711  23.051  0.00  0.00    +0.204 A 
ENDROOT
BRANCH  16  19
ATOM      6  N   UNL     1       2.050   1.484  23.881  0.00  0.00    -0.254 NA
ATOM     19  C   UNL     1      -0.227   1.204  23.119  0.00  0.00    +0.041 A 
ATOM     22  C   UNL     1       0.113  -0.006  22.523  0.00  0.00    +0.015 A 
ATOM     23  C   UNL     1       0.769   1.905  23.780  0.00  0.00    +0.123 A 
ATOM     24  C   UNL     1       1.422  -0.470  22.605  0.00  0.00    +0.029 A 
ATOM     25  C   UNL     1       2.344   0.304  23.289  0.00  0.00    +0.074 A 
BRANCH  25  26
ATOM      7  N   UNL     1       5.336  -1.820  23.939  0.00  0.00    -0.243 NA
ATOM      8  N   UNL     1       6.071   0.373  23.266  0.00  0.00    -0.243 NA
ATOM     26  C   UNL     1       3.719  -0.116  23.415  0.00  0.00    +0.037 A 
ATOM     27  C   UNL     1       4.063  -1.393  23.808  0.00  0.00    +0.124 A 
ATOM     28  C   UNL     1       4.775   0.733  23.155  0.00  0.00    +0.124 A 
ATOM     29  C   UNL     1       6.277  -0.898  23.656  0.00  0.00    +0.221 A 
ENDBRANCH  25  26
ENDBRANCH  16  19
BRANCH  14   9
ATOM      2  N   UNL     1      -5.027   1.597  25.497  0.00  0.00    -0.287 NA
ATOM      9  C   UNL     1      -4.842   2.415  24.282  0.00  0.00    +0.146 C 
ATOM     10  C   UNL     1      -5.032   3.868  24.754  0.00  0.00    +0.030 C 
ATOM     11  C   UNL     1      -5.380   3.763  26.232  0.00  0.00    +0.017 C 
ATOM     12  C   UNL     1      -5.922   2.355  26.372  0.00  0.00    +0.085 C 
BRANCH   2  13
ATOM     13  C   UNL     1      -5.534   0.260  25.219  0.00  0.00    +0.120 C 
BRANCH  13  15
ATOM      5  N   UNL     1      -2.351  -2.574  24.649  0.00  0.00    -0.263 NA
ATOM     15  C   UNL     1      -4.420  -0.733  25.019  0.00  0.00    -0.030 A 
ATOM     17  C   UNL     1      -4.457  -1.617  23.947  0.00  0.00    +0.024 A 
ATOM     18  C   UNL     1      -3.350  -0.768  25.906  0.00  0.00    +0.024 A 
ATOM     20  C   UNL     1      -3.407  -2.511  23.807  0.00  0.00    +0.111 A 
ATOM     21  C   UNL     1      -2.350  -1.699  25.679  0.00  0.00    +0.111 A 
ENDBRANCH  13  15
ENDBRANCH   2  13
ENDBRANCH  14   9
TORSDOF 5
ENDMDL
MODEL 2
REMARK VINA RESULT:       0.6      0.497      1.257
REMARK  Name = 51136914
REMARK  5 active torsions:
REMARK  status: ('A' for Active; 'I' for Inactive)
REMARK    1  A    between atoms: N_2  and  C_13
REMARK    2  A    between atoms: C_9  and  C_14
REMARK    3  A    between atoms: C_13  and  C_15
REMARK    4  A    between atoms: C_16  and  C_19
REMARK    5  A    between atoms: C_25  and  C_26
REMARK                            x       y       z     vdW  Elec       q    Type
REMARK                         _______ _______ _______ _____ _____    ______ ____
ROOT
ATOM      1  O   UNL     1      -3.400   2.422  22.283  0.00  0.00    -0.336 OA
ATOM      3  N   UNL     1      -2.392   1.703  24.149  0.00  0.00    -0.190 NA
ATOM      4  N   UNL     1      -2.079   2.126  21.923  0.00  0.00    -0.056 NA
ATOM     14  C   UNL     1      -3.499   2.145  23.610  0.00  0.00    +0.245 A 
ATOM     16  C   UNL     1      -1.549   1.708  23.075  0.00  0.00    +0.204 A 
ENDROOT
BRANCH  16  19
ATOM      6  N   UNL     1       1.514  -0.373  22.743  0.00  0.00    -0.254 NA
ATOM     19  C   UNL     1      -0.181   1.291  23.190  0.00  0.00    +0.041 A 
ATOM     22  C   UNL     1       0.761   2.091  23.829  0.00  0.00    +0.015 A 
ATOM     23  C   UNL     1       0.242   0.079  22.669  0.00  0.00    +0.123 A 
ATOM     24  C   UNL     1       2.079   1.658  23.925  0.00  0.00    +0.029 A 
ATOM     25  C   UNL     1       2.402   0.431  23.372  0.00  0.00    +0.074 A 
BRANCH  25  26
ATOM      7  N   UNL     1       6.122   0.271  23.224  0.00  0.00    -0.243 NA
ATOM      8  N   UNL     1       5.273  -1.906  23.812  0.00  0.00    -0.243 NA
ATOM     26  C   UNL     1       3.750  -0.080  23.433  0.00  0.00    +0.037 A 
ATOM     27  C   UNL     1       4.849   0.714  23.177  0.00  0.00    +0.124 A 
ATOM     28  C   UNL     1       4.026  -1.395  23.748  0.00  0.00    +0.124 A 
ATOM     29  C   UNL     1       6.260  -1.031  23.542  0.00  0.00    +0.221 A 
ENDBRANCH  25  26
ENDBRANCH  16  19
BRANCH  14   9
ATOM      2  N   UNL     1      -5.043   1.594  25.481  0.00  0.00    -0.287 NA
ATOM      9  C   UNL     1      -4.851   2.385  24.249  0.00  0.00    +0.146 C 
ATOM     10  C   UNL     1      -5.050   3.847  24.688  0.00  0.00    +0.030 C 
ATOM     11  C   UNL     1      -5.410   3.773  26.165  0.00  0.00    +0.017 C 
ATOM     12  C   UNL     1      -5.949   2.367  26.331  0.00  0.00    +0.085 C 
BRANCH   2  13
ATOM     13  C   UNL     1      -5.543   0.249  25.229  0.00  0.00    +0.120 C 
BRANCH  13  15
ATOM      5  N   UNL     1      -2.345  -2.574  24.683  0.00  0.00    -0.263 NA
ATOM     15  C   UNL     1      -4.424  -0.740  25.037  0.00  0.00    -0.030 A 
ATOM     17  C   UNL     1      -4.451  -1.628  23.967  0.00  0.00    +0.024 A 
ATOM     18  C   UNL     1      -3.358  -0.768  25.930  0.00  0.00    +0.024 A 
ATOM     20  C   UNL     1      -3.397  -2.517  23.836  0.00  0.00    +0.111 A 
ATOM     21  C   UNL     1      -2.353  -1.695  25.711  0.00  0.00    +0.111 A 
ENDBRANCH  13  15
ENDBRANCH   2  13
ENDBRANCH  14   9
TORSDOF 5
ENDMDL
MODEL 3
REMARK VINA RESULT:       3.2      1.765      3.281
REMARK  Name = 51136914
REMARK  5 active torsions:
REMARK  status: ('A' for Active; 'I' for Inactive)
REMARK    1  A    between atoms: N_2  and  C_13
REMARK    2  A    between atoms: C_9  and  C_14
REMARK    3  A    between atoms: C_13  and  C_15
REMARK    4  A    between atoms: C_16  and  C_19
REMARK    5  A    between atoms: C_25  and  C_26
REMARK                            x       y       z     vdW  Elec       q    Type
REMARK                         _______ _______ _______ _____ _____    ______ ____
ROOT
ATOM      1  O   UNL     1      -3.565   1.568  23.178  0.00  0.00    -0.336 OA
ATOM      3  N   UNL     1      -2.221   1.063  24.896  0.00  0.00    -0.190 NA
ATOM      4  N   UNL     1      -2.317   1.263  22.620  0.00  0.00    -0.056 NA
ATOM     14  C   UNL     1      -3.422   1.426  24.521  0.00  0.00    +0.245 A 
ATOM     16  C   UNL     1      -1.580   0.975  23.695  0.00  0.00    +0.204 A 
ENDROOT
BRANCH  16  19
ATOM      6  N   UNL     1       2.129   1.240  23.742  0.00  0.00    -0.254 NA
ATOM     19  C   UNL     1      -0.198   0.599  23.606  0.00  0.00    +0.041 A 
ATOM     22  C   UNL     1       0.171  -0.709  23.311  0.00  0.00    +0.015 A 
ATOM     23  C   UNL     1       0.810   1.528  23.811  0.00  0.00    +0.123 A 
ATOM     24  C   UNL     1       1.519  -1.043  23.231  0.00  0.00    +0.029 A 
ATOM     25  C   UNL     1       2.450  -0.042  23.452  0.00  0.00    +0.074 A 
BRANCH  25  26
ATOM      7  N   UNL     1       5.714  -1.817  23.733  0.00  0.00    -0.243 NA
ATOM      8  N   UNL     1       6.105   0.393  22.858  0.00  0.00    -0.243 NA
ATOM     26  C   UNL     1       3.866  -0.316  23.387  0.00  0.00    +0.037 A 
ATOM     27  C   UNL     1       4.398  -1.527  23.779  0.00  0.00    +0.124 A 
ATOM     28  C   UNL     1       4.776   0.616  22.931  0.00  0.00    +0.124 A 
ATOM     29  C   UNL     1       6.500  -0.826  23.269  0.00  0.00    +0.221 A 
ENDBRANCH  25  26
ENDBRANCH  16  19
BRANCH  14   9
ATOM      2  N   UNL     1      -5.031   3.129  25.359  0.00  0.00    -0.287 NA
ATOM      9  C   UNL     1      -4.649   1.703  25.364  0.00  0.00    +0.146 C 
ATOM     10  C   UNL     1      -5.898   0.961  24.855  0.00  0.00    +0.030 C 
ATOM     11  C   UNL     1      -6.948   2.044  24.650  0.00  0.00    +0.017 C 
ATOM     12  C   UNL     1      -6.481   3.169  25.551  0.00  0.00    +0.085 C 
BRANCH   2  13
ATOM     13  C   UNL     1      -4.324   3.918  26.359  0.00  0.00    +0.120 C 
BRANCH  13  15
ATOM      5  N   UNL     1      -0.235   4.635  25.236  0.00  0.00    -0.263 NA
ATOM     15  C   UNL     1      -2.892   4.169  25.966  0.00  0.00    -0.030 A 
ATOM     17  C   UNL     1      -1.871   3.408  26.525  0.00  0.00    +0.024 A 
ATOM     18  C   UNL     1      -2.586   5.162  25.042  0.00  0.00    +0.024 A 
ATOM     20  C   UNL     1      -0.570   3.679  26.130  0.00  0.00    +0.111 A 
ATOM     21  C   UNL     1      -1.254   5.354  24.713  0.00  0.00    +0.111 A 
ENDBRANCH  13  15
ENDBRANCH   2  13
ENDBRANCH  14   9
TORSDOF 5
ENDMDL
