MODEL 1
REMARK VINA RESULT:       0.4      0.000      0.000
REMARK  Name = 38028272
REMARK  13 active torsions:
REMARK  status: ('A' for Active; 'I' for Inactive)
REMARK    1  A    between atoms: O_3  and  C_29
REMARK    2  A    between atoms: O_3  and  C_34
REMARK    3  A    between atoms: N_4  and  C_15
REMARK    4  A    between atoms: N_5  and  C_22
REMARK    5  A    between atoms: N_6  and  C_24
REMARK    6  A    between atoms: C_8  and  C_12
REMARK    7  A    between atoms: C_9  and  C_15
REMARK    8  A    between atoms: C_11  and  C_16
REMARK    9  A    between atoms: C_12  and  C_17
REMARK   10  A    between atoms: C_12  and  C_18
REMARK   11  A    between atoms: C_13  and  C_19
REMARK   12  A    between atoms: C_16  and  C_20
REMARK   13  A    between atoms: C_22  and  C_23
REMARK                            x       y       z     vdW  Elec       q    Type
REMARK                         _______ _______ _______ _____ _____    ______ ____
ROOT
ATOM      8  C   UNL     1      -4.294   2.330  25.467  0.00  0.00    +0.000 C 
ATOM      9  C   UNL     1      -4.094   2.807  24.006  0.00  0.00    +0.032 C 
ATOM     10  C   UNL     1      -4.186   3.516  26.437  0.00  0.00    +0.012 C 
ATOM     11  C   UNL     1      -2.823   4.228  26.337  0.00  0.00    +0.023 C 
ATOM     13  C   UNL     1      -2.430   4.493  24.899  0.00  0.00    -0.073 C 
ATOM     14  C   UNL     1      -3.018   3.859  23.869  0.00  0.00    -0.022 C 
ATOM     19  C   UNL     1      -1.376   5.539  24.667  0.00  0.00    +0.039 C 
ENDROOT
BRANCH   8  12
ATOM     12  C   UNL     1      -5.641   1.626  25.655  0.00  0.00    -0.013 C 
ATOM     17  C   UNL     1      -6.239   1.977  27.015  0.00  0.00    +0.007 C 
ATOM     18  C   UNL     1      -6.600   2.003  24.530  0.00  0.00    +0.007 C 
ENDBRANCH   8  12
BRANCH   9  15
ATOM     15  C   UNL     1      -3.778   1.629  23.078  0.00  0.00    +0.113 C 
BRANCH  15   4
ATOM      2  O   UNL     1      -1.342   1.762  21.578  0.00  0.00    -0.253 OA
ATOM      4  N   UNL     1      -2.527   1.031  23.425  0.00  0.00    -0.299 N 
ATOM      6  N   UNL     1      -0.301   0.454  23.226  0.00  0.00    -0.269 N 
ATOM     21  C   UNL     1      -1.367   1.139  22.636  0.00  0.00    +0.304 C 
ATOM     35  H   UNL     1      -2.474   0.493  24.285  0.00  0.00    +0.150 HD
ATOM     37  H   UNL     1      -0.491  -0.011  24.109  0.00  0.00    +0.156 HD
BRANCH   6  24
ATOM     24  C   UNL     1       1.024   0.330  22.743  0.00  0.00    +0.038 A 
ATOM     26  C   UNL     1       2.087   0.843  23.485  0.00  0.00    +0.069 A 
ATOM     27  C   UNL     1       1.265  -0.307  21.526  0.00  0.00    +0.023 A 
ATOM     29  C   UNL     1       3.393   0.720  23.009  0.00  0.00    +0.122 A 
ATOM     30  C   UNL     1       2.570  -0.430  21.050  0.00  0.00    +0.005 A 
ATOM     32  C   UNL     1       3.635   0.083  21.791  0.00  0.00    +0.046 A 
BRANCH  29   3
ATOM      3  O   UNL     1       4.430   1.222  23.732  0.00  0.00    -0.495 OA
ATOM     34  C   UNL     1       5.557   0.370  23.929  0.00  0.00    +0.277 C 
ENDBRANCH  29   3
ENDBRANCH   6  24
ENDBRANCH  15   4
ENDBRANCH   9  15
BRANCH  11  16
ATOM     16  C   UNL     1      -1.732   3.436  27.067  0.00  0.00    +0.103 C 
BRANCH  16  20
ATOM      1  O   UNL     1      -0.478   2.759  25.113  0.00  0.00    -0.276 OA
ATOM      5  N   UNL     1      -1.139   1.157  26.660  0.00  0.00    -0.310 N 
ATOM     20  C   UNL     1      -1.042   2.446  26.157  0.00  0.00    +0.214 C 
ATOM     36  H   UNL     1      -1.634   0.995  27.532  0.00  0.00    +0.149 HD
BRANCH   5  22
ATOM     22  C   UNL     1      -0.573   0.005  25.996  0.00  0.00    +0.159 C 
BRANCH  22  23
ATOM      7  N   UNL     1      -1.246  -1.895  24.642  0.00  0.00    -0.258 NA
ATOM     23  C   UNL     1      -1.631  -0.950  25.528  0.00  0.00    +0.058 A 
ATOM     25  C   UNL     1      -2.922  -0.824  26.016  0.00  0.00    +0.025 A 
ATOM     28  C   UNL     1      -3.879  -1.726  25.564  0.00  0.00    +0.003 A 
ATOM     31  C   UNL     1      -2.204  -2.753  24.225  0.00  0.00    +0.111 A 
ATOM     33  C   UNL     1      -3.521  -2.712  24.651  0.00  0.00    +0.020 A 
ENDBRANCH  22  23
ENDBRANCH   5  22
ENDBRANCH  16  20
ENDBRANCH  11  16
TORSDOF 9
ENDMDL
MODEL 2
REMARK VINA RESULT:       0.8      1.153      3.284
REMARK  Name = 38028272
REMARK  13 active torsions:
REMARK  status: ('A' for Active; 'I' for Inactive)
REMARK    1  A    between atoms: O_3  and  C_29
REMARK    2  A    between atoms: O_3  and  C_34
REMARK    3  A    between atoms: N_4  and  C_15
REMARK    4  A    between atoms: N_5  and  C_22
REMARK    5  A    between atoms: N_6  and  C_24
REMARK    6  A    between atoms: C_8  and  C_12
REMARK    7  A    between atoms: C_9  and  C_15
REMARK    8  A    between atoms: C_11  and  C_16
REMARK    9  A    between atoms: C_12  and  C_17
REMARK   10  A    between atoms: C_12  and  C_18
REMARK   11  A    between atoms: C_13  and  C_19
REMARK   12  A    between atoms: C_16  and  C_20
REMARK   13  A    between atoms: C_22  and  C_23
REMARK                            x       y       z     vdW  Elec       q    Type
REMARK                         _______ _______ _______ _____ _____    ______ ____
ROOT
ATOM      8  C   UNL     1      -2.238   4.270  24.930  0.00  0.00    +0.000 C 
ATOM      9  C   UNL     1      -2.485   4.001  26.436  0.00  0.00    +0.032 C 
ATOM     10  C   UNL     1      -3.532   4.739  24.249  0.00  0.00    +0.012 C 
ATOM     11  C   UNL     1      -4.667   3.705  24.381  0.00  0.00    +0.023 C 
ATOM     13  C   UNL     1      -4.797   3.190  25.800  0.00  0.00    -0.073 C 
ATOM     14  C   UNL     1      -3.818   3.343  26.708  0.00  0.00    -0.022 C 
ATOM     19  C   UNL     1      -6.100   2.534  26.165  0.00  0.00    +0.039 C 
ENDROOT
BRANCH   8  12
ATOM     12  C   UNL     1      -1.131   5.307  24.712  0.00  0.00    -0.013 C 
ATOM     17  C   UNL     1      -0.399   5.035  23.401  0.00  0.00    +0.007 C 
ATOM     18  C   UNL     1      -1.714   6.716  24.724  0.00  0.00    +0.007 C 
ENDBRANCH   8  12
BRANCH   9  15
ATOM     15  C   UNL     1      -1.362   3.149  27.038  0.00  0.00    +0.113 C 
BRANCH  15   4
ATOM      2  O   UNL     1       0.786   3.056  25.146  0.00  0.00    -0.253 OA
ATOM      4  N   UNL     1      -1.032   2.061  26.173  0.00  0.00    -0.299 N 
ATOM      6  N   UNL     1       0.121   0.884  24.556  0.00  0.00    -0.269 N 
ATOM     21  C   UNL     1       0.043   2.085  25.265  0.00  0.00    +0.304 C 
ATOM     35  H   UNL     1      -1.609   1.226  26.211  0.00  0.00    +0.150 HD
ATOM     37  H   UNL     1      -0.575   0.178  24.778  0.00  0.00    +0.156 HD
BRANCH   6  24
ATOM     24  C   UNL     1       1.059   0.523  23.560  0.00  0.00    +0.038 A 
ATOM     26  C   UNL     1       2.392   0.914  23.684  0.00  0.00    +0.069 A 
ATOM     27  C   UNL     1       0.651  -0.223  22.455  0.00  0.00    +0.023 A 
ATOM     29  C   UNL     1       3.317   0.559  22.702  0.00  0.00    +0.122 A 
ATOM     30  C   UNL     1       1.576  -0.578  21.473  0.00  0.00    +0.005 A 
ATOM     32  C   UNL     1       2.910  -0.187  21.597  0.00  0.00    +0.046 A 
BRANCH  29   3
ATOM      3  O   UNL     1       4.618   0.942  22.824  0.00  0.00    -0.495 OA
ATOM     34  C   UNL     1       5.435   0.191  23.720  0.00  0.00    +0.277 C 
ENDBRANCH  29   3
ENDBRANCH   6  24
ENDBRANCH  15   4
ENDBRANCH   9  15
BRANCH  11  16
ATOM     16  C   UNL     1      -4.480   2.549  23.392  0.00  0.00    +0.103 C 
BRANCH  16  20
ATOM      1  O   UNL     1      -2.391   1.334  23.291  0.00  0.00    -0.276 OA
ATOM      5  N   UNL     1      -3.867   0.929  25.038  0.00  0.00    -0.310 N 
ATOM     20  C   UNL     1      -3.450   1.552  23.872  0.00  0.00    +0.214 C 
ATOM     36  H   UNL     1      -4.767   1.172  25.443  0.00  0.00    +0.149 HD
BRANCH   5  22
ATOM     22  C   UNL     1      -3.083  -0.075  25.722  0.00  0.00    +0.159 C 
BRANCH  22  23
ATOM      7  N   UNL     1      -1.714  -1.809  24.715  0.00  0.00    -0.258 NA
ATOM     23  C   UNL     1      -2.963  -1.337  24.918  0.00  0.00    +0.058 A 
ATOM     25  C   UNL     1      -4.111  -1.946  24.436  0.00  0.00    +0.025 A 
ATOM     28  C   UNL     1      -3.965  -3.115  23.697  0.00  0.00    +0.003 A 
ATOM     31  C   UNL     1      -1.612  -2.947  23.992  0.00  0.00    +0.111 A 
ATOM     33  C   UNL     1      -2.696  -3.631  23.465  0.00  0.00    +0.020 A 
ENDBRANCH  22  23
ENDBRANCH   5  22
ENDBRANCH  16  20
ENDBRANCH  11  16
TORSDOF 9
ENDMDL
MODEL 3
REMARK VINA RESULT:       1.1      1.353      1.920
REMARK  Name = 38028272
REMARK  13 active torsions:
REMARK  status: ('A' for Active; 'I' for Inactive)
REMARK    1  A    between atoms: O_3  and  C_29
REMARK    2  A    between atoms: O_3  and  C_34
REMARK    3  A    between atoms: N_4  and  C_15
REMARK    4  A    between atoms: N_5  and  C_22
REMARK    5  A    between atoms: N_6  and  C_24
REMARK    6  A    between atoms: C_8  and  C_12
REMARK    7  A    between atoms: C_9  and  C_15
REMARK    8  A    between atoms: C_11  and  C_16
REMARK    9  A    between atoms: C_12  and  C_17
REMARK   10  A    between atoms: C_12  and  C_18
REMARK   11  A    between atoms: C_13  and  C_19
REMARK   12  A    between atoms: C_16  and  C_20
REMARK   13  A    between atoms: C_22  and  C_23
REMARK                            x       y       z     vdW  Elec       q    Type
REMARK                         _______ _______ _______ _____ _____    ______ ____
ROOT
ATOM      8  C   UNL     1      -3.203   2.176  24.439  0.00  0.00    +0.000 C 
ATOM      9  C   UNL     1      -2.481   2.711  23.177  0.00  0.00    +0.032 C 
ATOM     10  C   UNL     1      -3.616   3.338  25.355  0.00  0.00    +0.012 C 
ATOM     11  C   UNL     1      -2.409   4.183  25.804  0.00  0.00    +0.023 C 
ATOM     13  C   UNL     1      -1.499   4.526  24.643  0.00  0.00    -0.073 C 
ATOM     14  C   UNL     1      -1.554   3.868  23.472  0.00  0.00    -0.022 C 
ATOM     19  C   UNL     1      -0.553   5.678  24.843  0.00  0.00    +0.039 C 
ENDROOT
BRANCH   8  12
ATOM     12  C   UNL     1      -4.433   1.337  24.078  0.00  0.00    -0.013 C 
ATOM     17  C   UNL     1      -4.007  -0.015  23.513  0.00  0.00    +0.007 C 
ATOM     18  C   UNL     1      -5.330   1.155  25.298  0.00  0.00    +0.007 C 
ENDBRANCH   8  12
BRANCH   9  15
ATOM     15  C   UNL     1      -1.700   1.597  22.472  0.00  0.00    +0.113 C 
BRANCH  15   4
ATOM      2  O   UNL     1       0.163  -0.557  22.775  0.00  0.00    -0.253 OA
ATOM      4  N   UNL     1      -0.301   1.709  22.742  0.00  0.00    -0.299 N 
ATOM      6  N   UNL     1       1.865   1.019  23.139  0.00  0.00    -0.269 N 
ATOM     21  C   UNL     1       0.557   0.603  22.878  0.00  0.00    +0.304 C 
ATOM     35  H   UNL     1       0.094   2.639  22.848  0.00  0.00    +0.150 HD
ATOM     37  H   UNL     1       2.023   2.021  23.192  0.00  0.00    +0.156 HD
BRANCH   6  24
ATOM     24  C   UNL     1       3.010   0.210  23.337  0.00  0.00    +0.038 A 
ATOM     26  C   UNL     1       4.284   0.767  23.225  0.00  0.00    +0.069 A 
ATOM     27  C   UNL     1       2.863  -1.142  23.645  0.00  0.00    +0.023 A 
ATOM     29  C   UNL     1       5.412  -0.030  23.420  0.00  0.00    +0.122 A 
ATOM     30  C   UNL     1       3.992  -1.939  23.840  0.00  0.00    +0.005 A 
ATOM     32  C   UNL     1       5.267  -1.383  23.728  0.00  0.00    +0.046 A 
BRANCH  29   3
ATOM      3  O   UNL     1       6.655   0.513  23.309  0.00  0.00    -0.495 OA
ATOM     34  C   UNL     1       7.731  -0.380  23.026  0.00  0.00    +0.277 C 
ENDBRANCH  29   3
ENDBRANCH   6  24
ENDBRANCH  15   4
ENDBRANCH   9  15
BRANCH  11  16
ATOM     16  C   UNL     1      -1.630   3.482  26.923  0.00  0.00    +0.103 C 
BRANCH  16  20
ATOM      1  O   UNL     1       0.444   2.689  25.963  0.00  0.00    -0.276 OA
ATOM      5  N   UNL     1      -1.251   1.173  26.436  0.00  0.00    -0.310 N 
ATOM     20  C   UNL     1      -0.680   2.436  26.386  0.00  0.00    +0.214 C 
ATOM     36  H   UNL     1      -2.194   1.063  26.799  0.00  0.00    +0.149 HD
BRANCH   5  22
ATOM     22  C   UNL     1      -0.571  -0.020  25.985  0.00  0.00    +0.159 C 
BRANCH  22  23
ATOM      7  N   UNL     1      -1.124  -1.959  24.631  0.00  0.00    -0.258 NA
ATOM     23  C   UNL     1      -1.535  -1.100  25.589  0.00  0.00    +0.058 A 
ATOM     25  C   UNL     1      -2.771  -1.167  26.213  0.00  0.00    +0.025 A 
ATOM     28  C   UNL     1      -3.641  -2.181  25.825  0.00  0.00    +0.003 A 
ATOM     31  C   UNL     1      -1.995  -2.930  24.280  0.00  0.00    +0.111 A 
ATOM     33  C   UNL     1      -3.253  -3.083  24.840  0.00  0.00    +0.020 A 
ENDBRANCH  22  23
ENDBRANCH   5  22
ENDBRANCH  16  20
ENDBRANCH  11  16
TORSDOF 9
ENDMDL
MODEL 4
REMARK VINA RESULT:       1.4      1.641      3.104
REMARK  Name = 38028272
REMARK  13 active torsions:
REMARK  status: ('A' for Active; 'I' for Inactive)
REMARK    1  A    between atoms: O_3  and  C_29
REMARK    2  A    between atoms: O_3  and  C_34
REMARK    3  A    between atoms: N_4  and  C_15
REMARK    4  A    between atoms: N_5  and  C_22
REMARK    5  A    between atoms: N_6  and  C_24
REMARK    6  A    between atoms: C_8  and  C_12
REMARK    7  A    between atoms: C_9  and  C_15
REMARK    8  A    between atoms: C_11  and  C_16
REMARK    9  A    between atoms: C_12  and  C_17
REMARK   10  A    between atoms: C_12  and  C_18
REMARK   11  A    between atoms: C_13  and  C_19
REMARK   12  A    between atoms: C_16  and  C_20
REMARK   13  A    between atoms: C_22  and  C_23
REMARK                            x       y       z     vdW  Elec       q    Type
REMARK                         _______ _______ _______ _____ _____    ______ ____
ROOT
ATOM      8  C   UNL     1      -3.481   2.337  23.980  0.00  0.00    +0.000 C 
ATOM      9  C   UNL     1      -2.906   3.454  24.887  0.00  0.00    +0.032 C 
ATOM     10  C   UNL     1      -4.723   2.842  23.230  0.00  0.00    +0.012 C 
ATOM     11  C   UNL     1      -5.832   3.312  24.190  0.00  0.00    +0.023 C 
ATOM     13  C   UNL     1      -5.289   4.211  25.281  0.00  0.00    -0.073 C 
ATOM     14  C   UNL     1      -3.977   4.272  25.570  0.00  0.00    -0.022 C 
ATOM     19  C   UNL     1      -6.285   5.075  26.004  0.00  0.00    +0.039 C 
ENDROOT
BRANCH   8  12
ATOM     12  C   UNL     1      -2.441   1.827  22.979  0.00  0.00    -0.013 C 
ATOM     17  C   UNL     1      -2.700   0.360  22.644  0.00  0.00    +0.007 C 
ATOM     18  C   UNL     1      -2.457   2.680  21.714  0.00  0.00    +0.007 C 
ENDBRANCH   8  12
BRANCH   9  15
ATOM     15  C   UNL     1      -1.955   2.876  25.941  0.00  0.00    +0.113 C 
BRANCH  15   4
ATOM      2  O   UNL     1       0.300   3.078  24.187  0.00  0.00    -0.253 OA
ATOM      4  N   UNL     1      -1.195   1.794  25.400  0.00  0.00    -0.299 N 
ATOM      6  N   UNL     1       0.450   0.735  24.174  0.00  0.00    -0.269 N 
ATOM     21  C   UNL     1      -0.094   1.969  24.541  0.00  0.00    +0.304 C 
ATOM     35  H   UNL     1      -1.468   0.847  25.644  0.00  0.00    +0.150 HD
ATOM     37  H   UNL     1       0.002  -0.093  24.558  0.00  0.00    +0.156 HD
BRANCH   6  24
ATOM     24  C   UNL     1       1.558   0.492  23.328  0.00  0.00    +0.038 A 
ATOM     26  C   UNL     1       2.841   0.845  23.742  0.00  0.00    +0.069 A 
ATOM     27  C   UNL     1       1.366  -0.102  22.081  0.00  0.00    +0.023 A 
ATOM     29  C   UNL     1       3.934   0.606  22.909  0.00  0.00    +0.122 A 
ATOM     30  C   UNL     1       2.458  -0.341  21.247  0.00  0.00    +0.005 A 
ATOM     32  C   UNL     1       3.743   0.012  21.661  0.00  0.00    +0.046 A 
BRANCH  29   3
ATOM      3  O   UNL     1       5.186   0.952  23.313  0.00  0.00    -0.495 OA
ATOM     34  C   UNL     1       5.879   0.025  24.147  0.00  0.00    +0.277 C 
ENDBRANCH  29   3
ENDBRANCH   6  24
ENDBRANCH  15   4
ENDBRANCH   9  15
BRANCH  11  16
ATOM     16  C   UNL     1      -6.588   2.119  24.787  0.00  0.00    +0.103 C 
BRANCH  16  20
ATOM      1  O   UNL     1      -6.000   1.822  27.115  0.00  0.00    -0.276 OA
ATOM      5  N   UNL     1      -4.965   0.515  25.497  0.00  0.00    -0.310 N 
ATOM     20  C   UNL     1      -5.841   1.493  25.943  0.00  0.00    +0.214 C 
ATOM     36  H   UNL     1      -4.898   0.317  24.503  0.00  0.00    +0.149 HD
BRANCH   5  22
ATOM     22  C   UNL     1      -4.117  -0.249  26.384  0.00  0.00    +0.159 C 
BRANCH  22  23
ATOM      7  N   UNL     1      -1.885  -0.995  25.784  0.00  0.00    -0.258 NA
ATOM     23  C   UNL     1      -3.214  -1.182  25.632  0.00  0.00    +0.058 A 
ATOM     25  C   UNL     1      -3.772  -2.172  24.836  0.00  0.00    +0.025 A 
ATOM     28  C   UNL     1      -2.908  -3.021  24.154  0.00  0.00    +0.003 A 
ATOM     31  C   UNL     1      -1.077  -1.839  25.105  0.00  0.00    +0.111 A 
ATOM     33  C   UNL     1      -1.534  -2.858  24.285  0.00  0.00    +0.020 A 
ENDBRANCH  22  23
ENDBRANCH   5  22
ENDBRANCH  16  20
ENDBRANCH  11  16
TORSDOF 9
ENDMDL
MODEL 5
REMARK VINA RESULT:       2.0      1.977      4.831
REMARK  Name = 38028272
REMARK  13 active torsions:
REMARK  status: ('A' for Active; 'I' for Inactive)
REMARK    1  A    between atoms: O_3  and  C_29
REMARK    2  A    between atoms: O_3  and  C_34
REMARK    3  A    between atoms: N_4  and  C_15
REMARK    4  A    between atoms: N_5  and  C_22
REMARK    5  A    between atoms: N_6  and  C_24
REMARK    6  A    between atoms: C_8  and  C_12
REMARK    7  A    between atoms: C_9  and  C_15
REMARK    8  A    between atoms: C_11  and  C_16
REMARK    9  A    between atoms: C_12  and  C_17
REMARK   10  A    between atoms: C_12  and  C_18
REMARK   11  A    between atoms: C_13  and  C_19
REMARK   12  A    between atoms: C_16  and  C_20
REMARK   13  A    between atoms: C_22  and  C_23
REMARK                            x       y       z     vdW  Elec       q    Type
REMARK                         _______ _______ _______ _____ _____    ______ ____
ROOT
ATOM      8  C   UNL     1      -3.620   3.678  25.650  0.00  0.00    +0.000 C 
ATOM      9  C   UNL     1      -3.591   4.519  24.349  0.00  0.00    +0.032 C 
ATOM     10  C   UNL     1      -2.471   4.091  26.581  0.00  0.00    +0.012 C 
ATOM     11  C   UNL     1      -1.092   3.915  25.917  0.00  0.00    +0.023 C 
ATOM     13  C   UNL     1      -1.065   4.487  24.515  0.00  0.00    -0.073 C 
ATOM     14  C   UNL     1      -2.191   4.764  23.834  0.00  0.00    -0.022 C 
ATOM     19  C   UNL     1       0.288   4.778  23.928  0.00  0.00    +0.039 C 
ENDROOT
BRANCH   8  12
ATOM     12  C   UNL     1      -4.958   3.815  26.384  0.00  0.00    -0.013 C 
ATOM     17  C   UNL     1      -5.841   4.849  25.692  0.00  0.00    +0.007 C 
ATOM     18  C   UNL     1      -5.664   2.464  26.458  0.00  0.00    +0.007 C 
ENDBRANCH   8  12
BRANCH   9  15
ATOM     15  C   UNL     1      -4.433   3.864  23.248  0.00  0.00    +0.113 C 
BRANCH  15   4
ATOM      2  O   UNL     1      -4.577   1.474  24.818  0.00  0.00    -0.253 OA
ATOM      4  N   UNL     1      -3.907   2.582  22.902  0.00  0.00    -0.299 N 
ATOM      6  N   UNL     1      -3.408   0.339  23.128  0.00  0.00    -0.269 N 
ATOM     21  C   UNL     1      -4.015   1.447  23.726  0.00  0.00    +0.304 C 
ATOM     35  H   UNL     1      -3.421   2.486  22.015  0.00  0.00    +0.150 HD
ATOM     37  H   UNL     1      -2.987   0.488  22.215  0.00  0.00    +0.156 HD
BRANCH   6  24
ATOM     24  C   UNL     1      -3.309  -0.977  23.638  0.00  0.00    +0.038 A 
ATOM     26  C   UNL     1      -2.137  -1.393  24.270  0.00  0.00    +0.069 A 
ATOM     27  C   UNL     1      -4.383  -1.858  23.511  0.00  0.00    +0.023 A 
ATOM     29  C   UNL     1      -2.038  -2.690  24.773  0.00  0.00    +0.122 A 
ATOM     30  C   UNL     1      -4.284  -3.155  24.014  0.00  0.00    +0.005 A 
ATOM     32  C   UNL     1      -3.112  -3.571  24.646  0.00  0.00    +0.046 A 
BRANCH  29   3
ATOM      3  O   UNL     1      -0.894  -3.095  25.388  0.00  0.00    -0.495 OA
ATOM     34  C   UNL     1       0.189  -2.167  25.421  0.00  0.00    +0.277 C 
ENDBRANCH  29   3
ENDBRANCH   6  24
ENDBRANCH  15   4
ENDBRANCH   9  15
BRANCH  11  16
ATOM     16  C   UNL     1      -0.661   2.444  25.918  0.00  0.00    +0.103 C 
BRANCH  16  20
ATOM      1  O   UNL     1      -1.280   1.942  23.634  0.00  0.00    -0.276 OA
ATOM      5  N   UNL     1       0.854   1.412  24.385  0.00  0.00    -0.310 N 
ATOM     20  C   UNL     1      -0.430   1.918  24.519  0.00  0.00    +0.214 C 
ATOM     36  H   UNL     1       1.486   1.430  25.179  0.00  0.00    +0.149 HD
BRANCH   5  22
ATOM     22  C   UNL     1       1.352   0.840  23.154  0.00  0.00    +0.159 C 
BRANCH  22  23
ATOM      7  N   UNL     1       3.737   1.295  23.110  0.00  0.00    -0.258 NA
ATOM     23  C   UNL     1       2.770   0.368  23.288  0.00  0.00    +0.058 A 
ATOM     25  C   UNL     1       3.017  -0.964  23.583  0.00  0.00    +0.025 A 
ATOM     28  C   UNL     1       4.342  -1.369  23.701  0.00  0.00    +0.003 A 
ATOM     31  C   UNL     1       5.012   0.864  23.233  0.00  0.00    +0.111 A 
ATOM     33  C   UNL     1       5.364  -0.444  23.524  0.00  0.00    +0.020 A 
ENDBRANCH  22  23
ENDBRANCH   5  22
ENDBRANCH  16  20
ENDBRANCH  11  16
TORSDOF 9
ENDMDL
MODEL 6
REMARK VINA RESULT:       3.1      2.167      3.626
REMARK  Name = 38028272
REMARK  13 active torsions:
REMARK  status: ('A' for Active; 'I' for Inactive)
REMARK    1  A    between atoms: O_3  and  C_29
REMARK    2  A    between atoms: O_3  and  C_34
REMARK    3  A    between atoms: N_4  and  C_15
REMARK    4  A    between atoms: N_5  and  C_22
REMARK    5  A    between atoms: N_6  and  C_24
REMARK    6  A    between atoms: C_8  and  C_12
REMARK    7  A    between atoms: C_9  and  C_15
REMARK    8  A    between atoms: C_11  and  C_16
REMARK    9  A    between atoms: C_12  and  C_17
REMARK   10  A    between atoms: C_12  and  C_18
REMARK   11  A    between atoms: C_13  and  C_19
REMARK   12  A    between atoms: C_16  and  C_20
REMARK   13  A    between atoms: C_22  and  C_23
REMARK                            x       y       z     vdW  Elec       q    Type
REMARK                         _______ _______ _______ _____ _____    ______ ____
ROOT
ATOM      8  C   UNL     1      -4.571   1.672  25.212  0.00  0.00    +0.000 C 
ATOM      9  C   UNL     1      -3.798   0.877  24.130  0.00  0.00    +0.032 C 
ATOM     10  C   UNL     1      -4.817   3.114  24.745  0.00  0.00    +0.012 C 
ATOM     11  C   UNL     1      -3.504   3.859  24.437  0.00  0.00    +0.023 C 
ATOM     13  C   UNL     1      -2.569   3.023  23.588  0.00  0.00    -0.073 C 
ATOM     14  C   UNL     1      -2.723   1.694  23.451  0.00  0.00    -0.022 C 
ATOM     19  C   UNL     1      -1.477   3.758  22.861  0.00  0.00    +0.039 C 
ENDROOT
BRANCH   8  12
ATOM     12  C   UNL     1      -5.904   1.004  25.563  0.00  0.00    -0.013 C 
ATOM     17  C   UNL     1      -6.357   1.422  26.959  0.00  0.00    +0.007 C 
ATOM     18  C   UNL     1      -6.964   1.356  24.523  0.00  0.00    +0.007 C 
ENDBRANCH   8  12
BRANCH   9  15
ATOM     15  C   UNL     1      -3.177  -0.396  24.716  0.00  0.00    +0.113 C 
BRANCH  15   4
ATOM      2  O   UNL     1      -0.588   0.791  25.011  0.00  0.00    -0.253 OA
ATOM      4  N   UNL     1      -1.988  -0.753  24.009  0.00  0.00    -0.299 N 
ATOM      6  N   UNL     1       0.231  -0.682  23.377  0.00  0.00    -0.269 N 
ATOM     21  C   UNL     1      -0.746  -0.124  24.206  0.00  0.00    +0.304 C 
ATOM     35  H   UNL     1      -2.045  -1.498  23.320  0.00  0.00    +0.150 HD
ATOM     37  H   UNL     1      -0.067  -1.438  22.767  0.00  0.00    +0.156 HD
BRANCH   6  24
ATOM     24  C   UNL     1       1.597  -0.325  23.282  0.00  0.00    +0.038 A 
ATOM     26  C   UNL     1       2.583  -1.233  23.668  0.00  0.00    +0.069 A 
ATOM     27  C   UNL     1       1.956   0.934  22.803  0.00  0.00    +0.023 A 
ATOM     29  C   UNL     1       3.930  -0.880  23.575  0.00  0.00    +0.122 A 
ATOM     30  C   UNL     1       3.303   1.286  22.710  0.00  0.00    +0.005 A 
ATOM     32  C   UNL     1       4.290   0.379  23.095  0.00  0.00    +0.046 A 
BRANCH  29   3
ATOM      3  O   UNL     1       4.891  -1.766  23.952  0.00  0.00    -0.495 OA
ATOM     34  C   UNL     1       6.133  -1.224  24.401  0.00  0.00    +0.277 C 
ENDBRANCH  29   3
ENDBRANCH   6  24
ENDBRANCH  15   4
ENDBRANCH   9  15
BRANCH  11  16
ATOM     16  C   UNL     1      -2.813   4.317  25.726  0.00  0.00    +0.103 C 
BRANCH  16  20
ATOM      1  O   UNL     1      -0.642   5.138  25.048  0.00  0.00    -0.276 OA
ATOM      5  N   UNL     1      -0.794   3.137  26.217  0.00  0.00    -0.310 N 
ATOM     20  C   UNL     1      -1.307   4.273  25.611  0.00  0.00    +0.214 C 
ATOM     36  H   UNL     1      -1.427   2.472  26.653  0.00  0.00    +0.149 HD
BRANCH   5  22
ATOM     22  C   UNL     1       0.618   2.832  26.258  0.00  0.00    +0.159 C 
BRANCH  22  23
ATOM      7  N   UNL     1       2.447   2.931  27.854  0.00  0.00    -0.258 NA
ATOM     23  C   UNL     1       1.127   2.712  27.665  0.00  0.00    +0.058 A 
ATOM     25  C   UNL     1       0.240   2.392  28.682  0.00  0.00    +0.025 A 
ATOM     28  C   UNL     1       0.743   2.290  29.974  0.00  0.00    +0.003 A 
ATOM     31  C   UNL     1       2.898   2.823  29.123  0.00  0.00    +0.111 A 
ATOM     33  C   UNL     1       2.096   2.508  30.208  0.00  0.00    +0.020 A 
ENDBRANCH  22  23
ENDBRANCH   5  22
ENDBRANCH  16  20
ENDBRANCH  11  16
TORSDOF 9
ENDMDL
MODEL 7
REMARK VINA RESULT:       3.2      2.021      3.315
REMARK  Name = 38028272
REMARK  13 active torsions:
REMARK  status: ('A' for Active; 'I' for Inactive)
REMARK    1  A    between atoms: O_3  and  C_29
REMARK    2  A    between atoms: O_3  and  C_34
REMARK    3  A    between atoms: N_4  and  C_15
REMARK    4  A    between atoms: N_5  and  C_22
REMARK    5  A    between atoms: N_6  and  C_24
REMARK    6  A    between atoms: C_8  and  C_12
REMARK    7  A    between atoms: C_9  and  C_15
REMARK    8  A    between atoms: C_11  and  C_16
REMARK    9  A    between atoms: C_12  and  C_17
REMARK   10  A    between atoms: C_12  and  C_18
REMARK   11  A    between atoms: C_13  and  C_19
REMARK   12  A    between atoms: C_16  and  C_20
REMARK   13  A    between atoms: C_22  and  C_23
REMARK                            x       y       z     vdW  Elec       q    Type
REMARK                         _______ _______ _______ _____ _____    ______ ____
ROOT
ATOM      8  C   UNL     1      -3.636   2.713  23.409  0.00  0.00    +0.000 C 
ATOM      9  C   UNL     1      -2.151   2.737  23.850  0.00  0.00    +0.032 C 
ATOM     10  C   UNL     1      -4.370   3.958  23.927  0.00  0.00    +0.012 C 
ATOM     11  C   UNL     1      -4.319   4.068  25.463  0.00  0.00    +0.023 C 
ATOM     13  C   UNL     1      -2.921   3.835  25.998  0.00  0.00    -0.073 C 
ATOM     14  C   UNL     1      -1.961   3.252  25.258  0.00  0.00    -0.022 C 
ATOM     19  C   UNL     1      -2.637   4.331  27.388  0.00  0.00    +0.039 C 
ENDROOT
BRANCH   8  12
ATOM     12  C   UNL     1      -3.775   2.624  21.886  0.00  0.00    -0.013 C 
ATOM     17  C   UNL     1      -4.150   3.986  21.307  0.00  0.00    +0.007 C 
ATOM     18  C   UNL     1      -2.481   2.109  21.263  0.00  0.00    +0.007 C 
ENDBRANCH   8  12
BRANCH   9  15
ATOM     15  C   UNL     1      -1.513   1.350  23.723  0.00  0.00    +0.113 C 
BRANCH  15   4
ATOM      2  O   UNL     1       0.487  -0.640  24.216  0.00  0.00    -0.253 OA
ATOM      4  N   UNL     1      -0.115   1.457  23.447  0.00  0.00    -0.299 N 
ATOM      6  N   UNL     1       2.102   0.824  23.344  0.00  0.00    -0.269 N 
ATOM     21  C   UNL     1       0.813   0.435  23.717  0.00  0.00    +0.304 C 
ATOM     35  H   UNL     1       0.229   2.322  23.041  0.00  0.00    +0.150 HD
ATOM     37  H   UNL     1       2.200   1.752  22.942  0.00  0.00    +0.156 HD
BRANCH   6  24
ATOM     24  C   UNL     1       3.300   0.078  23.455  0.00  0.00    +0.038 A 
ATOM     26  C   UNL     1       4.533   0.721  23.348  0.00  0.00    +0.069 A 
ATOM     27  C   UNL     1       3.247  -1.298  23.671  0.00  0.00    +0.023 A 
ATOM     29  C   UNL     1       5.714  -0.014  23.457  0.00  0.00    +0.122 A 
ATOM     30  C   UNL     1       4.427  -2.033  23.780  0.00  0.00    +0.005 A 
ATOM     32  C   UNL     1       5.661  -1.391  23.673  0.00  0.00    +0.046 A 
BRANCH  29   3
ATOM      3  O   UNL     1       6.917   0.613  23.351  0.00  0.00    -0.495 OA
ATOM     34  C   UNL     1       8.053  -0.204  23.071  0.00  0.00    +0.277 C 
ENDBRANCH  29   3
ENDBRANCH   6  24
ENDBRANCH  15   4
ENDBRANCH   9  15
BRANCH  11  16
ATOM     16  C   UNL     1      -5.323   3.113  26.119  0.00  0.00    +0.103 C 
BRANCH  16  20
ATOM      1  O   UNL     1      -6.743   2.098  24.445  0.00  0.00    -0.276 OA
ATOM      5  N   UNL     1      -4.915   0.920  25.262  0.00  0.00    -0.310 N 
ATOM     20  C   UNL     1      -5.762   2.015  25.178  0.00  0.00    +0.214 C 
ATOM     36  H   UNL     1      -4.130   0.941  25.906  0.00  0.00    +0.149 HD
BRANCH   5  22
ATOM     22  C   UNL     1      -5.095  -0.280  24.476  0.00  0.00    +0.159 C 
BRANCH  22  23
ATOM      7  N   UNL     1      -2.983  -0.884  25.512  0.00  0.00    -0.258 NA
ATOM     23  C   UNL     1      -3.935  -1.222  24.615  0.00  0.00    +0.058 A 
ATOM     25  C   UNL     1      -3.896  -2.369  23.837  0.00  0.00    +0.025 A 
ATOM     28  C   UNL     1      -2.808  -3.222  23.990  0.00  0.00    +0.003 A 
ATOM     31  C   UNL     1      -1.942  -1.737  25.634  0.00  0.00    +0.111 A 
ATOM     33  C   UNL     1      -1.808  -2.907  24.903  0.00  0.00    +0.020 A 
ENDBRANCH  22  23
ENDBRANCH   5  22
ENDBRANCH  16  20
ENDBRANCH  11  16
TORSDOF 9
ENDMDL
MODEL 8
REMARK VINA RESULT:       3.7      2.737      5.390
REMARK  Name = 38028272
REMARK  13 active torsions:
REMARK  status: ('A' for Active; 'I' for Inactive)
REMARK    1  A    between atoms: O_3  and  C_29
REMARK    2  A    between atoms: O_3  and  C_34
REMARK    3  A    between atoms: N_4  and  C_15
REMARK    4  A    between atoms: N_5  and  C_22
REMARK    5  A    between atoms: N_6  and  C_24
REMARK    6  A    between atoms: C_8  and  C_12
REMARK    7  A    between atoms: C_9  and  C_15
REMARK    8  A    between atoms: C_11  and  C_16
REMARK    9  A    between atoms: C_12  and  C_17
REMARK   10  A    between atoms: C_12  and  C_18
REMARK   11  A    between atoms: C_13  and  C_19
REMARK   12  A    between atoms: C_16  and  C_20
REMARK   13  A    between atoms: C_22  and  C_23
REMARK                            x       y       z     vdW  Elec       q    Type
REMARK                         _______ _______ _______ _____ _____    ______ ____
ROOT
ATOM      8  C   UNL     1      -3.370   1.979  23.774  0.00  0.00    +0.000 C 
ATOM      9  C   UNL     1      -4.077   3.256  24.293  0.00  0.00    +0.032 C 
ATOM     10  C   UNL     1      -4.386   0.843  23.583  0.00  0.00    +0.012 C 
ATOM     11  C   UNL     1      -5.124   0.496  24.890  0.00  0.00    +0.023 C 
ATOM     13  C   UNL     1      -5.622   1.737  25.602  0.00  0.00    -0.073 C 
ATOM     14  C   UNL     1      -5.153   2.964  25.313  0.00  0.00    -0.022 C 
ATOM     19  C   UNL     1      -6.706   1.542  26.625  0.00  0.00    +0.039 C 
ENDROOT
BRANCH   8  12
ATOM     12  C   UNL     1      -2.626   2.236  22.460  0.00  0.00    -0.013 C 
ATOM     17  C   UNL     1      -2.273   0.915  21.782  0.00  0.00    +0.007 C 
ATOM     18  C   UNL     1      -3.467   3.111  21.535  0.00  0.00    +0.007 C 
ENDBRANCH   8  12
BRANCH   9  15
ATOM     15  C   UNL     1      -3.067   4.246  24.884  0.00  0.00    +0.113 C 
BRANCH  15   4
ATOM      2  O   UNL     1      -0.282   3.986  25.499  0.00  0.00    -0.253 OA
ATOM      4  N   UNL     1      -2.503   3.734  26.093  0.00  0.00    -0.299 N 
ATOM      6  N   UNL     1      -0.867   3.099  27.592  0.00  0.00    -0.269 N 
ATOM     21  C   UNL     1      -1.119   3.635  26.327  0.00  0.00    +0.304 C 
ATOM     35  H   UNL     1      -3.136   3.417  26.821  0.00  0.00    +0.150 HD
ATOM     37  H   UNL     1      -1.677   2.861  28.157  0.00  0.00    +0.156 HD
BRANCH   6  24
ATOM     24  C   UNL     1       0.390   2.845  28.192  0.00  0.00    +0.038 A 
ATOM     26  C   UNL     1       0.454   2.400  29.512  0.00  0.00    +0.069 A 
ATOM     27  C   UNL     1       1.563   3.039  27.463  0.00  0.00    +0.023 A 
ATOM     29  C   UNL     1       1.693   2.151  30.104  0.00  0.00    +0.122 A 
ATOM     30  C   UNL     1       2.801   2.789  28.055  0.00  0.00    +0.005 A 
ATOM     32  C   UNL     1       2.866   2.344  29.375  0.00  0.00    +0.046 A 
BRANCH  29   3
ATOM      3  O   UNL     1       1.755   1.718  31.393  0.00  0.00    -0.495 OA
ATOM     34  C   UNL     1       0.743   2.183  32.284  0.00  0.00    +0.277 C 
ENDBRANCH  29   3
ENDBRANCH   6  24
ENDBRANCH  15   4
ENDBRANCH   9  15
BRANCH  11  16
ATOM     16  C   UNL     1      -4.242  -0.350  25.815  0.00  0.00    +0.103 C 
BRANCH  16  20
ATOM      1  O   UNL     1      -3.657  -2.215  24.390  0.00  0.00    -0.276 OA
ATOM      5  N   UNL     1      -1.985  -0.804  25.171  0.00  0.00    -0.310 N 
ATOM     20  C   UNL     1      -3.296  -1.239  25.041  0.00  0.00    +0.214 C 
ATOM     36  H   UNL     1      -1.783   0.014  25.739  0.00  0.00    +0.149 HD
BRANCH   5  22
ATOM     22  C   UNL     1      -0.867  -1.466  24.540  0.00  0.00    +0.159 C 
BRANCH  22  23
ATOM      7  N   UNL     1       1.059  -0.961  23.149  0.00  0.00    -0.258 NA
ATOM     23  C   UNL     1       0.150  -0.488  24.028  0.00  0.00    +0.058 A 
ATOM     25  C   UNL     1       0.109   0.826  24.470  0.00  0.00    +0.025 A 
ATOM     28  C   UNL     1       1.064   1.708  23.976  0.00  0.00    +0.003 A 
ATOM     31  C   UNL     1       1.971  -0.075  22.691  0.00  0.00    +0.111 A 
ATOM     33  C   UNL     1       2.016   1.257  23.070  0.00  0.00    +0.020 A 
ENDBRANCH  22  23
ENDBRANCH   5  22
ENDBRANCH  16  20
ENDBRANCH  11  16
TORSDOF 9
ENDMDL
MODEL 9
REMARK VINA RESULT:       4.2      1.772      4.279
REMARK  Name = 38028272
REMARK  13 active torsions:
REMARK  status: ('A' for Active; 'I' for Inactive)
REMARK    1  A    between atoms: O_3  and  C_29
REMARK    2  A    between atoms: O_3  and  C_34
REMARK    3  A    between atoms: N_4  and  C_15
REMARK    4  A    between atoms: N_5  and  C_22
REMARK    5  A    between atoms: N_6  and  C_24
REMARK    6  A    between atoms: C_8  and  C_12
REMARK    7  A    between atoms: C_9  and  C_15
REMARK    8  A    between atoms: C_11  and  C_16
REMARK    9  A    between atoms: C_12  and  C_17
REMARK   10  A    between atoms: C_12  and  C_18
REMARK   11  A    between atoms: C_13  and  C_19
REMARK   12  A    between atoms: C_16  and  C_20
REMARK   13  A    between atoms: C_22  and  C_23
REMARK                            x       y       z     vdW  Elec       q    Type
REMARK                         _______ _______ _______ _____ _____    ______ ____
ROOT
ATOM      8  C   UNL     1      -4.322  -0.520  24.836  0.00  0.00    +0.000 C 
ATOM      9  C   UNL     1      -2.966   0.050  24.351  0.00  0.00    +0.032 C 
ATOM     10  C   UNL     1      -5.452  -0.100  23.884  0.00  0.00    +0.012 C 
ATOM     11  C   UNL     1      -5.578   1.432  23.771  0.00  0.00    +0.023 C 
ATOM     13  C   UNL     1      -4.233   2.094  23.558  0.00  0.00    -0.073 C 
ATOM     14  C   UNL     1      -3.075   1.457  23.809  0.00  0.00    -0.022 C 
ATOM     19  C   UNL     1      -4.246   3.492  23.005  0.00  0.00    +0.039 C 
ENDROOT
BRANCH   8  12
ATOM     12  C   UNL     1      -4.286  -2.047  24.956  0.00  0.00    -0.013 C 
ATOM     17  C   UNL     1      -4.012  -2.681  23.596  0.00  0.00    +0.007 C 
ATOM     18  C   UNL     1      -3.232  -2.474  25.974  0.00  0.00    +0.007 C 
ENDBRANCH   8  12
BRANCH   9  15
ATOM     15  C   UNL     1      -1.919   0.014  25.470  0.00  0.00    +0.113 C 
BRANCH  15   4
ATOM      2  O   UNL     1       0.085   1.334  23.906  0.00  0.00    -0.253 OA
ATOM      4  N   UNL     1      -0.693  -0.550  25.000  0.00  0.00    -0.299 N 
ATOM      6  N   UNL     1       1.345  -0.647  23.919  0.00  0.00    -0.269 N 
ATOM     21  C   UNL     1       0.248   0.161  24.233  0.00  0.00    +0.304 C 
ATOM     35  H   UNL     1      -0.494  -1.520  25.225  0.00  0.00    +0.150 HD
ATOM     37  H   UNL     1       1.324  -1.600  24.271  0.00  0.00    +0.156 HD
BRANCH   6  24
ATOM     24  C   UNL     1       2.493  -0.299  23.169  0.00  0.00    +0.038 A 
ATOM     26  C   UNL     1       3.750  -0.309  23.773  0.00  0.00    +0.069 A 
ATOM     27  C   UNL     1       2.367   0.053  21.825  0.00  0.00    +0.023 A 
ATOM     29  C   UNL     1       4.882   0.034  23.034  0.00  0.00    +0.122 A 
ATOM     30  C   UNL     1       3.499   0.397  21.086  0.00  0.00    +0.005 A 
ATOM     32  C   UNL     1       4.757   0.387  21.690  0.00  0.00    +0.046 A 
BRANCH  29   3
ATOM      3  O   UNL     1       6.108   0.025  23.624  0.00  0.00    -0.495 OA
ATOM     34  C   UNL     1       6.335  -0.957  24.633  0.00  0.00    +0.277 C 
ENDBRANCH  29   3
ENDBRANCH   6  24
ENDBRANCH  15   4
ENDBRANCH   9  15
BRANCH  11  16
ATOM     16  C   UNL     1      -6.292   2.019  24.994  0.00  0.00    +0.103 C 
BRANCH  16  20
ATOM      1  O   UNL     1      -4.967   1.913  27.015  0.00  0.00    -0.276 OA
ATOM      5  N   UNL     1      -4.885   3.821  25.692  0.00  0.00    -0.310 N 
ATOM     20  C   UNL     1      -5.317   2.545  26.023  0.00  0.00    +0.214 C 
ATOM     36  H   UNL     1      -5.237   4.267  24.850  0.00  0.00    +0.149 HD
BRANCH   5  22
ATOM     22  C   UNL     1      -3.949   4.572  26.498  0.00  0.00    +0.159 C 
BRANCH  22  23
ATOM      7  N   UNL     1      -1.851   3.349  26.516  0.00  0.00    -0.258 NA
ATOM     23  C   UNL     1      -2.536   4.404  26.022  0.00  0.00    +0.058 A 
ATOM     25  C   UNL     1      -2.012   5.315  25.118  0.00  0.00    +0.025 A 
ATOM     28  C   UNL     1      -0.700   5.131  24.695  0.00  0.00    +0.003 A 
ATOM     31  C   UNL     1      -0.579   3.202  26.082  0.00  0.00    +0.111 A 
ATOM     33  C   UNL     1       0.037   4.057  25.182  0.00  0.00    +0.020 A 
ENDBRANCH  22  23
ENDBRANCH   5  22
ENDBRANCH  16  20
ENDBRANCH  11  16
TORSDOF 9
ENDMDL
