MODEL 1
REMARK VINA RESULT:      -3.6      0.000      0.000
REMARK  Name = 75536252
REMARK  8 active torsions:
REMARK  status: ('A' for Active; 'I' for Inactive)
REMARK    1  A    between atoms: O_3  and  C_8
REMARK    2  A    between atoms: N_5  and  C_12
REMARK    3  A    between atoms: N_5  and  C_15
REMARK    4  A    between atoms: C_7  and  C_12
REMARK    5  A    between atoms: C_9  and  C_13
REMARK    6  A    between atoms: C_13  and  C_14
REMARK    7  A    between atoms: C_15  and  C_17
REMARK    8  A    between atoms: C_18  and  C_19
REMARK                            x       y       z     vdW  Elec       q    Type
REMARK                         _______ _______ _______ _____ _____    ______ ____
ROOT
ATOM      2  O   UNL     1      12.159  -7.248  31.372  0.00  0.00    -0.369 OA
ATOM      7  C   UNL     1      11.373  -8.412  31.659  0.00  0.00    +0.161 C 
ATOM      8  C   UNL     1      12.260  -9.648  31.861  0.00  0.00    +0.145 C 
ATOM      9  C   UNL     1      13.166  -6.940  32.340  0.00  0.00    +0.125 C 
ATOM     10  C   UNL     1      13.402  -9.389  32.842  0.00  0.00    +0.036 C 
ATOM     11  C   UNL     1      14.144  -8.104  32.489  0.00  0.00    +0.034 C 
ENDROOT
BRANCH   8   3
ATOM      3  O   UNL     1      12.839 -10.011  30.606  0.00  0.00    -0.389 OA
ATOM     31  H   UNL     1      13.796 -10.124  30.745  0.00  0.00    +0.210 HD
ENDBRANCH   8   3
BRANCH   7  12
ATOM     12  C   UNL     1      10.423  -8.161  32.827  0.00  0.00    +0.115 C 
BRANCH  12   5
ATOM      5  N   UNL     1       9.517  -7.063  32.532  0.00  0.00    -0.309 NA
ATOM     30  H   UNL     1       9.804  -6.238  33.059  0.00  0.00    +0.122 HD
BRANCH   5  15
ATOM     15  C   UNL     1       8.144  -7.411  32.873  0.00  0.00    +0.116 C 
BRANCH  15  17
ATOM     17  C   UNL     1       7.649  -8.589  32.078  0.00  0.00    -0.034 A 
ATOM     20  C   UNL     1       7.088  -9.687  32.731  0.00  0.00    +0.005 A 
ATOM     21  C   UNL     1       7.751  -8.583  30.686  0.00  0.00    +0.005 A 
ATOM     22  C   UNL     1       6.629 -10.778  31.993  0.00  0.00    +0.000 A 
ATOM     23  C   UNL     1       7.291  -9.674  29.948  0.00  0.00    +0.000 A 
ATOM     26  C   UNL     1       6.731 -10.772  30.602  0.00  0.00    +0.000 A 
ENDBRANCH  15  17
ENDBRANCH   5  15
ENDBRANCH  12   5
ENDBRANCH   7  12
BRANCH   9  13
ATOM     13  C   UNL     1      13.886  -5.683  31.869  0.00  0.00    +0.090 C 
BRANCH  13  14
ATOM      4  O   UNL     1      16.716  -6.285  29.719  0.00  0.00    -0.354 OA
ATOM      6  N   UNL     1      16.150  -5.990  30.953  0.00  0.00    -0.083 NA
ATOM     14  C   UNL     1      14.832  -5.974  30.735  0.00  0.00    +0.087 A 
ATOM     16  C   UNL     1      14.510  -6.250  29.395  0.00  0.00    +0.076 A 
ATOM     18  C   UNL     1      15.729  -6.437  28.799  0.00  0.00    +0.167 A 
BRANCH  18  19
ATOM      1  F   UNL     1      17.405  -7.646  23.633  0.00  0.00    -0.205 F 
ATOM     19  C   UNL     1      16.163  -6.749  27.468  0.00  0.00    +0.020 A 
ATOM     24  C   UNL     1      16.713  -5.753  26.662  0.00  0.00    +0.014 A 
ATOM     25  C   UNL     1      16.031  -8.048  26.978  0.00  0.00    +0.014 A 
ATOM     27  C   UNL     1      17.133  -6.055  25.367  0.00  0.00    +0.039 A 
ATOM     28  C   UNL     1      16.452  -8.352  25.683  0.00  0.00    +0.039 A 
ATOM     29  C   UNL     1      17.002  -7.355  24.877  0.00  0.00    +0.123 A 
ENDBRANCH  18  19
ENDBRANCH  13  14
ENDBRANCH   9  13
TORSDOF 8
ENDMDL
MODEL 2
REMARK VINA RESULT:      -3.1     15.458     17.652
REMARK  Name = 75536252
REMARK  8 active torsions:
REMARK  status: ('A' for Active; 'I' for Inactive)
REMARK    1  A    between atoms: O_3  and  C_8
REMARK    2  A    between atoms: N_5  and  C_12
REMARK    3  A    between atoms: N_5  and  C_15
REMARK    4  A    between atoms: C_7  and  C_12
REMARK    5  A    between atoms: C_9  and  C_13
REMARK    6  A    between atoms: C_13  and  C_14
REMARK    7  A    between atoms: C_15  and  C_17
REMARK    8  A    between atoms: C_18  and  C_19
REMARK                            x       y       z     vdW  Elec       q    Type
REMARK                         _______ _______ _______ _____ _____    ______ ____
ROOT
ATOM      2  O   UNL     1      -3.680   0.456  23.711  0.00  0.00    -0.369 OA
ATOM      7  C   UNL     1      -4.610  -0.255  24.540  0.00  0.00    +0.161 C 
ATOM      8  C   UNL     1      -3.954  -1.479  25.191  0.00  0.00    +0.145 C 
ATOM      9  C   UNL     1      -2.476   0.868  24.363  0.00  0.00    +0.125 C 
ATOM     10  C   UNL     1      -2.627  -1.138  25.865  0.00  0.00    +0.036 C 
ATOM     11  C   UNL     1      -1.728  -0.338  24.928  0.00  0.00    +0.034 C 
ENDROOT
BRANCH   8   3
ATOM      3  O   UNL     1      -3.689  -2.454  24.179  0.00  0.00    -0.389 OA
ATOM     31  H   UNL     1      -4.296  -3.200  24.324  0.00  0.00    +0.210 HD
ENDBRANCH   8   3
BRANCH   7  12
ATOM     12  C   UNL     1      -5.269   0.678  25.552  0.00  0.00    +0.115 C 
BRANCH  12   5
ATOM      5  N   UNL     1      -5.908   1.801  24.883  0.00  0.00    -0.309 NA
ATOM     30  H   UNL     1      -5.505   1.913  23.952  0.00  0.00    +0.122 HD
BRANCH   5  15
ATOM     15  C   UNL     1      -5.734   3.031  25.645  0.00  0.00    +0.116 C 
BRANCH  15  17
ATOM     17  C   UNL     1      -4.359   3.616  25.459  0.00  0.00    -0.034 A 
ATOM     20  C   UNL     1      -3.446   3.600  26.514  0.00  0.00    +0.005 A 
ATOM     21  C   UNL     1      -3.998   4.173  24.232  0.00  0.00    +0.005 A 
ATOM     22  C   UNL     1      -2.172   4.141  26.342  0.00  0.00    +0.000 A 
ATOM     23  C   UNL     1      -2.724   4.714  24.060  0.00  0.00    +0.000 A 
ATOM     26  C   UNL     1      -1.811   4.698  25.115  0.00  0.00    +0.000 A 
ENDBRANCH  15  17
ENDBRANCH   5  15
ENDBRANCH  12   5
ENDBRANCH   7  12
BRANCH   9  13
ATOM     13  C   UNL     1      -1.626   1.602  23.334  0.00  0.00    +0.090 C 
BRANCH  13  14
ATOM      4  O   UNL     1       1.128  -0.509  22.355  0.00  0.00    -0.354 OA
ATOM      6  N   UNL     1      -0.212  -0.142  22.324  0.00  0.00    -0.083 NA
ATOM     14  C   UNL     1      -0.297   0.924  23.123  0.00  0.00    +0.087 A 
ATOM     16  C   UNL     1       0.944   1.274  23.681  0.00  0.00    +0.076 A 
ATOM     18  C   UNL     1       1.807   0.342  23.167  0.00  0.00    +0.167 A 
BRANCH  18  19
ATOM      1  F   UNL     1       7.259  -0.641  23.672  0.00  0.00    -0.205 F 
ATOM     19  C   UNL     1       3.212   0.089  23.298  0.00  0.00    +0.020 A 
ATOM     24  C   UNL     1       4.132   1.096  23.007  0.00  0.00    +0.014 A 
ATOM     25  C   UNL     1       3.658  -1.165  23.715  0.00  0.00    +0.014 A 
ATOM     27  C   UNL     1       5.499   0.850  23.133  0.00  0.00    +0.039 A 
ATOM     28  C   UNL     1       5.025  -1.412  23.842  0.00  0.00    +0.039 A 
ATOM     29  C   UNL     1       5.946  -0.404  23.550  0.00  0.00    +0.123 A 
ENDBRANCH  18  19
ENDBRANCH  13  14
ENDBRANCH   9  13
TORSDOF 8
ENDMDL
MODEL 3
REMARK VINA RESULT:      -2.8     15.749     18.220
REMARK  Name = 75536252
REMARK  8 active torsions:
REMARK  status: ('A' for Active; 'I' for Inactive)
REMARK    1  A    between atoms: O_3  and  C_8
REMARK    2  A    between atoms: N_5  and  C_12
REMARK    3  A    between atoms: N_5  and  C_15
REMARK    4  A    between atoms: C_7  and  C_12
REMARK    5  A    between atoms: C_9  and  C_13
REMARK    6  A    between atoms: C_13  and  C_14
REMARK    7  A    between atoms: C_15  and  C_17
REMARK    8  A    between atoms: C_18  and  C_19
REMARK                            x       y       z     vdW  Elec       q    Type
REMARK                         _______ _______ _______ _____ _____    ______ ____
ROOT
ATOM      2  O   UNL     1      -4.046   1.160  23.640  0.00  0.00    -0.369 OA
ATOM      7  C   UNL     1      -4.854   2.315  23.904  0.00  0.00    +0.161 C 
ATOM      8  C   UNL     1      -5.968   1.997  24.911  0.00  0.00    +0.145 C 
ATOM      9  C   UNL     1      -3.465   0.548  24.794  0.00  0.00    +0.125 C 
ATOM     10  C   UNL     1      -5.442   1.287  26.155  0.00  0.00    +0.036 C 
ATOM     11  C   UNL     1      -4.550   0.108  25.775  0.00  0.00    +0.034 C 
ENDROOT
BRANCH   8   3
ATOM      3  O   UNL     1      -6.921   1.133  24.287  0.00  0.00    -0.389 OA
ATOM     31  H   UNL     1      -6.693   1.078  23.342  0.00  0.00    +0.210 HD
ENDBRANCH   8   3
BRANCH   7  12
ATOM     12  C   UNL     1      -3.994   3.505  24.321  0.00  0.00    +0.115 C 
BRANCH  12   5
ATOM      5  N   UNL     1      -4.526   4.135  25.519  0.00  0.00    -0.309 NA
ATOM     30  H   UNL     1      -4.898   5.055  25.280  0.00  0.00    +0.122 HD
BRANCH   5  15
ATOM     15  C   UNL     1      -3.495   4.272  26.540  0.00  0.00    +0.116 C 
BRANCH  15  17
ATOM     17  C   UNL     1      -2.122   3.982  25.993  0.00  0.00    -0.034 A 
ATOM     20  C   UNL     1      -1.442   2.831  26.391  0.00  0.00    +0.005 A 
ATOM     21  C   UNL     1      -1.532   4.864  25.087  0.00  0.00    +0.005 A 
ATOM     22  C   UNL     1      -0.170   2.561  25.884  0.00  0.00    +0.000 A 
ATOM     23  C   UNL     1      -0.261   4.594  24.580  0.00  0.00    +0.000 A 
ATOM     26  C   UNL     1       0.420   3.443  24.979  0.00  0.00    +0.000 A 
ENDBRANCH  15  17
ENDBRANCH   5  15
ENDBRANCH  12   5
ENDBRANCH   7  12
BRANCH   9  13
ATOM     13  C   UNL     1      -2.648  -0.647  24.317  0.00  0.00    +0.090 C 
BRANCH  13  14
ATOM      4  O   UNL     1       0.235   0.907  22.812  0.00  0.00    -0.354 OA
ATOM      6  N   UNL     1      -1.133   0.805  23.030  0.00  0.00    -0.083 NA
ATOM     14  C   UNL     1      -1.275  -0.235  23.856  0.00  0.00    +0.087 A 
ATOM     16  C   UNL     1      -0.044  -0.823  24.191  0.00  0.00    +0.076 A 
ATOM     18  C   UNL     1       0.874  -0.069  23.508  0.00  0.00    +0.167 A 
BRANCH  18  19
ATOM      1  F   UNL     1       6.415  -0.149  23.023  0.00  0.00    -0.205 F 
ATOM     19  C   UNL     1       2.302  -0.090  23.382  0.00  0.00    +0.020 A 
ATOM     24  C   UNL     1       3.018  -1.230  23.748  0.00  0.00    +0.014 A 
ATOM     25  C   UNL     1       2.976   1.031  22.896  0.00  0.00    +0.014 A 
ATOM     27  C   UNL     1       4.407  -1.250  23.626  0.00  0.00    +0.039 A 
ATOM     28  C   UNL     1       4.365   1.011  22.774  0.00  0.00    +0.039 A 
ATOM     29  C   UNL     1       5.081  -0.130  23.140  0.00  0.00    +0.123 A 
ENDBRANCH  18  19
ENDBRANCH  13  14
ENDBRANCH   9  13
TORSDOF 8
ENDMDL
MODEL 4
REMARK VINA RESULT:      -2.2     15.793     18.326
REMARK  Name = 75536252
REMARK  8 active torsions:
REMARK  status: ('A' for Active; 'I' for Inactive)
REMARK    1  A    between atoms: O_3  and  C_8
REMARK    2  A    between atoms: N_5  and  C_12
REMARK    3  A    between atoms: N_5  and  C_15
REMARK    4  A    between atoms: C_7  and  C_12
REMARK    5  A    between atoms: C_9  and  C_13
REMARK    6  A    between atoms: C_13  and  C_14
REMARK    7  A    between atoms: C_15  and  C_17
REMARK    8  A    between atoms: C_18  and  C_19
REMARK                            x       y       z     vdW  Elec       q    Type
REMARK                         _______ _______ _______ _____ _____    ______ ____
ROOT
ATOM      2  O   UNL     1      -3.869   2.408  25.751  0.00  0.00    -0.369 OA
ATOM      7  C   UNL     1      -5.055   1.741  25.299  0.00  0.00    +0.161 C 
ATOM      8  C   UNL     1      -6.320   2.486  25.747  0.00  0.00    +0.145 C 
ATOM      9  C   UNL     1      -3.758   3.780  25.365  0.00  0.00    +0.125 C 
ATOM     10  C   UNL     1      -6.261   3.976  25.423  0.00  0.00    +0.036 C 
ATOM     11  C   UNL     1      -4.944   4.586  25.893  0.00  0.00    +0.034 C 
ENDROOT
BRANCH   8   3
ATOM      3  O   UNL     1      -6.455   2.353  27.164  0.00  0.00    -0.389 OA
ATOM     31  H   UNL     1      -6.942   1.529  27.337  0.00  0.00    +0.210 HD
ENDBRANCH   8   3
BRANCH   7  12
ATOM     12  C   UNL     1      -5.009   1.496  23.792  0.00  0.00    +0.115 C 
BRANCH  12   5
ATOM      5  N   UNL     1      -3.990   0.514  23.457  0.00  0.00    -0.309 NA
ATOM     30  H   UNL     1      -4.082   0.254  22.475  0.00  0.00    +0.122 HD
BRANCH   5  15
ATOM     15  C   UNL     1      -4.114  -0.673  24.293  0.00  0.00    +0.116 C 
BRANCH  15  17
ATOM     17  C   UNL     1      -2.773  -1.172  24.762  0.00  0.00    -0.034 A 
ATOM     20  C   UNL     1      -2.234  -2.340  24.223  0.00  0.00    +0.005 A 
ATOM     21  C   UNL     1      -2.069  -0.464  25.736  0.00  0.00    +0.005 A 
ATOM     22  C   UNL     1      -0.992  -2.801  24.657  0.00  0.00    +0.000 A 
ATOM     23  C   UNL     1      -0.826  -0.925  26.171  0.00  0.00    +0.000 A 
ATOM     26  C   UNL     1      -0.288  -2.094  25.632  0.00  0.00    +0.000 A 
ENDBRANCH  15  17
ENDBRANCH   5  15
ENDBRANCH  12   5
ENDBRANCH   7  12
BRANCH   9  13
ATOM     13  C   UNL     1      -2.447   4.311  25.929  0.00  0.00    +0.090 C 
BRANCH  13  14
ATOM      4  O   UNL     1       0.459   2.178  25.880  0.00  0.00    -0.354 OA
ATOM      6  N   UNL     1      -0.487   2.952  26.540  0.00  0.00    -0.083 NA
ATOM     14  C   UNL     1      -1.286   3.418  25.577  0.00  0.00    +0.087 A 
ATOM     16  C   UNL     1      -0.898   2.976  24.300  0.00  0.00    +0.076 A 
ATOM     18  C   UNL     1       0.204   2.200  24.546  0.00  0.00    +0.167 A 
BRANCH  18  19
ATOM      1  F   UNL     1       3.688  -0.751  21.367  0.00  0.00    -0.205 F 
ATOM     19  C   UNL     1       1.102   1.439  23.728  0.00  0.00    +0.020 A 
ATOM     24  C   UNL     1       2.436   1.827  23.609  0.00  0.00    +0.014 A 
ATOM     25  C   UNL     1       0.641   0.311  23.048  0.00  0.00    +0.014 A 
ATOM     27  C   UNL     1       3.311   1.087  22.812  0.00  0.00    +0.039 A 
ATOM     28  C   UNL     1       1.514  -0.429  22.252  0.00  0.00    +0.039 A 
ATOM     29  C   UNL     1       2.849  -0.040  22.133  0.00  0.00    +0.123 A 
ENDBRANCH  18  19
ENDBRANCH  13  14
ENDBRANCH   9  13
TORSDOF 8
ENDMDL
MODEL 5
REMARK VINA RESULT:      -2.0     15.006     17.246
REMARK  Name = 75536252
REMARK  8 active torsions:
REMARK  status: ('A' for Active; 'I' for Inactive)
REMARK    1  A    between atoms: O_3  and  C_8
REMARK    2  A    between atoms: N_5  and  C_12
REMARK    3  A    between atoms: N_5  and  C_15
REMARK    4  A    between atoms: C_7  and  C_12
REMARK    5  A    between atoms: C_9  and  C_13
REMARK    6  A    between atoms: C_13  and  C_14
REMARK    7  A    between atoms: C_15  and  C_17
REMARK    8  A    between atoms: C_18  and  C_19
REMARK                            x       y       z     vdW  Elec       q    Type
REMARK                         _______ _______ _______ _____ _____    ______ ____
ROOT
ATOM      2  O   UNL     1      -2.473   1.715  24.924  0.00  0.00    -0.369 OA
ATOM      7  C   UNL     1      -2.811   2.743  25.865  0.00  0.00    +0.161 C 
ATOM      8  C   UNL     1      -1.731   3.833  25.912  0.00  0.00    +0.145 C 
ATOM      9  C   UNL     1      -2.217   2.170  23.593  0.00  0.00    +0.125 C 
ATOM     10  C   UNL     1      -1.354   4.337  24.521  0.00  0.00    +0.036 C 
ATOM     11  C   UNL     1      -1.066   3.173  23.578  0.00  0.00    +0.034 C 
ENDROOT
BRANCH   8   3
ATOM      3  O   UNL     1      -0.554   3.289  26.512  0.00  0.00    -0.389 OA
ATOM     31  H   UNL     1      -0.775   2.401  26.843  0.00  0.00    +0.210 HD
ENDBRANCH   8   3
BRANCH   7  12
ATOM     12  C   UNL     1      -4.208   3.298  25.596  0.00  0.00    +0.115 C 
BRANCH  12   5
ATOM      5  N   UNL     1      -5.013   2.340  24.856  0.00  0.00    -0.309 NA
ATOM     30  H   UNL     1      -5.849   2.805  24.501  0.00  0.00    +0.122 HD
BRANCH   5  15
ATOM     15  C   UNL     1      -5.398   1.217  25.701  0.00  0.00    +0.116 C 
BRANCH  15  17
ATOM     17  C   UNL     1      -4.692  -0.052  25.304  0.00  0.00    -0.034 A 
ATOM     20  C   UNL     1      -3.886  -0.721  26.227  0.00  0.00    +0.005 A 
ATOM     21  C   UNL     1      -4.845  -0.561  24.014  0.00  0.00    +0.005 A 
ATOM     22  C   UNL     1      -3.233  -1.897  25.859  0.00  0.00    +0.000 A 
ATOM     23  C   UNL     1      -4.192  -1.737  23.647  0.00  0.00    +0.000 A 
ATOM     26  C   UNL     1      -3.385  -2.405  24.569  0.00  0.00    +0.000 A 
ENDBRANCH  15  17
ENDBRANCH   5  15
ENDBRANCH  12   5
ENDBRANCH   7  12
BRANCH   9  13
ATOM     13  C   UNL     1      -1.882   0.947  22.747  0.00  0.00    +0.090 C 
BRANCH  13  14
ATOM      4  O   UNL     1       0.917  -0.967  23.971  0.00  0.00    -0.354 OA
ATOM      6  N   UNL     1      -0.446  -0.725  23.843  0.00  0.00    -0.083 NA
ATOM     14  C   UNL     1      -0.532   0.380  23.097  0.00  0.00    +0.087 A 
ATOM     16  C   UNL     1       0.730   0.875  22.728  0.00  0.00    +0.076 A 
ATOM     18  C   UNL     1       1.607  -0.007  23.303  0.00  0.00    +0.167 A 
BRANCH  18  19
ATOM      1  F   UNL     1       7.149  -0.463  23.467  0.00  0.00    -0.205 F 
ATOM     19  C   UNL     1       3.036  -0.125  23.344  0.00  0.00    +0.020 A 
ATOM     24  C   UNL     1       3.625  -1.311  23.781  0.00  0.00    +0.014 A 
ATOM     25  C   UNL     1       3.835   0.948  22.950  0.00  0.00    +0.014 A 
ATOM     27  C   UNL     1       5.015  -1.426  23.821  0.00  0.00    +0.039 A 
ATOM     28  C   UNL     1       5.225   0.834  22.991  0.00  0.00    +0.039 A 
ATOM     29  C   UNL     1       5.815  -0.353  23.427  0.00  0.00    +0.123 A 
ENDBRANCH  18  19
ENDBRANCH  13  14
ENDBRANCH   9  13
TORSDOF 8
ENDMDL
MODEL 6
REMARK VINA RESULT:      -1.6     15.308     17.770
REMARK  Name = 75536252
REMARK  8 active torsions:
REMARK  status: ('A' for Active; 'I' for Inactive)
REMARK    1  A    between atoms: O_3  and  C_8
REMARK    2  A    between atoms: N_5  and  C_12
REMARK    3  A    between atoms: N_5  and  C_15
REMARK    4  A    between atoms: C_7  and  C_12
REMARK    5  A    between atoms: C_9  and  C_13
REMARK    6  A    between atoms: C_13  and  C_14
REMARK    7  A    between atoms: C_15  and  C_17
REMARK    8  A    between atoms: C_18  and  C_19
REMARK                            x       y       z     vdW  Elec       q    Type
REMARK                         _______ _______ _______ _____ _____    ______ ____
ROOT
ATOM      2  O   UNL     1      -3.564   1.762  25.446  0.00  0.00    -0.369 OA
ATOM      7  C   UNL     1      -4.857   1.147  25.366  0.00  0.00    +0.161 C 
ATOM      8  C   UNL     1      -5.978   2.188  25.480  0.00  0.00    +0.145 C 
ATOM      9  C   UNL     1      -3.327   2.803  24.494  0.00  0.00    +0.125 C 
ATOM     10  C   UNL     1      -5.773   3.369  24.535  0.00  0.00    +0.036 C 
ATOM     11  C   UNL     1      -4.356   3.921  24.651  0.00  0.00    +0.034 C 
ENDROOT
BRANCH   8   3
ATOM      3  O   UNL     1      -6.000   2.698  26.815  0.00  0.00    -0.389 OA
ATOM     31  H   UNL     1      -6.474   3.547  26.798  0.00  0.00    +0.210 HD
ENDBRANCH   8   3
BRANCH   7  12
ATOM     12  C   UNL     1      -4.976   0.275  24.119  0.00  0.00    +0.115 C 
BRANCH  12   5
ATOM      5  N   UNL     1      -5.128  -1.126  24.477  0.00  0.00    -0.309 NA
ATOM     30  H   UNL     1      -5.051  -1.226  25.490  0.00  0.00    +0.122 HD
BRANCH   5  15
ATOM     15  C   UNL     1      -4.114  -1.946  23.826  0.00  0.00    +0.116 C 
BRANCH  15  17
ATOM     17  C   UNL     1      -2.777  -1.833  24.508  0.00  0.00    -0.034 A 
ATOM     20  C   UNL     1      -2.632  -1.014  25.628  0.00  0.00    +0.005 A 
ATOM     21  C   UNL     1      -1.683  -2.549  24.020  0.00  0.00    +0.005 A 
ATOM     22  C   UNL     1      -1.393  -0.910  26.261  0.00  0.00    +0.000 A 
ATOM     23  C   UNL     1      -0.444  -2.445  24.653  0.00  0.00    +0.000 A 
ATOM     26  C   UNL     1      -0.299  -1.625  25.773  0.00  0.00    +0.000 A 
ENDBRANCH  15  17
ENDBRANCH   5  15
ENDBRANCH  12   5
ENDBRANCH   7  12
BRANCH   9  13
ATOM     13  C   UNL     1      -1.916   3.327  24.730  0.00  0.00    +0.090 C 
BRANCH  13  14
ATOM      4  O   UNL     1      -0.054   0.688  23.127  0.00  0.00    -0.354 OA
ATOM      6  N   UNL     1      -1.241   1.339  23.445  0.00  0.00    -0.083 NA
ATOM     14  C   UNL     1      -0.873   2.381  24.196  0.00  0.00    +0.087 A 
ATOM     16  C   UNL     1       0.518   2.439  24.384  0.00  0.00    +0.076 A 
ATOM     18  C   UNL     1       0.986   1.353  23.693  0.00  0.00    +0.167 A 
BRANCH  18  19
ATOM      1  F   UNL     1       6.028  -0.802  22.755  0.00  0.00    -0.205 F 
ATOM     19  C   UNL     1       2.285   0.797  23.450  0.00  0.00    +0.020 A 
ATOM     24  C   UNL     1       2.508  -0.566  23.641  0.00  0.00    +0.014 A 
ATOM     25  C   UNL     1       3.328   1.621  23.025  0.00  0.00    +0.014 A 
ATOM     27  C   UNL     1       3.772  -1.107  23.406  0.00  0.00    +0.039 A 
ATOM     28  C   UNL     1       4.592   1.081  22.789  0.00  0.00    +0.039 A 
ATOM     29  C   UNL     1       4.814  -0.283  22.981  0.00  0.00    +0.123 A 
ENDBRANCH  18  19
ENDBRANCH  13  14
ENDBRANCH   9  13
TORSDOF 8
ENDMDL
MODEL 7
REMARK VINA RESULT:      -0.7     16.118     19.050
REMARK  Name = 75536252
REMARK  8 active torsions:
REMARK  status: ('A' for Active; 'I' for Inactive)
REMARK    1  A    between atoms: O_3  and  C_8
REMARK    2  A    between atoms: N_5  and  C_12
REMARK    3  A    between atoms: N_5  and  C_15
REMARK    4  A    between atoms: C_7  and  C_12
REMARK    5  A    between atoms: C_9  and  C_13
REMARK    6  A    between atoms: C_13  and  C_14
REMARK    7  A    between atoms: C_15  and  C_17
REMARK    8  A    between atoms: C_18  and  C_19
REMARK                            x       y       z     vdW  Elec       q    Type
REMARK                         _______ _______ _______ _____ _____    ______ ____
ROOT
ATOM      2  O   UNL     1       0.256   1.081  23.107  0.00  0.00    -0.369 OA
ATOM      7  C   UNL     1       0.454  -0.334  22.982  0.00  0.00    +0.161 C 
ATOM      8  C   UNL     1       1.772  -0.651  22.262  0.00  0.00    +0.145 C 
ATOM      9  C   UNL     1       1.317   1.788  23.753  0.00  0.00    +0.125 C 
ATOM     10  C   UNL     1       2.955   0.110  22.854  0.00  0.00    +0.036 C 
ATOM     11  C   UNL     1       2.632   1.594  23.000  0.00  0.00    +0.034 C 
ENDROOT
BRANCH   8   3
ATOM      3  O   UNL     1       1.651  -0.269  20.890  0.00  0.00    -0.389 OA
ATOM     31  H   UNL     1       0.828   0.243  20.798  0.00  0.00    +0.210 HD
ENDBRANCH   8   3
BRANCH   7  12
ATOM     12  C   UNL     1       0.331  -1.030  24.335  0.00  0.00    +0.115 C 
BRANCH  12   5
ATOM      5  N   UNL     1      -0.300  -0.156  25.312  0.00  0.00    -0.309 NA
ATOM     30  H   UNL     1       0.412   0.222  25.937  0.00  0.00    +0.122 HD
BRANCH   5  15
ATOM     15  C   UNL     1      -1.302  -0.877  26.087  0.00  0.00    +0.116 C 
BRANCH  15  17
ATOM     17  C   UNL     1      -2.389  -1.441  25.213  0.00  0.00    -0.034 A 
ATOM     20  C   UNL     1      -2.776  -2.775  25.352  0.00  0.00    +0.005 A 
ATOM     21  C   UNL     1      -3.013  -0.630  24.264  0.00  0.00    +0.005 A 
ATOM     22  C   UNL     1      -3.785  -3.298  24.543  0.00  0.00    +0.000 A 
ATOM     23  C   UNL     1      -4.022  -1.153  23.455  0.00  0.00    +0.000 A 
ATOM     26  C   UNL     1      -4.407  -2.487  23.594  0.00  0.00    +0.000 A 
ENDBRANCH  15  17
ENDBRANCH   5  15
ENDBRANCH  12   5
ENDBRANCH   7  12
BRANCH   9  13
ATOM     13  C   UNL     1       0.928   3.260  23.796  0.00  0.00    +0.090 C 
BRANCH  13  14
ATOM      4  O   UNL     1      -2.129   4.468  25.277  0.00  0.00    -0.354 OA
ATOM      6  N   UNL     1      -0.810   4.632  24.872  0.00  0.00    -0.083 NA
ATOM     14  C   UNL     1      -0.460   3.454  24.348  0.00  0.00    +0.087 A 
ATOM     16  C   UNL     1      -1.506   2.517  24.393  0.00  0.00    +0.076 A 
ATOM     18  C   UNL     1      -2.533   3.204  24.986  0.00  0.00    +0.167 A 
BRANCH  18  19
ATOM      1  F   UNL     1      -7.770   1.959  26.389  0.00  0.00    -0.205 F 
ATOM     19  C   UNL     1      -3.883   2.883  25.347  0.00  0.00    +0.020 A 
ATOM     24  C   UNL     1      -4.809   3.904  25.559  0.00  0.00    +0.014 A 
ATOM     25  C   UNL     1      -4.269   1.550  25.487  0.00  0.00    +0.014 A 
ATOM     27  C   UNL     1      -6.123   3.592  25.911  0.00  0.00    +0.039 A 
ATOM     28  C   UNL     1      -5.582   1.238  25.838  0.00  0.00    +0.039 A 
ATOM     29  C   UNL     1      -6.509   2.259  26.051  0.00  0.00    +0.123 A 
ENDBRANCH  18  19
ENDBRANCH  13  14
ENDBRANCH   9  13
TORSDOF 8
ENDMDL
MODEL 8
REMARK VINA RESULT:       0.0     16.309     19.553
REMARK  Name = 75536252
REMARK  8 active torsions:
REMARK  status: ('A' for Active; 'I' for Inactive)
REMARK    1  A    between atoms: O_3  and  C_8
REMARK    2  A    between atoms: N_5  and  C_12
REMARK    3  A    between atoms: N_5  and  C_15
REMARK    4  A    between atoms: C_7  and  C_12
REMARK    5  A    between atoms: C_9  and  C_13
REMARK    6  A    between atoms: C_13  and  C_14
REMARK    7  A    between atoms: C_15  and  C_17
REMARK    8  A    between atoms: C_18  and  C_19
REMARK                            x       y       z     vdW  Elec       q    Type
REMARK                         _______ _______ _______ _____ _____    ______ ____
ROOT
ATOM      2  O   UNL     1      -1.909   3.541  24.641  0.00  0.00    -0.369 OA
ATOM      7  C   UNL     1      -0.476   3.593  24.626  0.00  0.00    +0.161 C 
ATOM      8  C   UNL     1       0.027   4.988  24.230  0.00  0.00    +0.145 C 
ATOM      9  C   UNL     1      -2.544   4.515  25.473  0.00  0.00    +0.125 C 
ATOM     10  C   UNL     1      -0.644   6.098  25.034  0.00  0.00    +0.036 C 
ATOM     11  C   UNL     1      -2.161   5.928  25.039  0.00  0.00    +0.034 C 
ENDROOT
BRANCH   8   3
ATOM      3  O   UNL     1      -0.269   5.211  22.850  0.00  0.00    -0.389 OA
ATOM     31  H   UNL     1      -0.964   5.891  22.804  0.00  0.00    +0.210 HD
ENDBRANCH   8   3
BRANCH   7  12
ATOM     12  C   UNL     1       0.107   3.101  25.948  0.00  0.00    +0.115 C 
BRANCH  12   5
ATOM      5  N   UNL     1       0.504   1.705  25.852  0.00  0.00    -0.309 NA
ATOM     30  H   UNL     1       1.519   1.648  25.766  0.00  0.00    +0.122 HD
BRANCH   5  15
ATOM     15  C   UNL     1      -0.124   1.061  24.706  0.00  0.00    +0.116 C 
BRANCH  15  17
ATOM     17  C   UNL     1       0.885   0.669  23.660  0.00  0.00    -0.034 A 
ATOM     20  C   UNL     1       2.170   1.211  23.692  0.00  0.00    +0.005 A 
ATOM     21  C   UNL     1       0.535  -0.238  22.659  0.00  0.00    +0.005 A 
ATOM     22  C   UNL     1       3.106   0.847  22.723  0.00  0.00    +0.000 A 
ATOM     23  C   UNL     1       1.470  -0.601  21.690  0.00  0.00    +0.000 A 
ATOM     26  C   UNL     1       2.756  -0.059  21.722  0.00  0.00    +0.000 A 
ENDBRANCH  15  17
ENDBRANCH   5  15
ENDBRANCH  12   5
ENDBRANCH   7  12
BRANCH   9  13
ATOM     13  C   UNL     1      -4.048   4.302  25.363  0.00  0.00    +0.090 C 
BRANCH  13  14
ATOM      4  O   UNL     1      -5.631   1.074  25.099  0.00  0.00    -0.354 OA
ATOM      6  N   UNL     1      -5.668   2.450  25.285  0.00  0.00    -0.083 NA
ATOM     14  C   UNL     1      -4.395   2.845  25.206  0.00  0.00    +0.087 A 
ATOM     16  C   UNL     1      -3.517   1.772  24.972  0.00  0.00    +0.076 A 
ATOM     18  C   UNL     1      -4.345   0.681  24.913  0.00  0.00    +0.167 A 
BRANCH  18  19
ATOM      1  F   UNL     1      -3.571  -4.767  24.100  0.00  0.00    -0.205 F 
ATOM     19  C   UNL     1      -4.146  -0.723  24.704  0.00  0.00    +0.020 A 
ATOM     24  C   UNL     1      -3.463  -1.480  25.655  0.00  0.00    +0.014 A 
ATOM     25  C   UNL     1      -4.635  -1.332  23.548  0.00  0.00    +0.014 A 
ATOM     27  C   UNL     1      -3.269  -2.847  25.452  0.00  0.00    +0.039 A 
ATOM     28  C   UNL     1      -4.442  -2.698  23.344  0.00  0.00    +0.039 A 
ATOM     29  C   UNL     1      -3.757  -3.455  24.296  0.00  0.00    +0.123 A 
ENDBRANCH  18  19
ENDBRANCH  13  14
ENDBRANCH   9  13
TORSDOF 8
ENDMDL
