MODEL 1
REMARK VINA RESULT:      -1.2      0.000      0.000
REMARK  Name = 7051381
REMARK  7 active torsions:
REMARK  status: ('A' for Active; 'I' for Inactive)
REMARK    1  A    between atoms: S_1  and  N_10
REMARK    2  A    between atoms: S_1  and  C_24
REMARK    3  A    between atoms: O_6  and  C_30
REMARK    4  A    between atoms: O_6  and  C_36
REMARK    5  A    between atoms: N_9  and  C_23
REMARK    6  A    between atoms: N_10  and  C_21
REMARK    7  A    between atoms: C_24  and  C_27
REMARK                            x       y       z     vdW  Elec       q    Type
REMARK                         _______ _______ _______ _____ _____    ______ ____
ROOT
ATOM      2  O   UNL     1      -5.614  -7.699  10.501  0.00  0.00    -0.266 OA
ATOM      3  O   UNL     1     -10.488 -10.771  11.844  0.00  0.00    -0.252 OA
ATOM      7  N   UNL     1     -10.540  -8.778  10.669  0.00  0.00    -0.284 N 
ATOM      8  N   UNL     1      -7.620  -8.266   9.433  0.00  0.00    -0.310 N 
ATOM      9  N   UNL     1     -10.300  -8.779  13.016  0.00  0.00    -0.269 N 
ATOM     11  C   UNL     1      -9.685  -6.758   9.449  0.00  0.00    +0.027 C 
ATOM     12  C   UNL     1      -9.773  -8.927   8.301  0.00  0.00    +0.054 C 
ATOM     13  C   UNL     1     -10.024  -7.432   8.127  0.00  0.00    +0.018 C 
ATOM     14  C   UNL     1     -10.560  -7.309  10.593  0.00  0.00    +0.114 C 
ATOM     15  C   UNL     1      -8.189  -6.946   9.730  0.00  0.00    +0.130 C 
ATOM     16  C   UNL     1     -10.713  -9.475   9.388  0.00  0.00    +0.119 C 
ATOM     17  C   UNL     1      -8.330  -9.209   8.678  0.00  0.00    +0.027 A 
ATOM     18  C   UNL     1      -7.749 -10.367   8.314  0.00  0.00    +0.024 A 
ATOM     19  C   UNL     1      -6.293  -8.494   9.853  0.00  0.00    +0.274 A 
ATOM     20  C   UNL     1     -10.436  -9.539  11.856  0.00  0.00    +0.306 C 
ATOM     21  C   UNL     1      -5.716  -9.798   9.443  0.00  0.00    +0.112 A 
ATOM     22  C   UNL     1      -6.402 -10.676   8.709  0.00  0.00    +0.031 A 
ATOM     37  H   UNL     1     -10.712  -7.852  13.034  0.00  0.00    +0.156 HD
ENDROOT
BRANCH   9  23
ATOM     23  C   UNL     1      -9.620  -9.142  14.205  0.00  0.00    +0.035 A 
ATOM     25  C   UNL     1     -10.283  -9.086  15.432  0.00  0.00    +0.027 A 
ATOM     26  C   UNL     1      -8.290  -9.558  14.149  0.00  0.00    +0.027 A 
ATOM     28  C   UNL     1      -9.615  -9.445  16.602  0.00  0.00    +0.047 A 
ATOM     29  C   UNL     1      -7.622  -9.917  15.320  0.00  0.00    +0.047 A 
ATOM     30  C   UNL     1      -8.284  -9.860  16.546  0.00  0.00    +0.120 A 
BRANCH  30   6
ATOM      6  O   UNL     1      -7.632 -10.212  17.688  0.00  0.00    -0.495 OA
ATOM     36  C   UNL     1      -6.213 -10.062  17.698  0.00  0.00    +0.277 C 
ENDBRANCH  30   6
ENDBRANCH   9  23
BRANCH  21  10
ATOM     10  N   UNL     1      -4.404 -10.141   9.814  0.00  0.00    -0.215 N 
ATOM     38  H   UNL     1      -3.734 -10.036   9.040  0.00  0.00    +0.173 HD
BRANCH  10   1
ATOM      1  S   UNL     1      -3.864  -9.480  11.290  0.00  0.00    +0.047 S 
ATOM      4  O   UNL     1      -3.055  -8.304  11.034  0.00  0.00    -0.155 OA
ATOM      5  O   UNL     1      -4.967  -9.442  12.231  0.00  0.00    -0.155 OA
BRANCH   1  24
ATOM     24  C   UNL     1      -2.763 -10.773  11.809  0.00  0.00    +0.223 C 
BRANCH  24  27
ATOM     27  C   UNL     1      -2.677 -10.728  13.303  0.00  0.00    -0.025 A 
ATOM     31  C   UNL     1      -1.434 -10.639  13.928  0.00  0.00    +0.005 A 
ATOM     32  C   UNL     1      -3.842 -10.776  14.070  0.00  0.00    +0.005 A 
ATOM     33  C   UNL     1      -1.354 -10.597  15.320  0.00  0.00    +0.000 A 
ATOM     34  C   UNL     1      -3.761 -10.734  15.463  0.00  0.00    +0.000 A 
ATOM     35  C   UNL     1      -2.518 -10.645  16.088  0.00  0.00    +0.000 A 
ENDBRANCH  24  27
ENDBRANCH   1  24
ENDBRANCH  10   1
ENDBRANCH  21  10
TORSDOF 6
ENDMDL
