MODEL 1
REMARK VINA RESULT:      -3.4      0.000      0.000
REMARK  Name = 86769018
REMARK  2 active torsions:
REMARK  status: ('A' for Active; 'I' for Inactive)
REMARK    1  A    between atoms: N_3  and  C_8
REMARK    2  A    between atoms: N_5  and  C_17
REMARK                            x       y       z     vdW  Elec       q    Type
REMARK                         _______ _______ _______ _____ _____    ______ ____
ROOT
ATOM      2  O   UNL     1      -3.288   5.271  26.161  0.00  0.00    -0.252 OA
ATOM      3  N   UNL     1      -4.271   0.590  24.460  0.00  0.00    -0.296 NA
ATOM      4  N   UNL     1      -3.561   3.264  24.970  0.00  0.00    -0.278 N 
ATOM      5  N   UNL     1      -1.617   4.369  24.763  0.00  0.00    -0.287 N 
ATOM      6  C   UNL     1      -2.827   2.521  23.968  0.00  0.00    +0.109 C 
ATOM      7  C   UNL     1      -2.872   1.024  24.274  0.00  0.00    +0.108 C 
ATOM      9  C   UNL     1      -4.904   1.319  25.579  0.00  0.00    +0.104 C 
ATOM     10  C   UNL     1      -4.893   2.831  25.339  0.00  0.00    +0.125 C 
ATOM     11  C   UNL     1      -1.432   3.142  24.004  0.00  0.00    +0.132 C 
ATOM     14  C   UNL     1      -2.877   4.411  25.392  0.00  0.00    +0.305 C 
ATOM     17  C   UNL     1      -0.547   5.325  24.943  0.00  0.00    +0.133 C 
ENDROOT
BRANCH   3   8
ATOM      1  O   UNL     1      -3.061  -3.429  24.527  0.00  0.00    -0.380 OA
ATOM      8  C   UNL     1      -4.330  -0.850  24.695  0.00  0.00    +0.061 C 
ATOM     12  C   UNL     1      -3.238  -1.294  25.673  0.00  0.00    +0.047 C 
ATOM     13  C   UNL     1      -4.190  -1.612  23.374  0.00  0.00    +0.047 C 
ATOM     15  C   UNL     1      -3.228  -2.813  25.803  0.00  0.00    +0.161 C 
ATOM     16  C   UNL     1      -4.128  -3.113  23.631  0.00  0.00    +0.161 C 
ENDBRANCH   3   8
TORSDOF 1
ENDMDL
MODEL 2
REMARK VINA RESULT:      -3.2      2.958      5.049
REMARK  Name = 86769018
REMARK  2 active torsions:
REMARK  status: ('A' for Active; 'I' for Inactive)
REMARK    1  A    between atoms: N_3  and  C_8
REMARK    2  A    between atoms: N_5  and  C_17
REMARK                            x       y       z     vdW  Elec       q    Type
REMARK                         _______ _______ _______ _____ _____    ______ ____
ROOT
ATOM      2  O   UNL     1       1.127  -1.251  22.902  0.00  0.00    -0.252 OA
ATOM      3  N   UNL     1      -2.706   1.373  24.948  0.00  0.00    -0.296 NA
ATOM      4  N   UNL     1      -0.314   0.140  24.130  0.00  0.00    -0.278 N 
ATOM      5  N   UNL     1       1.656   0.981  23.454  0.00  0.00    -0.287 N 
ATOM      6  C   UNL     1      -0.256   1.457  24.729  0.00  0.00    +0.109 C 
ATOM      7  C   UNL     1      -1.570   2.204  24.501  0.00  0.00    +0.108 C 
ATOM      9  C   UNL     1      -2.753   0.100  24.201  0.00  0.00    +0.104 C 
ATOM     10  C   UNL     1      -1.463  -0.704  24.384  0.00  0.00    +0.125 C 
ATOM     11  C   UNL     1       0.969   2.098  24.080  0.00  0.00    +0.132 C 
ATOM     14  C   UNL     1       0.858  -0.181  23.432  0.00  0.00    +0.305 C 
ATOM     17  C   UNL     1       2.941   1.136  22.809  0.00  0.00    +0.133 C 
ENDROOT
BRANCH   3   8
ATOM      1  O   UNL     1      -6.324   3.233  25.986  0.00  0.00    -0.380 OA
ATOM      8  C   UNL     1      -3.962   2.101  24.790  0.00  0.00    +0.061 C 
ATOM     12  C   UNL     1      -3.937   3.419  25.571  0.00  0.00    +0.047 C 
ATOM     13  C   UNL     1      -5.140   1.241  25.254  0.00  0.00    +0.047 C 
ATOM     15  C   UNL     1      -5.299   4.101  25.504  0.00  0.00    +0.161 C 
ATOM     16  C   UNL     1      -6.436   2.043  25.205  0.00  0.00    +0.161 C 
ENDBRANCH   3   8
TORSDOF 1
ENDMDL
MODEL 3
REMARK VINA RESULT:      -3.1      1.861      2.749
REMARK  Name = 86769018
REMARK  2 active torsions:
REMARK  status: ('A' for Active; 'I' for Inactive)
REMARK    1  A    between atoms: N_3  and  C_8
REMARK    2  A    between atoms: N_5  and  C_17
REMARK                            x       y       z     vdW  Elec       q    Type
REMARK                         _______ _______ _______ _____ _____    ______ ____
ROOT
ATOM      2  O   UNL     1       0.254   5.050  24.156  0.00  0.00    -0.252 OA
ATOM      3  N   UNL     1      -1.545   0.339  24.735  0.00  0.00    -0.296 NA
ATOM      4  N   UNL     1      -0.719   3.026  24.845  0.00  0.00    -0.278 N 
ATOM      5  N   UNL     1      -1.847   4.931  25.222  0.00  0.00    -0.287 N 
ATOM      6  C   UNL     1      -1.879   2.616  25.608  0.00  0.00    +0.109 C 
ATOM      7  C   UNL     1      -2.544   1.404  24.956  0.00  0.00    +0.108 C 
ATOM      9  C   UNL     1      -0.459   0.812  23.852  0.00  0.00    +0.104 C 
ATOM     10  C   UNL     1       0.253   2.030  24.444  0.00  0.00    +0.125 C 
ATOM     11  C   UNL     1      -2.744   3.874  25.657  0.00  0.00    +0.132 C 
ATOM     14  C   UNL     1      -0.653   4.416  24.678  0.00  0.00    +0.305 C 
ATOM     17  C   UNL     1      -2.243   6.322  25.226  0.00  0.00    +0.133 C 
ENDROOT
BRANCH   3   8
ATOM      1  O   UNL     1      -3.807  -3.192  24.545  0.00  0.00    -0.380 OA
ATOM      8  C   UNL     1      -2.181  -0.846  24.167  0.00  0.00    +0.061 C 
ATOM     12  C   UNL     1      -3.705  -0.776  24.310  0.00  0.00    +0.047 C 
ATOM     13  C   UNL     1      -1.651  -2.113  24.843  0.00  0.00    +0.047 C 
ATOM     15  C   UNL     1      -4.343  -2.076  23.835  0.00  0.00    +0.161 C 
ATOM     16  C   UNL     1      -2.402  -3.339  24.338  0.00  0.00    +0.161 C 
ENDBRANCH   3   8
TORSDOF 1
ENDMDL
MODEL 4
REMARK VINA RESULT:      -3.0      3.359      4.770
REMARK  Name = 86769018
REMARK  2 active torsions:
REMARK  status: ('A' for Active; 'I' for Inactive)
REMARK    1  A    between atoms: N_3  and  C_8
REMARK    2  A    between atoms: N_5  and  C_17
REMARK                            x       y       z     vdW  Elec       q    Type
REMARK                         _______ _______ _______ _____ _____    ______ ____
ROOT
ATOM      2  O   UNL     1      -4.090   4.065  24.852  0.00  0.00    -0.252 OA
ATOM      3  N   UNL     1      -0.166   0.860  24.541  0.00  0.00    -0.296 NA
ATOM      4  N   UNL     1      -2.505   2.340  25.039  0.00  0.00    -0.278 N 
ATOM      5  N   UNL     1      -4.680   1.784  24.972  0.00  0.00    -0.287 N 
ATOM      6  C   UNL     1      -2.521   0.909  25.256  0.00  0.00    +0.109 C 
ATOM      7  C   UNL     1      -1.487   0.224  24.363  0.00  0.00    +0.108 C 
ATOM      9  C   UNL     1      -0.220   2.292  24.185  0.00  0.00    +0.104 C 
ATOM     10  C   UNL     1      -1.239   3.044  25.044  0.00  0.00    +0.125 C 
ATOM     11  C   UNL     1      -3.970   0.516  24.981  0.00  0.00    +0.132 C 
ATOM     14  C   UNL     1      -3.795   2.880  24.947  0.00  0.00    +0.305 C 
ATOM     17  C   UNL     1      -6.119   1.855  24.848  0.00  0.00    +0.133 C 
ENDROOT
BRANCH   3   8
ATOM      1  O   UNL     1       2.426   0.071  21.334  0.00  0.00    -0.380 OA
ATOM      8  C   UNL     1       0.841   0.174  23.735  0.00  0.00    +0.061 C 
ATOM     12  C   UNL     1       2.075   1.058  23.526  0.00  0.00    +0.047 C 
ATOM     13  C   UNL     1       0.254  -0.234  22.381  0.00  0.00    +0.047 C 
ATOM     15  C   UNL     1       3.056   0.382  22.576  0.00  0.00    +0.161 C 
ATOM     16  C   UNL     1       1.337  -0.838  21.494  0.00  0.00    +0.161 C 
ENDBRANCH   3   8
TORSDOF 1
ENDMDL
MODEL 5
REMARK VINA RESULT:      -2.9      1.779      6.173
REMARK  Name = 86769018
REMARK  2 active torsions:
REMARK  status: ('A' for Active; 'I' for Inactive)
REMARK    1  A    between atoms: N_3  and  C_8
REMARK    2  A    between atoms: N_5  and  C_17
REMARK                            x       y       z     vdW  Elec       q    Type
REMARK                         _______ _______ _______ _____ _____    ______ ____
ROOT
ATOM      2  O   UNL     1      -4.756  -2.559  23.794  0.00  0.00    -0.252 OA
ATOM      3  N   UNL     1      -2.756   1.952  24.985  0.00  0.00    -0.296 NA
ATOM      4  N   UNL     1      -3.576  -0.718  24.654  0.00  0.00    -0.278 N 
ATOM      5  N   UNL     1      -2.433  -2.597  24.200  0.00  0.00    -0.287 N 
ATOM      6  C   UNL     1      -2.233  -0.449  25.125  0.00  0.00    +0.109 C 
ATOM      7  C   UNL     1      -1.760   0.919  24.633  0.00  0.00    +0.108 C 
ATOM      9  C   UNL     1      -4.063   1.656  24.366  0.00  0.00    +0.104 C 
ATOM     10  C   UNL     1      -4.599   0.294  24.815  0.00  0.00    +0.125 C 
ATOM     11  C   UNL     1      -1.422  -1.634  24.606  0.00  0.00    +0.132 C 
ATOM     14  C   UNL     1      -3.720  -2.026  24.172  0.00  0.00    +0.305 C 
ATOM     17  C   UNL     1      -2.085  -3.924  23.741  0.00  0.00    +0.133 C 
ENDROOT
BRANCH   3   8
ATOM      1  O   UNL     1      -0.545   5.521  25.020  0.00  0.00    -0.380 OA
ATOM      8  C   UNL     1      -2.286   3.272  24.571  0.00  0.00    +0.061 C 
ATOM     12  C   UNL     1      -0.795   3.241  24.219  0.00  0.00    +0.047 C 
ATOM     13  C   UNL     1      -2.540   4.299  25.678  0.00  0.00    +0.047 C 
ATOM     15  C   UNL     1      -0.291   4.648  23.920  0.00  0.00    +0.161 C 
ATOM     16  C   UNL     1      -1.940   5.648  25.298  0.00  0.00    +0.161 C 
ENDBRANCH   3   8
TORSDOF 1
ENDMDL
MODEL 6
REMARK VINA RESULT:      -2.9     20.451     21.600
REMARK  Name = 86769018
REMARK  2 active torsions:
REMARK  status: ('A' for Active; 'I' for Inactive)
REMARK    1  A    between atoms: N_3  and  C_8
REMARK    2  A    between atoms: N_5  and  C_17
REMARK                            x       y       z     vdW  Elec       q    Type
REMARK                         _______ _______ _______ _____ _____    ______ ____
ROOT
ATOM      2  O   UNL     1      17.316  -6.237  22.501  0.00  0.00    -0.252 OA
ATOM      3  N   UNL     1      16.565  -7.477  27.365  0.00  0.00    -0.296 NA
ATOM      4  N   UNL     1      17.291  -6.479  24.837  0.00  0.00    -0.278 N 
ATOM      5  N   UNL     1      17.287  -4.402  23.983  0.00  0.00    -0.287 N 
ATOM      6  C   UNL     1      17.397  -5.611  25.991  0.00  0.00    +0.109 C 
ATOM      7  C   UNL     1      16.403  -6.039  27.072  0.00  0.00    +0.108 C 
ATOM      9  C   UNL     1      16.326  -8.291  26.156  0.00  0.00    +0.104 C 
ATOM     10  C   UNL     1      17.289  -7.915  25.028  0.00  0.00    +0.125 C 
ATOM     11  C   UNL     1      17.162  -4.216  25.418  0.00  0.00    +0.132 C 
ATOM     14  C   UNL     1      17.304  -5.767  23.631  0.00  0.00    +0.305 C 
ATOM     17  C   UNL     1      17.239  -3.291  23.059  0.00  0.00    +0.133 C 
ENDROOT
BRANCH   3   8
ATOM      1  O   UNL     1      14.771  -7.577  31.159  0.00  0.00    -0.380 OA
ATOM      8  C   UNL     1      15.661  -7.882  28.438  0.00  0.00    +0.061 C 
ATOM     12  C   UNL     1      14.781  -6.712  28.889  0.00  0.00    +0.047 C 
ATOM     13  C   UNL     1      16.456  -8.427  29.628  0.00  0.00    +0.047 C 
ATOM     15  C   UNL     1      13.940  -7.114  30.095  0.00  0.00    +0.161 C 
ATOM     16  C   UNL     1      15.522  -8.735  30.793  0.00  0.00    +0.161 C 
ENDBRANCH   3   8
TORSDOF 1
ENDMDL
MODEL 7
REMARK VINA RESULT:      -2.8     19.630     21.120
REMARK  Name = 86769018
REMARK  2 active torsions:
REMARK  status: ('A' for Active; 'I' for Inactive)
REMARK    1  A    between atoms: N_3  and  C_8
REMARK    2  A    between atoms: N_5  and  C_17
REMARK                            x       y       z     vdW  Elec       q    Type
REMARK                         _______ _______ _______ _____ _____    ______ ____
ROOT
ATOM      2  O   UNL     1      16.367  -9.036  25.335  0.00  0.00    -0.252 OA
ATOM      3  N   UNL     1      15.348  -7.337  30.009  0.00  0.00    -0.296 NA
ATOM      4  N   UNL     1      16.309  -8.030  27.458  0.00  0.00    -0.278 N 
ATOM      5  N   UNL     1      16.962  -6.784  25.707  0.00  0.00    -0.287 N 
ATOM      6  C   UNL     1      16.712  -6.768  28.041  0.00  0.00    +0.109 C 
ATOM      7  C   UNL     1      15.655  -6.276  29.029  0.00  0.00    +0.108 C 
ATOM      9  C   UNL     1      14.834  -8.546  29.332  0.00  0.00    +0.104 C 
ATOM     10  C   UNL     1      15.846  -9.095  28.323  0.00  0.00    +0.125 C 
ATOM     11  C   UNL     1      16.932  -5.863  26.831  0.00  0.00    +0.132 C 
ATOM     14  C   UNL     1      16.529  -8.074  26.074  0.00  0.00    +0.305 C 
ATOM     17  C   UNL     1      17.259  -6.342  24.362  0.00  0.00    +0.133 C 
ENDROOT
BRANCH   3   8
ATOM      1  O   UNL     1      12.114  -5.194  31.615  0.00  0.00    -0.380 OA
ATOM      8  C   UNL     1      14.382  -6.857  30.993  0.00  0.00    +0.061 C 
ATOM     12  C   UNL     1      12.952  -7.233  30.592  0.00  0.00    +0.047 C 
ATOM     13  C   UNL     1      14.496  -5.338  31.156  0.00  0.00    +0.047 C 
ATOM     15  C   UNL     1      11.949  -6.611  31.556  0.00  0.00    +0.161 C 
ATOM     16  C   UNL     1      13.408  -4.821  32.090  0.00  0.00    +0.161 C 
ENDBRANCH   3   8
TORSDOF 1
ENDMDL
MODEL 8
REMARK VINA RESULT:      -2.7      3.071      4.352
REMARK  Name = 86769018
REMARK  2 active torsions:
REMARK  status: ('A' for Active; 'I' for Inactive)
REMARK    1  A    between atoms: N_3  and  C_8
REMARK    2  A    between atoms: N_5  and  C_17
REMARK                            x       y       z     vdW  Elec       q    Type
REMARK                         _______ _______ _______ _____ _____    ______ ____
ROOT
ATOM      2  O   UNL     1      -6.134   1.593  26.119  0.00  0.00    -0.252 OA
ATOM      3  N   UNL     1      -1.699   0.693  23.820  0.00  0.00    -0.296 NA
ATOM      4  N   UNL     1      -4.245   1.471  24.727  0.00  0.00    -0.278 N 
ATOM      5  N   UNL     1      -5.150   3.489  25.118  0.00  0.00    -0.287 N 
ATOM      6  C   UNL     1      -3.494   2.376  23.882  0.00  0.00    +0.109 C 
ATOM      7  C   UNL     1      -1.994   2.124  24.034  0.00  0.00    +0.108 C 
ATOM      9  C   UNL     1      -2.418  -0.145  24.800  0.00  0.00    +0.104 C 
ATOM     10  C   UNL     1      -3.933   0.057  24.705  0.00  0.00    +0.125 C 
ATOM     11  C   UNL     1      -3.962   3.760  24.327  0.00  0.00    +0.132 C 
ATOM     14  C   UNL     1      -5.286   2.117  25.408  0.00  0.00    +0.305 C 
ATOM     17  C   UNL     1      -5.976   4.551  25.648  0.00  0.00    +0.133 C 
ENDROOT
BRANCH   3   8
ATOM      1  O   UNL     1       2.351   0.681  22.715  0.00  0.00    -0.380 OA
ATOM      8  C   UNL     1      -0.261   0.452  23.904  0.00  0.00    +0.061 C 
ATOM     12  C   UNL     1       0.521   1.770  23.885  0.00  0.00    +0.047 C 
ATOM     13  C   UNL     1       0.198  -0.445  22.751  0.00  0.00    +0.047 C 
ATOM     15  C   UNL     1       2.020   1.497  23.839  0.00  0.00    +0.161 C 
ATOM     16  C   UNL     1       1.715  -0.596  22.768  0.00  0.00    +0.161 C 
ENDBRANCH   3   8
TORSDOF 1
ENDMDL
MODEL 9
REMARK VINA RESULT:      -2.4      1.895      6.311
REMARK  Name = 86769018
REMARK  2 active torsions:
REMARK  status: ('A' for Active; 'I' for Inactive)
REMARK    1  A    between atoms: N_3  and  C_8
REMARK    2  A    between atoms: N_5  and  C_17
REMARK                            x       y       z     vdW  Elec       q    Type
REMARK                         _______ _______ _______ _____ _____    ______ ____
ROOT
ATOM      2  O   UNL     1      -0.723  -2.873  25.163  0.00  0.00    -0.252 OA
ATOM      3  N   UNL     1      -1.783   1.839  23.602  0.00  0.00    -0.296 NA
ATOM      4  N   UNL     1      -1.494  -0.908  24.131  0.00  0.00    -0.278 N 
ATOM      5  N   UNL     1      -2.989  -2.511  24.619  0.00  0.00    -0.287 N 
ATOM      6  C   UNL     1      -2.737  -0.430  23.565  0.00  0.00    +0.109 C 
ATOM      7  C   UNL     1      -2.969   1.032  23.950  0.00  0.00    +0.108 C 
ATOM      9  C   UNL     1      -0.586   1.349  24.316  0.00  0.00    +0.104 C 
ATOM     10  C   UNL     1      -0.292  -0.114  23.977  0.00  0.00    +0.125 C 
ATOM     11  C   UNL     1      -3.780  -1.408  24.099  0.00  0.00    +0.132 C 
ATOM     14  C   UNL     1      -1.620  -2.186  24.693  0.00  0.00    +0.305 C 
ATOM     17  C   UNL     1      -3.601  -3.719  25.129  0.00  0.00    +0.133 C 
ENDROOT
BRANCH   3   8
ATOM      1  O   UNL     1      -2.345   5.316  25.887  0.00  0.00    -0.380 OA
ATOM      8  C   UNL     1      -2.017   3.247  23.912  0.00  0.00    +0.061 C 
ATOM     12  C   UNL     1      -0.834   3.848  24.677  0.00  0.00    +0.047 C 
ATOM     13  C   UNL     1      -3.303   3.407  24.728  0.00  0.00    +0.047 C 
ATOM     15  C   UNL     1      -1.150   5.275  25.107  0.00  0.00    +0.161 C 
ATOM     16  C   UNL     1      -3.483   4.859  25.156  0.00  0.00    +0.161 C 
ENDBRANCH   3   8
TORSDOF 1
ENDMDL
MODEL 10
REMARK VINA RESULT:      -2.4     21.104     22.269
REMARK  Name = 86769018
REMARK  2 active torsions:
REMARK  status: ('A' for Active; 'I' for Inactive)
REMARK    1  A    between atoms: N_3  and  C_8
REMARK    2  A    between atoms: N_5  and  C_17
REMARK                            x       y       z     vdW  Elec       q    Type
REMARK                         _______ _______ _______ _____ _____    ______ ____
ROOT
ATOM      2  O   UNL     1      14.722  -9.817  28.575  0.00  0.00    -0.252 OA
ATOM      3  N   UNL     1      17.320  -5.758  30.167  0.00  0.00    -0.296 NA
ATOM      4  N   UNL     1      16.257  -8.094  29.018  0.00  0.00    -0.278 N 
ATOM      5  N   UNL     1      15.928  -8.704  26.881  0.00  0.00    -0.287 N 
ATOM      6  C   UNL     1      17.220  -7.319  28.266  0.00  0.00    +0.109 C 
ATOM      7  C   UNL     1      17.179  -5.853  28.700  0.00  0.00    +0.108 C 
ATOM      9  C   UNL     1      16.228  -6.482  30.849  0.00  0.00    +0.104 C 
ATOM     10  C   UNL     1      16.209  -7.962  30.459  0.00  0.00    +0.125 C 
ATOM     11  C   UNL     1      16.833  -7.569  26.811  0.00  0.00    +0.132 C 
ATOM     14  C   UNL     1      15.535  -8.980  28.206  0.00  0.00    +0.305 C 
ATOM     17  C   UNL     1      15.403  -9.340  25.693  0.00  0.00    +0.133 C 
ENDROOT
BRANCH   3   8
ATOM      1  O   UNL     1      16.111  -1.755  30.549  0.00  0.00    -0.380 OA
ATOM      8  C   UNL     1      17.341  -4.359  30.586  0.00  0.00    +0.061 C 
ATOM     12  C   UNL     1      16.110  -4.019  31.434  0.00  0.00    +0.047 C 
ATOM     13  C   UNL     1      17.405  -3.437  29.365  0.00  0.00    +0.047 C 
ATOM     15  C   UNL     1      16.080  -2.528  31.750  0.00  0.00    +0.161 C 
ATOM     16  C   UNL     1      17.303  -1.978  29.795  0.00  0.00    +0.161 C 
ENDBRANCH   3   8
TORSDOF 1
ENDMDL
