MODEL 1
REMARK VINA RESULT:      -5.3      0.000      0.000
REMARK  Name = 75536607
REMARK  7 active torsions:
REMARK  status: ('A' for Active; 'I' for Inactive)
REMARK    1  A    between atoms: O_3  and  C_10
REMARK    2  A    between atoms: N_5  and  C_9
REMARK    3  A    between atoms: N_5  and  C_14
REMARK    4  A    between atoms: N_6  and  C_13
REMARK    5  A    between atoms: C_11  and  C_13
REMARK    6  A    between atoms: C_14  and  C_15
REMARK    7  A    between atoms: C_16  and  C_17
REMARK                            x       y       z     vdW  Elec       q    Type
REMARK                         _______ _______ _______ _____ _____    ______ ____
ROOT
ATOM      2  O   UNL     1      -0.232   3.171  23.596  0.00  0.00    -0.371 OA
ATOM      9  C   UNL     1      -1.174   3.759  25.697  0.00  0.00    +0.111 C 
ATOM     10  C   UNL     1      -0.641   2.339  25.772  0.00  0.00    +0.164 C 
ATOM     11  C   UNL     1       0.345   2.334  24.612  0.00  0.00    +0.165 C 
ATOM     12  C   UNL     1      -1.275   3.962  24.194  0.00  0.00    +0.181 C 
ENDROOT
BRANCH  10   3
ATOM      3  O   UNL     1      -0.006   2.059  27.006  0.00  0.00    -0.388 OA
ATOM     24  H   UNL     1      -0.053   2.856  27.561  0.00  0.00    +0.210 HD
ENDBRANCH  10   3
BRANCH   9   5
ATOM      5  N   UNL     1      -2.445   3.941  26.380  0.00  0.00    -0.302 NA
ATOM     23  H   UNL     1      -2.342   4.672  27.086  0.00  0.00    +0.123 HD
BRANCH   5  14
ATOM     14  C   UNL     1      -3.491   4.333  25.444  0.00  0.00    +0.156 C 
BRANCH  14  15
ATOM      7  N   UNL     1      -5.478   3.158  26.421  0.00  0.00    -0.347 N 
ATOM      8  N   UNL     1      -4.860   2.490  24.395  0.00  0.00    -0.240 NA
ATOM     15  C   UNL     1      -4.599   3.316  25.385  0.00  0.00    +0.121 A 
ATOM     18  C   UNL     1      -6.353   2.170  26.069  0.00  0.00    +0.104 A 
ATOM     19  C   UNL     1      -5.953   1.773  24.816  0.00  0.00    +0.130 A 
ATOM     26  H   UNL     1      -5.481   3.677  27.289  0.00  0.00    +0.167 HD
ENDBRANCH  14  15
ENDBRANCH   5  14
ENDBRANCH   9   5
BRANCH  11  13
ATOM     13  C   UNL     1       0.603   0.948  24.050  0.00  0.00    +0.138 C 
BRANCH  13   6
ATOM      4  O   UNL     1      -0.098  -1.423  25.510  0.00  0.00    -0.270 OA
ATOM      6  N   UNL     1      -0.615   0.198  23.933  0.00  0.00    -0.308 N 
ATOM     16  C   UNL     1      -0.871  -0.944  24.685  0.00  0.00    +0.251 C 
ATOM     25  H   UNL     1      -1.297   0.529  23.259  0.00  0.00    +0.149 HD
BRANCH  16  17
ATOM      1  S   UNL     1      -3.511  -0.685  23.925  0.00  0.00    -0.092 S 
ATOM     17  C   UNL     1      -2.168  -1.621  24.427  0.00  0.00    +0.074 A 
ATOM     20  C   UNL     1      -2.482  -2.958  24.534  0.00  0.00    +0.021 A 
ATOM     21  C   UNL     1      -3.842  -3.218  24.200  0.00  0.00    +0.008 A 
ATOM     22  C   UNL     1      -4.517  -2.068  23.849  0.00  0.00    +0.046 A 
ENDBRANCH  16  17
ENDBRANCH  13   6
ENDBRANCH  11  13
TORSDOF 7
ENDMDL
MODEL 2
REMARK VINA RESULT:      -5.3      2.737      6.610
REMARK  Name = 75536607
REMARK  7 active torsions:
REMARK  status: ('A' for Active; 'I' for Inactive)
REMARK    1  A    between atoms: O_3  and  C_10
REMARK    2  A    between atoms: N_5  and  C_9
REMARK    3  A    between atoms: N_5  and  C_14
REMARK    4  A    between atoms: N_6  and  C_13
REMARK    5  A    between atoms: C_11  and  C_13
REMARK    6  A    between atoms: C_14  and  C_15
REMARK    7  A    between atoms: C_16  and  C_17
REMARK                            x       y       z     vdW  Elec       q    Type
REMARK                         _______ _______ _______ _____ _____    ______ ____
ROOT
ATOM      2  O   UNL     1      -1.670  -2.628  23.886  0.00  0.00    -0.371 OA
ATOM      9  C   UNL     1      -0.012  -1.012  24.420  0.00  0.00    +0.111 C 
ATOM     10  C   UNL     1      -1.225  -0.789  25.305  0.00  0.00    +0.164 C 
ATOM     11  C   UNL     1      -1.904  -2.149  25.221  0.00  0.00    +0.165 C 
ATOM     12  C   UNL     1      -0.607  -1.854  23.303  0.00  0.00    +0.181 C 
ENDROOT
BRANCH  10   3
ATOM      3  O   UNL     1      -0.877  -0.455  26.635  0.00  0.00    -0.388 OA
ATOM     24  H   UNL     1      -1.569  -0.794  27.227  0.00  0.00    +0.210 HD
ENDBRANCH  10   3
BRANCH   9   5
ATOM      5  N   UNL     1       0.594   0.219  23.940  0.00  0.00    -0.302 NA
ATOM     23  H   UNL     1       1.203   0.596  24.668  0.00  0.00    +0.123 HD
BRANCH   5  14
ATOM     14  C   UNL     1       1.384  -0.019  22.739  0.00  0.00    +0.156 C 
BRANCH  14  15
ATOM      7  N   UNL     1       3.521  -1.058  23.535  0.00  0.00    -0.347 N 
ATOM      8  N   UNL     1       3.672   1.042  22.832  0.00  0.00    -0.240 NA
ATOM     15  C   UNL     1       2.862   0.024  23.023  0.00  0.00    +0.121 A 
ATOM     18  C   UNL     1       4.834  -0.709  23.680  0.00  0.00    +0.104 A 
ATOM     19  C   UNL     1       4.903   0.591  23.239  0.00  0.00    +0.130 A 
ATOM     26  H   UNL     1       3.113  -1.956  23.766  0.00  0.00    +0.167 HD
ENDBRANCH  14  15
ENDBRANCH   5  14
ENDBRANCH   9   5
BRANCH  11  13
ATOM     13  C   UNL     1      -3.397  -2.092  25.491  0.00  0.00    +0.138 C 
BRANCH  13   6
ATOM      4  O   UNL     1      -4.034  -0.212  23.416  0.00  0.00    -0.270 OA
ATOM      6  N   UNL     1      -3.844  -0.740  25.667  0.00  0.00    -0.308 N 
ATOM     16  C   UNL     1      -4.131   0.104  24.599  0.00  0.00    +0.251 C 
ATOM     25  H   UNL     1      -3.933  -0.405  26.621  0.00  0.00    +0.149 HD
BRANCH  16  17
ATOM      1  S   UNL     1      -3.456   2.777  24.729  0.00  0.00    -0.092 S 
ATOM     17  C   UNL     1      -4.557   1.484  24.949  0.00  0.00    +0.074 A 
ATOM     20  C   UNL     1      -5.765   1.914  25.451  0.00  0.00    +0.021 A 
ATOM     21  C   UNL     1      -5.788   3.323  25.658  0.00  0.00    +0.008 A 
ATOM     22  C   UNL     1      -4.595   3.917  25.306  0.00  0.00    +0.046 A 
ENDBRANCH  16  17
ENDBRANCH  13   6
ENDBRANCH  11  13
TORSDOF 7
ENDMDL
MODEL 3
REMARK VINA RESULT:      -5.2      2.128      4.365
REMARK  Name = 75536607
REMARK  7 active torsions:
REMARK  status: ('A' for Active; 'I' for Inactive)
REMARK    1  A    between atoms: O_3  and  C_10
REMARK    2  A    between atoms: N_5  and  C_9
REMARK    3  A    between atoms: N_5  and  C_14
REMARK    4  A    between atoms: N_6  and  C_13
REMARK    5  A    between atoms: C_11  and  C_13
REMARK    6  A    between atoms: C_14  and  C_15
REMARK    7  A    between atoms: C_16  and  C_17
REMARK                            x       y       z     vdW  Elec       q    Type
REMARK                         _______ _______ _______ _____ _____    ______ ____
ROOT
ATOM      2  O   UNL     1      -3.665   4.267  25.683  0.00  0.00    -0.371 OA
ATOM      9  C   UNL     1      -1.343   3.927  25.306  0.00  0.00    +0.111 C 
ATOM     10  C   UNL     1      -2.133   3.108  24.302  0.00  0.00    +0.164 C 
ATOM     11  C   UNL     1      -3.476   3.827  24.327  0.00  0.00    +0.165 C 
ATOM     12  C   UNL     1      -2.399   4.205  26.364  0.00  0.00    +0.181 C 
ENDROOT
BRANCH  10   3
ATOM      3  O   UNL     1      -1.553   3.119  23.012  0.00  0.00    -0.388 OA
ATOM     24  H   UNL     1      -1.195   2.234  22.830  0.00  0.00    +0.210 HD
ENDBRANCH  10   3
BRANCH   9   5
ATOM      5  N   UNL     1      -0.179   3.236  25.836  0.00  0.00    -0.302 NA
ATOM     23  H   UNL     1       0.101   3.678  26.713  0.00  0.00    +0.123 HD
BRANCH   5  14
ATOM     14  C   UNL     1      -0.473   1.831  26.088  0.00  0.00    +0.156 C 
BRANCH  14  15
ATOM      7  N   UNL     1       0.931   1.339  24.072  0.00  0.00    -0.347 N 
ATOM      8  N   UNL     1      -0.550  -0.221  24.620  0.00  0.00    -0.240 NA
ATOM     15  C   UNL     1      -0.056   0.956  24.936  0.00  0.00    +0.121 A 
ATOM     18  C   UNL     1       1.076   0.344  23.147  0.00  0.00    +0.104 A 
ATOM     19  C   UNL     1       0.152  -0.608  23.506  0.00  0.00    +0.130 A 
ATOM     26  H   UNL     1       1.460   2.201  24.108  0.00  0.00    +0.167 HD
ENDBRANCH  14  15
ENDBRANCH   5  14
ENDBRANCH   9   5
BRANCH  11  13
ATOM     13  C   UNL     1      -4.637   2.944  23.908  0.00  0.00    +0.138 C 
BRANCH  13   6
ATOM      4  O   UNL     1      -5.353   1.005  25.901  0.00  0.00    -0.270 OA
ATOM      6  N   UNL     1      -4.270   1.557  23.925  0.00  0.00    -0.308 N 
ATOM     16  C   UNL     1      -4.664   0.686  24.936  0.00  0.00    +0.251 C 
ATOM     25  H   UNL     1      -3.688   1.226  23.163  0.00  0.00    +0.149 HD
BRANCH  16  17
ATOM      1  S   UNL     1      -3.296  -1.398  26.119  0.00  0.00    -0.092 S 
ATOM     17  C   UNL     1      -4.179  -0.714  24.821  0.00  0.00    +0.074 A 
ATOM     20  C   UNL     1      -4.336  -1.600  23.778  0.00  0.00    +0.021 A 
ATOM     21  C   UNL     1      -3.722  -2.857  24.048  0.00  0.00    +0.008 A 
ATOM     22  C   UNL     1      -3.120  -2.884  25.288  0.00  0.00    +0.046 A 
ENDBRANCH  16  17
ENDBRANCH  13   6
ENDBRANCH  11  13
TORSDOF 7
ENDMDL
MODEL 4
REMARK VINA RESULT:      -4.8      2.264      5.048
REMARK  Name = 75536607
REMARK  7 active torsions:
REMARK  status: ('A' for Active; 'I' for Inactive)
REMARK    1  A    between atoms: O_3  and  C_10
REMARK    2  A    between atoms: N_5  and  C_9
REMARK    3  A    between atoms: N_5  and  C_14
REMARK    4  A    between atoms: N_6  and  C_13
REMARK    5  A    between atoms: C_11  and  C_13
REMARK    6  A    between atoms: C_14  and  C_15
REMARK    7  A    between atoms: C_16  and  C_17
REMARK                            x       y       z     vdW  Elec       q    Type
REMARK                         _______ _______ _______ _____ _____    ______ ____
ROOT
ATOM      2  O   UNL     1      -1.915  -2.603  23.928  0.00  0.00    -0.371 OA
ATOM      9  C   UNL     1      -0.133  -1.163  24.556  0.00  0.00    +0.111 C 
ATOM     10  C   UNL     1      -1.325  -0.898  25.457  0.00  0.00    +0.164 C 
ATOM     11  C   UNL     1      -2.112  -2.192  25.291  0.00  0.00    +0.165 C 
ATOM     12  C   UNL     1      -0.791  -1.883  23.391  0.00  0.00    +0.181 C 
ENDROOT
BRANCH  10   3
ATOM      3  O   UNL     1      -0.953  -0.677  26.804  0.00  0.00    -0.388 OA
ATOM     24  H   UNL     1      -0.375   0.104  26.838  0.00  0.00    +0.210 HD
ENDBRANCH  10   3
BRANCH   9   5
ATOM      5  N   UNL     1       0.572   0.043  24.152  0.00  0.00    -0.302 NA
ATOM     23  H   UNL     1       1.295  -0.205  23.475  0.00  0.00    +0.123 HD
BRANCH   5  14
ATOM     14  C   UNL     1      -0.339   1.002  23.540  0.00  0.00    +0.156 C 
BRANCH  14  15
ATOM      7  N   UNL     1      -0.510   3.467  23.959  0.00  0.00    -0.347 N 
ATOM      8  N   UNL     1      -0.889   2.161  25.714  0.00  0.00    -0.240 NA
ATOM     15  C   UNL     1      -0.586   2.188  24.434  0.00  0.00    +0.121 A 
ATOM     18  C   UNL     1      -0.781   4.309  25.000  0.00  0.00    +0.104 A 
ATOM     19  C   UNL     1      -1.013   3.481  26.072  0.00  0.00    +0.130 A 
ATOM     26  H   UNL     1      -0.292   3.743  23.009  0.00  0.00    +0.167 HD
ENDBRANCH  14  15
ENDBRANCH   5  14
ENDBRANCH   9   5
BRANCH  11  13
ATOM     13  C   UNL     1      -3.596  -2.031  25.569  0.00  0.00    +0.138 C 
BRANCH  13   6
ATOM      4  O   UNL     1      -4.052  -0.292  23.330  0.00  0.00    -0.270 OA
ATOM      6  N   UNL     1      -3.970  -0.647  25.621  0.00  0.00    -0.308 N 
ATOM     16  C   UNL     1      -4.171   0.123  24.480  0.00  0.00    +0.251 C 
ATOM     25  H   UNL     1      -4.072  -0.232  26.542  0.00  0.00    +0.149 HD
BRANCH  16  17
ATOM      1  S   UNL     1      -5.751   1.930  25.842  0.00  0.00    -0.092 S 
ATOM     17  C   UNL     1      -4.529   1.547  24.704  0.00  0.00    +0.074 A 
ATOM     20  C   UNL     1      -4.005   2.674  24.110  0.00  0.00    +0.021 A 
ATOM     21  C   UNL     1      -4.614   3.867  24.594  0.00  0.00    +0.008 A 
ATOM     22  C   UNL     1      -5.581   3.607  25.540  0.00  0.00    +0.046 A 
ENDBRANCH  16  17
ENDBRANCH  13   6
ENDBRANCH  11  13
TORSDOF 7
ENDMDL
MODEL 5
REMARK VINA RESULT:      -4.5      3.017      4.613
REMARK  Name = 75536607
REMARK  7 active torsions:
REMARK  status: ('A' for Active; 'I' for Inactive)
REMARK    1  A    between atoms: O_3  and  C_10
REMARK    2  A    between atoms: N_5  and  C_9
REMARK    3  A    between atoms: N_5  and  C_14
REMARK    4  A    between atoms: N_6  and  C_13
REMARK    5  A    between atoms: C_11  and  C_13
REMARK    6  A    between atoms: C_14  and  C_15
REMARK    7  A    between atoms: C_16  and  C_17
REMARK                            x       y       z     vdW  Elec       q    Type
REMARK                         _______ _______ _______ _____ _____    ______ ____
ROOT
ATOM      2  O   UNL     1      -0.353   0.799  25.382  0.00  0.00    -0.371 OA
ATOM      9  C   UNL     1      -2.168   2.290  25.018  0.00  0.00    +0.111 C 
ATOM     10  C   UNL     1      -1.982   1.424  23.785  0.00  0.00    +0.164 C 
ATOM     11  C   UNL     1      -1.207   0.249  24.365  0.00  0.00    +0.165 C 
ATOM     12  C   UNL     1      -0.825   2.119  25.709  0.00  0.00    +0.181 C 
ENDROOT
BRANCH  10   3
ATOM      3  O   UNL     1      -3.211   1.016  23.215  0.00  0.00    -0.388 OA
ATOM     24  H   UNL     1      -3.020   0.408  22.481  0.00  0.00    +0.210 HD
ENDBRANCH  10   3
BRANCH   9   5
ATOM      5  N   UNL     1      -2.476   3.678  24.715  0.00  0.00    -0.302 NA
ATOM     23  H   UNL     1      -2.702   3.761  23.723  0.00  0.00    +0.123 HD
BRANCH   5  14
ATOM     14  C   UNL     1      -3.612   4.146  25.499  0.00  0.00    +0.156 C 
BRANCH  14  15
ATOM      7  N   UNL     1      -5.464   2.838  26.568  0.00  0.00    -0.347 N 
ATOM      8  N   UNL     1      -5.233   2.570  24.376  0.00  0.00    -0.240 NA
ATOM     15  C   UNL     1      -4.766   3.180  25.444  0.00  0.00    +0.121 A 
ATOM     18  C   UNL     1      -6.437   1.954  26.194  0.00  0.00    +0.104 A 
ATOM     19  C   UNL     1      -6.275   1.805  24.837  0.00  0.00    +0.130 A 
ATOM     26  H   UNL     1      -5.293   3.176  27.506  0.00  0.00    +0.167 HD
ENDBRANCH  14  15
ENDBRANCH   5  14
ENDBRANCH   9   5
BRANCH  11  13
ATOM     13  C   UNL     1      -0.369  -0.485  23.333  0.00  0.00    +0.138 C 
BRANCH  13   6
ATOM      4  O   UNL     1       1.738  -0.273  21.395  0.00  0.00    -0.270 OA
ATOM      6  N   UNL     1       1.032  -0.343  23.604  0.00  0.00    -0.308 N 
ATOM     16  C   UNL     1       1.988  -0.247  22.597  0.00  0.00    +0.251 C 
ATOM     25  H   UNL     1       1.314  -0.327  24.578  0.00  0.00    +0.149 HD
BRANCH  16  17
ATOM      1  S   UNL     1       4.144  -1.467  23.814  0.00  0.00    -0.092 S 
ATOM     17  C   UNL     1       3.401  -0.130  23.043  0.00  0.00    +0.074 A 
ATOM     20  C   UNL     1       4.257   0.942  22.927  0.00  0.00    +0.021 A 
ATOM     21  C   UNL     1       5.541   0.663  23.480  0.00  0.00    +0.008 A 
ATOM     22  C   UNL     1       5.616  -0.612  23.997  0.00  0.00    +0.046 A 
ENDBRANCH  16  17
ENDBRANCH  13   6
ENDBRANCH  11  13
TORSDOF 7
ENDMDL
MODEL 6
REMARK VINA RESULT:      -4.4     15.504     18.000
REMARK  Name = 75536607
REMARK  7 active torsions:
REMARK  status: ('A' for Active; 'I' for Inactive)
REMARK    1  A    between atoms: O_3  and  C_10
REMARK    2  A    between atoms: N_5  and  C_9
REMARK    3  A    between atoms: N_5  and  C_14
REMARK    4  A    between atoms: N_6  and  C_13
REMARK    5  A    between atoms: C_11  and  C_13
REMARK    6  A    between atoms: C_14  and  C_15
REMARK    7  A    between atoms: C_16  and  C_17
REMARK                            x       y       z     vdW  Elec       q    Type
REMARK                         _______ _______ _______ _____ _____    ______ ____
ROOT
ATOM      2  O   UNL     1      -8.699  -8.677   9.709  0.00  0.00    -0.371 OA
ATOM      9  C   UNL     1      -6.340  -8.964   9.688  0.00  0.00    +0.111 C 
ATOM     10  C   UNL     1      -6.891  -9.483  11.004  0.00  0.00    +0.164 C 
ATOM     11  C   UNL     1      -8.351  -9.716  10.639  0.00  0.00    +0.165 C 
ATOM     12  C   UNL     1      -7.486  -8.088   9.207  0.00  0.00    +0.181 C 
ENDROOT
BRANCH  10   3
ATOM      3  O   UNL     1      -6.257 -10.674  11.429  0.00  0.00    -0.388 OA
ATOM     24  H   UNL     1      -6.228 -11.290  10.677  0.00  0.00    +0.210 HD
ENDBRANCH  10   3
BRANCH   9   5
ATOM      5  N   UNL     1      -5.089  -8.236   9.825  0.00  0.00    -0.302 NA
ATOM     23  H   UNL     1      -4.908  -8.070  10.816  0.00  0.00    +0.123 HD
BRANCH   5  14
ATOM     14  C   UNL     1      -3.978  -8.992   9.262  0.00  0.00    +0.156 C 
BRANCH  14  15
ATOM      7  N   UNL     1      -1.915  -8.996  10.685  0.00  0.00    -0.347 N 
ATOM      8  N   UNL     1      -3.335 -10.666  11.038  0.00  0.00    -0.240 NA
ATOM     15  C   UNL     1      -3.100  -9.580  10.335  0.00  0.00    +0.121 A 
ATOM     18  C   UNL     1      -1.358  -9.757  11.674  0.00  0.00    +0.104 A 
ATOM     19  C   UNL     1      -2.252 -10.781  11.875  0.00  0.00    +0.130 A 
ATOM     26  H   UNL     1      -1.520  -8.153  10.286  0.00  0.00    +0.167 HD
ENDBRANCH  14  15
ENDBRANCH   5  14
ENDBRANCH   9   5
BRANCH  11  13
ATOM     13  C   UNL     1      -9.284  -9.665  11.836  0.00  0.00    +0.138 C 
BRANCH  13   6
ATOM      4  O   UNL     1     -10.205  -8.941  14.458  0.00  0.00    -0.270 OA
ATOM      6  N   UNL     1      -8.559  -9.802  13.067  0.00  0.00    -0.308 N 
ATOM     16  C   UNL     1      -9.087  -9.424  14.298  0.00  0.00    +0.251 C 
ATOM     25  H   UNL     1      -7.620 -10.182  13.009  0.00  0.00    +0.149 HD
BRANCH  16  17
ATOM      1  S   UNL     1      -6.593 -10.147  15.232  0.00  0.00    -0.092 S 
ATOM     17  C   UNL     1      -8.199  -9.606  15.475  0.00  0.00    +0.074 A 
ATOM     20  C   UNL     1      -8.478  -9.396  16.808  0.00  0.00    +0.021 A 
ATOM     21  C   UNL     1      -7.358  -9.684  17.641  0.00  0.00    +0.008 A 
ATOM     22  C   UNL     1      -6.266 -10.103  16.912  0.00  0.00    +0.046 A 
ENDBRANCH  16  17
ENDBRANCH  13   6
ENDBRANCH  11  13
TORSDOF 7
ENDMDL
MODEL 7
REMARK VINA RESULT:      -4.4      2.475      6.568
REMARK  Name = 75536607
REMARK  7 active torsions:
REMARK  status: ('A' for Active; 'I' for Inactive)
REMARK    1  A    between atoms: O_3  and  C_10
REMARK    2  A    between atoms: N_5  and  C_9
REMARK    3  A    between atoms: N_5  and  C_14
REMARK    4  A    between atoms: N_6  and  C_13
REMARK    5  A    between atoms: C_11  and  C_13
REMARK    6  A    between atoms: C_14  and  C_15
REMARK    7  A    between atoms: C_16  and  C_17
REMARK                            x       y       z     vdW  Elec       q    Type
REMARK                         _______ _______ _______ _____ _____    ______ ____
ROOT
ATOM      2  O   UNL     1      -3.168  -2.109  24.267  0.00  0.00    -0.371 OA
ATOM      9  C   UNL     1      -0.881  -1.906  24.877  0.00  0.00    +0.111 C 
ATOM     10  C   UNL     1      -1.661  -0.758  25.491  0.00  0.00    +0.164 C 
ATOM     11  C   UNL     1      -3.077  -1.318  25.464  0.00  0.00    +0.165 C 
ATOM     12  C   UNL     1      -1.836  -2.371  23.790  0.00  0.00    +0.181 C 
ENDROOT
BRANCH  10   3
ATOM      3  O   UNL     1      -1.240  -0.454  26.808  0.00  0.00    -0.388 OA
ATOM     24  H   UNL     1      -1.723  -1.031  27.424  0.00  0.00    +0.210 HD
ENDBRANCH  10   3
BRANCH   9   5
ATOM      5  N   UNL     1       0.420  -1.516  24.359  0.00  0.00    -0.302 NA
ATOM     23  H   UNL     1       0.752  -2.236  23.716  0.00  0.00    +0.123 HD
BRANCH   5  14
ATOM     14  C   UNL     1       0.342  -0.246  23.648  0.00  0.00    +0.156 C 
BRANCH  14  15
ATOM      7  N   UNL     1       2.381   1.200  23.479  0.00  0.00    -0.347 N 
ATOM      8  N   UNL     1       2.264  -0.476  22.028  0.00  0.00    -0.240 NA
ATOM     15  C   UNL     1       1.661   0.131  23.027  0.00  0.00    +0.121 A 
ATOM     18  C   UNL     1       3.515   1.281  22.722  0.00  0.00    +0.104 A 
ATOM     19  C   UNL     1       3.421   0.236  21.834  0.00  0.00    +0.130 A 
ATOM     26  H   UNL     1       2.124   1.820  24.237  0.00  0.00    +0.167 HD
ENDBRANCH  14  15
ENDBRANCH   5  14
ENDBRANCH   9   5
BRANCH  11  13
ATOM     13  C   UNL     1      -4.148  -0.241  25.449  0.00  0.00    +0.138 C 
BRANCH  13   6
ATOM      4  O   UNL     1      -3.092   1.319  23.282  0.00  0.00    -0.270 OA
ATOM      6  N   UNL     1      -3.570   1.070  25.538  0.00  0.00    -0.308 N 
ATOM     16  C   UNL     1      -3.081   1.755  24.430  0.00  0.00    +0.251 C 
ATOM     25  H   UNL     1      -3.515   1.487  26.461  0.00  0.00    +0.149 HD
BRANCH  16  17
ATOM      1  S   UNL     1      -0.827   3.346  24.368  0.00  0.00    -0.092 S 
ATOM     17  C   UNL     1      -2.490   3.092  24.693  0.00  0.00    +0.074 A 
ATOM     20  C   UNL     1      -3.099   4.224  25.185  0.00  0.00    +0.021 A 
ATOM     21  C   UNL     1      -2.190   5.316  25.297  0.00  0.00    +0.008 A 
ATOM     22  C   UNL     1      -0.919   4.975  24.886  0.00  0.00    +0.046 A 
ENDBRANCH  16  17
ENDBRANCH  13   6
ENDBRANCH  11  13
TORSDOF 7
ENDMDL
MODEL 8
REMARK VINA RESULT:      -4.2      2.117      4.275
REMARK  Name = 75536607
REMARK  7 active torsions:
REMARK  status: ('A' for Active; 'I' for Inactive)
REMARK    1  A    between atoms: O_3  and  C_10
REMARK    2  A    between atoms: N_5  and  C_9
REMARK    3  A    between atoms: N_5  and  C_14
REMARK    4  A    between atoms: N_6  and  C_13
REMARK    5  A    between atoms: C_11  and  C_13
REMARK    6  A    between atoms: C_14  and  C_15
REMARK    7  A    between atoms: C_16  and  C_17
REMARK                            x       y       z     vdW  Elec       q    Type
REMARK                         _______ _______ _______ _____ _____    ______ ____
ROOT
ATOM      2  O   UNL     1      -3.159   4.333  23.767  0.00  0.00    -0.371 OA
ATOM      9  C   UNL     1      -4.546   3.225  25.346  0.00  0.00    +0.111 C 
ATOM     10  C   UNL     1      -3.179   3.457  25.964  0.00  0.00    +0.164 C 
ATOM     11  C   UNL     1      -2.648   4.583  25.087  0.00  0.00    +0.165 C 
ATOM     12  C   UNL     1      -4.239   3.387  23.866  0.00  0.00    +0.181 C 
ENDROOT
BRANCH  10   3
ATOM      3  O   UNL     1      -3.252   3.838  27.324  0.00  0.00    -0.388 OA
ATOM     24  H   UNL     1      -2.594   4.536  27.482  0.00  0.00    +0.210 HD
ENDBRANCH  10   3
BRANCH   9   5
ATOM      5  N   UNL     1      -5.119   1.928  25.667  0.00  0.00    -0.302 NA
ATOM     23  H   UNL     1      -6.082   2.058  25.980  0.00  0.00    +0.123 HD
BRANCH   5  14
ATOM     14  C   UNL     1      -5.115   1.051  24.503  0.00  0.00    +0.156 C 
BRANCH  14  15
ATOM      7  N   UNL     1      -4.332  -1.237  23.846  0.00  0.00    -0.347 N 
ATOM      8  N   UNL     1      -3.717  -0.549  25.866  0.00  0.00    -0.240 NA
ATOM     15  C   UNL     1      -4.377  -0.233  24.772  0.00  0.00    +0.121 A 
ATOM     18  C   UNL     1      -3.597  -2.257  24.381  0.00  0.00    +0.104 A 
ATOM     19  C   UNL     1      -3.228  -1.809  25.627  0.00  0.00    +0.130 A 
ATOM     26  H   UNL     1      -4.763  -1.229  22.931  0.00  0.00    +0.167 HD
ENDBRANCH  14  15
ENDBRANCH   5  14
ENDBRANCH   9   5
BRANCH  11  13
ATOM     13  C   UNL     1      -1.131   4.647  25.046  0.00  0.00    +0.138 C 
BRANCH  13   6
ATOM      4  O   UNL     1       0.384   2.497  26.197  0.00  0.00    -0.270 OA
ATOM      6  N   UNL     1      -0.581   3.519  24.352  0.00  0.00    -0.308 N 
ATOM     16  C   UNL     1       0.144   2.519  24.993  0.00  0.00    +0.251 C 
ATOM     25  H   UNL     1      -0.729   3.478  23.349  0.00  0.00    +0.149 HD
BRANCH  16  17
ATOM      1  S   UNL     1      -0.283   0.030  23.881  0.00  0.00    -0.092 S 
ATOM     17  C   UNL     1       0.669   1.432  24.128  0.00  0.00    +0.074 A 
ATOM     20  C   UNL     1       1.869   1.367  23.454  0.00  0.00    +0.021 A 
ATOM     21  C   UNL     1       2.008   0.151  22.725  0.00  0.00    +0.008 A 
ATOM     22  C   UNL     1       0.909  -0.668  22.870  0.00  0.00    +0.046 A 
ENDBRANCH  16  17
ENDBRANCH  13   6
ENDBRANCH  11  13
TORSDOF 7
ENDMDL
MODEL 9
REMARK VINA RESULT:      -3.5     15.810     17.997
REMARK  Name = 75536607
REMARK  7 active torsions:
REMARK  status: ('A' for Active; 'I' for Inactive)
REMARK    1  A    between atoms: O_3  and  C_10
REMARK    2  A    between atoms: N_5  and  C_9
REMARK    3  A    between atoms: N_5  and  C_14
REMARK    4  A    between atoms: N_6  and  C_13
REMARK    5  A    between atoms: C_11  and  C_13
REMARK    6  A    between atoms: C_14  and  C_15
REMARK    7  A    between atoms: C_16  and  C_17
REMARK                            x       y       z     vdW  Elec       q    Type
REMARK                         _______ _______ _______ _____ _____    ______ ____
ROOT
ATOM      2  O   UNL     1      -4.380  -8.354  10.672  0.00  0.00    -0.371 OA
ATOM      9  C   UNL     1      -6.443  -8.385   9.494  0.00  0.00    +0.111 C 
ATOM     10  C   UNL     1      -5.925  -9.805   9.623  0.00  0.00    +0.164 C 
ATOM     11  C   UNL     1      -4.963  -9.662  10.795  0.00  0.00    +0.165 C 
ATOM     12  C   UNL     1      -5.183  -7.579   9.762  0.00  0.00    +0.181 C 
ENDROOT
BRANCH  10   3
ATOM      3  O   UNL     1      -6.952 -10.739   9.895  0.00  0.00    -0.388 OA
ATOM     24  H   UNL     1      -7.183 -10.673  10.837  0.00  0.00    +0.210 HD
ENDBRANCH  10   3
BRANCH   9   5
ATOM      5  N   UNL     1      -7.035  -8.095   8.197  0.00  0.00    -0.302 NA
ATOM     23  H   UNL     1      -6.682  -8.765   7.513  0.00  0.00    +0.123 HD
BRANCH   5  14
ATOM     14  C   UNL     1      -8.488  -8.194   8.250  0.00  0.00    +0.156 C 
BRANCH  14  15
ATOM      7  N   UNL     1      -8.391  -5.704   8.514  0.00  0.00    -0.347 N 
ATOM      8  N   UNL     1     -10.426  -6.588   8.434  0.00  0.00    -0.240 NA
ATOM     15  C   UNL     1      -9.137  -6.844   8.398  0.00  0.00    +0.121 A 
ATOM     18  C   UNL     1      -9.259  -4.656   8.632  0.00  0.00    +0.104 A 
ATOM     19  C   UNL     1     -10.509  -5.226   8.579  0.00  0.00    +0.130 A 
ATOM     26  H   UNL     1      -7.381  -5.645   8.514  0.00  0.00    +0.167 HD
ENDBRANCH  14  15
ENDBRANCH   5  14
ENDBRANCH   9   5
BRANCH  11  13
ATOM     13  C   UNL     1      -3.868 -10.713  10.804  0.00  0.00    +0.138 C 
BRANCH  13   6
ATOM      4  O   UNL     1      -4.988 -10.781  13.447  0.00  0.00    -0.270 OA
ATOM      6  N   UNL     1      -3.143 -10.700  12.042  0.00  0.00    -0.308 N 
ATOM     16  C   UNL     1      -3.772 -10.736  13.283  0.00  0.00    +0.251 C 
ATOM     25  H   UNL     1      -2.132 -10.649  11.984  0.00  0.00    +0.149 HD
BRANCH  16  17
ATOM      1  S   UNL     1      -3.578 -10.665  16.035  0.00  0.00    -0.092 S 
ATOM     17  C   UNL     1      -2.881 -10.689  14.471  0.00  0.00    +0.074 A 
ATOM     20  C   UNL     1      -1.504 -10.661  14.518  0.00  0.00    +0.021 A 
ATOM     21  C   UNL     1      -1.016 -10.619  15.856  0.00  0.00    +0.008 A 
ATOM     22  C   UNL     1      -2.037 -10.617  16.781  0.00  0.00    +0.046 A 
ENDBRANCH  16  17
ENDBRANCH  13   6
ENDBRANCH  11  13
TORSDOF 7
ENDMDL
MODEL 10
REMARK VINA RESULT:      -3.5      3.135      5.312
REMARK  Name = 75536607
REMARK  7 active torsions:
REMARK  status: ('A' for Active; 'I' for Inactive)
REMARK    1  A    between atoms: O_3  and  C_10
REMARK    2  A    between atoms: N_5  and  C_9
REMARK    3  A    between atoms: N_5  and  C_14
REMARK    4  A    between atoms: N_6  and  C_13
REMARK    5  A    between atoms: C_11  and  C_13
REMARK    6  A    between atoms: C_14  and  C_15
REMARK    7  A    between atoms: C_16  and  C_17
REMARK                            x       y       z     vdW  Elec       q    Type
REMARK                         _______ _______ _______ _____ _____    ______ ____
ROOT
ATOM      2  O   UNL     1      -0.777  -0.108  25.505  0.00  0.00    -0.371 OA
ATOM      9  C   UNL     1      -3.009  -0.892  25.724  0.00  0.00    +0.111 C 
ATOM     10  C   UNL     1      -2.494  -1.245  24.341  0.00  0.00    +0.164 C 
ATOM     11  C   UNL     1      -0.988  -1.171  24.561  0.00  0.00    +0.165 C 
ATOM     12  C   UNL     1      -2.032   0.195  26.141  0.00  0.00    +0.181 C 
ENDROOT
BRANCH  10   3
ATOM      3  O   UNL     1      -2.902  -2.532  23.917  0.00  0.00    -0.388 OA
ATOM     24  H   UNL     1      -2.107  -3.065  23.749  0.00  0.00    +0.210 HD
ENDBRANCH  10   3
BRANCH   9   5
ATOM      5  N   UNL     1      -4.392  -0.444  25.734  0.00  0.00    -0.302 NA
ATOM     23  H   UNL     1      -4.543   0.154  26.548  0.00  0.00    +0.123 HD
BRANCH   5  14
ATOM     14  C   UNL     1      -4.708   0.311  24.528  0.00  0.00    +0.156 C 
BRANCH  14  15
ATOM      7  N   UNL     1      -3.778   2.602  24.116  0.00  0.00    -0.347 N 
ATOM      8  N   UNL     1      -5.429   2.482  25.596  0.00  0.00    -0.240 NA
ATOM     15  C   UNL     1      -4.666   1.797  24.772  0.00  0.00    +0.121 A 
ATOM     18  C   UNL     1      -3.986   3.881  24.548  0.00  0.00    +0.104 A 
ATOM     19  C   UNL     1      -5.009   3.782  25.460  0.00  0.00    +0.130 A 
ATOM     26  H   UNL     1      -3.091   2.307  23.434  0.00  0.00    +0.167 HD
ENDBRANCH  14  15
ENDBRANCH   5  14
ENDBRANCH   9   5
BRANCH  11  13
ATOM     13  C   UNL     1      -0.209  -0.890  23.288  0.00  0.00    +0.138 C 
BRANCH  13   6
ATOM      4  O   UNL     1       1.833  -0.217  21.386  0.00  0.00    -0.270 OA
ATOM      6  N   UNL     1       1.177  -0.650  23.569  0.00  0.00    -0.308 N 
ATOM     16  C   UNL     1       2.101  -0.327  22.580  0.00  0.00    +0.251 C 
ATOM     25  H   UNL     1       1.473  -0.737  24.535  0.00  0.00    +0.149 HD
BRANCH  16  17
ATOM      1  S   UNL     1       4.318  -1.432  23.795  0.00  0.00    -0.092 S 
ATOM     17  C   UNL     1       3.504  -0.135  23.030  0.00  0.00    +0.074 A 
ATOM     20  C   UNL     1       4.300   0.984  22.923  0.00  0.00    +0.021 A 
ATOM     21  C   UNL     1       5.595   0.774  23.477  0.00  0.00    +0.008 A 
ATOM     22  C   UNL     1       5.740  -0.498  23.987  0.00  0.00    +0.046 A 
ENDBRANCH  16  17
ENDBRANCH  13   6
ENDBRANCH  11  13
TORSDOF 7
ENDMDL
