MODEL 1
REMARK VINA RESULT:      -2.2      0.000      0.000
REMARK  Name = 75536331
REMARK  11 active torsions:
REMARK  status: ('A' for Active; 'I' for Inactive)
REMARK    1  A    between atoms: O_2  and  C_12
REMARK    2  A    between atoms: O_5  and  C_21
REMARK    3  A    between atoms: O_5  and  C_25
REMARK    4  A    between atoms: O_6  and  C_28
REMARK    5  A    between atoms: O_6  and  C_34
REMARK    6  A    between atoms: N_7  and  C_16
REMARK    7  A    between atoms: N_9  and  C_22
REMARK    8  A    between atoms: C_10  and  C_15
REMARK    9  A    between atoms: C_11  and  C_16
REMARK   10  A    between atoms: C_15  and  C_17
REMARK   11  A    between atoms: C_20  and  C_21
REMARK                            x       y       z     vdW  Elec       q    Type
REMARK                         _______ _______ _______ _____ _____    ______ ____
ROOT
ATOM      1  O   UNL     1       8.728  -8.584  31.762  0.00  0.00    -0.369 OA
ATOM     10  C   UNL     1       8.208  -9.369  32.837  0.00  0.00    +0.125 C 
ATOM     11  C   UNL     1       8.301  -7.216  31.744  0.00  0.00    +0.164 C 
ATOM     12  C   UNL     1       6.769  -7.109  31.739  0.00  0.00    +0.145 C 
ATOM     13  C   UNL     1       6.680  -9.388  32.801  0.00  0.00    +0.034 C 
ATOM     14  C   UNL     1       6.125  -7.967  32.826  0.00  0.00    +0.036 C 
ENDROOT
BRANCH  12   2
ATOM      2  O   UNL     1       6.279  -7.565  30.476  0.00  0.00    -0.389 OA
ATOM     35  H   UNL     1       6.466  -8.518  30.415  0.00  0.00    +0.210 HD
ENDBRANCH  12   2
BRANCH  10  15
ATOM     15  C   UNL     1       8.771 -10.778  32.690  0.00  0.00    +0.090 C 
BRANCH  15  17
ATOM      3  O   UNL     1      11.463 -10.772  30.293  0.00  0.00    -0.356 OA
ATOM      8  N   UNL     1      10.114 -10.772  30.629  0.00  0.00    -0.083 NA
ATOM     17  C   UNL     1      10.089 -10.778  31.964  0.00  0.00    +0.086 A 
ATOM     18  C   UNL     1      11.380 -10.781  32.521  0.00  0.00    +0.074 A 
ATOM     20  C   UNL     1      12.206 -10.777  31.429  0.00  0.00    +0.175 A 
BRANCH  20  21
ATOM     21  C   UNL     1      13.664 -10.777  31.258  0.00  0.00    +0.306 C 
BRANCH  21   5
ATOM      5  O   UNL     1      14.109  -9.500  30.788  0.00  0.00    -0.484 OA
BRANCH   5  25
ATOM     25  C   UNL     1      14.648  -9.467  29.534  0.00  0.00    +0.121 A 
ATOM     29  C   UNL     1      15.343  -8.337  29.103  0.00  0.00    +0.045 A 
ATOM     30  C   UNL     1      14.502 -10.562  28.683  0.00  0.00    +0.045 A 
ATOM     31  C   UNL     1      15.893  -8.303  27.821  0.00  0.00    +0.004 A 
ATOM     32  C   UNL     1      15.051 -10.528  27.401  0.00  0.00    +0.004 A 
ATOM     33  C   UNL     1      15.747  -9.398  26.970  0.00  0.00    +0.000 A 
ENDBRANCH   5  25
ENDBRANCH  21   5
ENDBRANCH  20  21
ENDBRANCH  15  17
ENDBRANCH  10  15
BRANCH  11  16
ATOM     16  C   UNL     1       8.950  -6.420  32.873  0.00  0.00    +0.140 C 
BRANCH  16   7
ATOM      4  O   UNL     1      10.845  -4.512  31.886  0.00  0.00    -0.253 OA
ATOM      7  N   UNL     1      10.374  -6.563  32.847  0.00  0.00    -0.297 N 
ATOM      9  N   UNL     1      12.575  -5.995  32.449  0.00  0.00    -0.269 N 
ATOM     19  C   UNL     1      11.245  -5.579  32.345  0.00  0.00    +0.304 C 
ATOM     36  H   UNL     1      10.774  -7.440  33.165  0.00  0.00    +0.150 HD
ATOM     37  H   UNL     1      12.734  -6.913  32.856  0.00  0.00    +0.156 HD
BRANCH   9  22
ATOM     22  C   UNL     1      13.738  -5.292  32.056  0.00  0.00    +0.035 A 
ATOM     23  C   UNL     1      14.253  -4.284  32.872  0.00  0.00    +0.027 A 
ATOM     24  C   UNL     1      14.370  -5.607  30.853  0.00  0.00    +0.027 A 
ATOM     26  C   UNL     1      15.400  -3.592  32.483  0.00  0.00    +0.047 A 
ATOM     27  C   UNL     1      15.516  -4.915  30.465  0.00  0.00    +0.047 A 
ATOM     28  C   UNL     1      16.031  -3.906  31.280  0.00  0.00    +0.120 A 
BRANCH  28   6
ATOM      6  O   UNL     1      17.150  -3.231  30.902  0.00  0.00    -0.495 OA
ATOM     34  C   UNL     1      16.981  -2.167  29.966  0.00  0.00    +0.277 C 
ENDBRANCH  28   6
ENDBRANCH   9  22
ENDBRANCH  16   7
ENDBRANCH  11  16
TORSDOF 10
ENDMDL
MODEL 2
REMARK VINA RESULT:      -0.4     14.180     17.824
REMARK  Name = 75536331
REMARK  11 active torsions:
REMARK  status: ('A' for Active; 'I' for Inactive)
REMARK    1  A    between atoms: O_2  and  C_12
REMARK    2  A    between atoms: O_5  and  C_21
REMARK    3  A    between atoms: O_5  and  C_25
REMARK    4  A    between atoms: O_6  and  C_28
REMARK    5  A    between atoms: O_6  and  C_34
REMARK    6  A    between atoms: N_7  and  C_16
REMARK    7  A    between atoms: N_9  and  C_22
REMARK    8  A    between atoms: C_10  and  C_15
REMARK    9  A    between atoms: C_11  and  C_16
REMARK   10  A    between atoms: C_15  and  C_17
REMARK   11  A    between atoms: C_20  and  C_21
REMARK                            x       y       z     vdW  Elec       q    Type
REMARK                         _______ _______ _______ _____ _____    ______ ____
ROOT
ATOM      1  O   UNL     1      -3.090   0.441  24.738  0.00  0.00    -0.369 OA
ATOM     10  C   UNL     1      -3.939  -0.562  24.177  0.00  0.00    +0.125 C 
ATOM     11  C   UNL     1      -1.687   0.251  24.508  0.00  0.00    +0.164 C 
ATOM     12  C   UNL     1      -1.222  -1.126  25.002  0.00  0.00    +0.145 C 
ATOM     13  C   UNL     1      -3.586  -1.941  24.734  0.00  0.00    +0.034 C 
ATOM     14  C   UNL     1      -2.112  -2.257  24.493  0.00  0.00    +0.036 C 
ENDROOT
BRANCH  12   2
ATOM      2  O   UNL     1      -1.269  -1.143  26.431  0.00  0.00    -0.389 OA
ATOM     35  H   UNL     1      -0.353  -1.112  26.755  0.00  0.00    +0.210 HD
ENDBRANCH  12   2
BRANCH  10  15
ATOM     15  C   UNL     1      -5.377  -0.191  24.521  0.00  0.00    +0.090 C 
BRANCH  15  17
ATOM      3  O   UNL     1      -6.063   2.785  26.435  0.00  0.00    -0.356 OA
ATOM      8  N   UNL     1      -6.185   1.421  26.194  0.00  0.00    -0.083 NA
ATOM     17  C   UNL     1      -5.473   1.201  25.086  0.00  0.00    +0.086 A 
ATOM     18  C   UNL     1      -4.883   2.376  24.588  0.00  0.00    +0.074 A 
ATOM     20  C   UNL     1      -5.284   3.342  25.472  0.00  0.00    +0.175 A 
BRANCH  20  21
ATOM     21  C   UNL     1      -5.048   4.787  25.575  0.00  0.00    +0.306 C 
BRANCH  21   5
ATOM      5  O   UNL     1      -3.943   5.049  26.445  0.00  0.00    -0.484 OA
BRANCH   5  25
ATOM     25  C   UNL     1      -2.710   4.667  25.995  0.00  0.00    +0.121 A 
ATOM     29  C   UNL     1      -2.155   3.460  26.421  0.00  0.00    +0.045 A 
ATOM     30  C   UNL     1      -2.007   5.484  25.111  0.00  0.00    +0.045 A 
ATOM     31  C   UNL     1      -0.897   3.071  25.961  0.00  0.00    +0.004 A 
ATOM     32  C   UNL     1      -0.748   5.096  24.653  0.00  0.00    +0.004 A 
ATOM     33  C   UNL     1      -0.193   3.889  25.078  0.00  0.00    +0.000 A 
ENDBRANCH   5  25
ENDBRANCH  21   5
ENDBRANCH  20  21
ENDBRANCH  15  17
ENDBRANCH  10  15
BRANCH  11  16
ATOM     16  C   UNL     1      -1.328   0.513  23.048  0.00  0.00    +0.140 C 
BRANCH  16   7
ATOM      4  O   UNL     1       1.231   1.182  24.146  0.00  0.00    -0.253 OA
ATOM      7  N   UNL     1      -0.071  -0.084  22.713  0.00  0.00    -0.297 N 
ATOM      9  N   UNL     1       2.205  -0.457  22.776  0.00  0.00    -0.269 N 
ATOM     19  C   UNL     1       1.150   0.298  23.296  0.00  0.00    +0.304 C 
ATOM     36  H   UNL     1      -0.054  -0.788  21.982  0.00  0.00    +0.150 HD
ATOM     37  H   UNL     1       1.964  -1.153  22.075  0.00  0.00    +0.156 HD
BRANCH   9  22
ATOM     22  C   UNL     1       3.578  -0.373  23.105  0.00  0.00    +0.035 A 
ATOM     23  C   UNL     1       4.303   0.776  22.788  0.00  0.00    +0.027 A 
ATOM     24  C   UNL     1       4.207  -1.440  23.747  0.00  0.00    +0.027 A 
ATOM     26  C   UNL     1       5.656   0.858  23.114  0.00  0.00    +0.047 A 
ATOM     27  C   UNL     1       5.561  -1.357  24.072  0.00  0.00    +0.047 A 
ATOM     28  C   UNL     1       6.286  -0.209  23.754  0.00  0.00    +0.120 A 
BRANCH  28   6
ATOM      6  O   UNL     1       7.607  -0.128  24.072  0.00  0.00    -0.495 OA
ATOM     34  C   UNL     1       8.541  -0.278  23.004  0.00  0.00    +0.277 C 
ENDBRANCH  28   6
ENDBRANCH   9  22
ENDBRANCH  16   7
ENDBRANCH  11  16
TORSDOF 10
ENDMDL
MODEL 3
REMARK VINA RESULT:       1.6     14.249     18.117
REMARK  Name = 75536331
REMARK  11 active torsions:
REMARK  status: ('A' for Active; 'I' for Inactive)
REMARK    1  A    between atoms: O_2  and  C_12
REMARK    2  A    between atoms: O_5  and  C_21
REMARK    3  A    between atoms: O_5  and  C_25
REMARK    4  A    between atoms: O_6  and  C_28
REMARK    5  A    between atoms: O_6  and  C_34
REMARK    6  A    between atoms: N_7  and  C_16
REMARK    7  A    between atoms: N_9  and  C_22
REMARK    8  A    between atoms: C_10  and  C_15
REMARK    9  A    between atoms: C_11  and  C_16
REMARK   10  A    between atoms: C_15  and  C_17
REMARK   11  A    between atoms: C_20  and  C_21
REMARK                            x       y       z     vdW  Elec       q    Type
REMARK                         _______ _______ _______ _____ _____    ______ ____
ROOT
ATOM      1  O   UNL     1      -2.359   4.162  26.383  0.00  0.00    -0.369 OA
ATOM     10  C   UNL     1      -1.728   3.342  25.397  0.00  0.00    +0.125 C 
ATOM     11  C   UNL     1      -3.230   5.176  25.866  0.00  0.00    +0.164 C 
ATOM     12  C   UNL     1      -2.501   6.081  24.863  0.00  0.00    +0.145 C 
ATOM     13  C   UNL     1      -0.891   4.194  24.442  0.00  0.00    +0.034 C 
ATOM     14  C   UNL     1      -1.749   5.282  23.801  0.00  0.00    +0.036 C 
ENDROOT
BRANCH  12   2
ATOM      2  O   UNL     1      -1.546   6.875  25.569  0.00  0.00    -0.389 OA
ATOM     35  H   UNL     1      -1.284   7.608  24.986  0.00  0.00    +0.210 HD
ENDBRANCH  12   2
BRANCH  10  15
ATOM     15  C   UNL     1      -0.852   2.333  26.130  0.00  0.00    +0.090 C 
BRANCH  15  17
ATOM      3  O   UNL     1      -0.150  -0.816  24.523  0.00  0.00    -0.356 OA
ATOM      8  N   UNL     1      -0.677  -0.053  25.559  0.00  0.00    -0.083 NA
ATOM     17  C   UNL     1      -0.416   1.213  25.224  0.00  0.00    +0.086 A 
ATOM     18  C   UNL     1       0.266   1.311  23.999  0.00  0.00    +0.074 A 
ATOM     20  C   UNL     1       0.408   0.009  23.600  0.00  0.00    +0.175 A 
BRANCH  20  21
ATOM     21  C   UNL     1       1.016  -0.635  22.429  0.00  0.00    +0.306 C 
BRANCH  21   5
ATOM      5  O   UNL     1       2.164   0.101  21.997  0.00  0.00    -0.484 OA
BRANCH   5  25
ATOM     25  C   UNL     1       3.312  -0.086  22.714  0.00  0.00    +0.121 A 
ATOM     29  C   UNL     1       3.570  -1.323  23.306  0.00  0.00    +0.045 A 
ATOM     30  C   UNL     1       4.224   0.958  22.857  0.00  0.00    +0.045 A 
ATOM     31  C   UNL     1       4.742  -1.514  24.039  0.00  0.00    +0.004 A 
ATOM     32  C   UNL     1       5.395   0.768  23.590  0.00  0.00    +0.004 A 
ATOM     33  C   UNL     1       5.654  -0.469  24.181  0.00  0.00    +0.000 A 
ENDBRANCH   5  25
ENDBRANCH  21   5
ENDBRANCH  20  21
ENDBRANCH  15  17
ENDBRANCH  10  15
BRANCH  11  16
ATOM     16  C   UNL     1      -4.510   4.567  25.299  0.00  0.00    +0.140 C 
BRANCH  16   7
ATOM      4  O   UNL     1      -3.673   2.250  23.837  0.00  0.00    -0.253 OA
ATOM      7  N   UNL     1      -4.651   3.201  25.705  0.00  0.00    -0.297 N 
ATOM      9  N   UNL     1      -4.485   0.903  25.580  0.00  0.00    -0.269 N 
ATOM     19  C   UNL     1      -4.215   2.111  24.931  0.00  0.00    +0.304 C 
ATOM     36  H   UNL     1      -5.135   3.008  26.576  0.00  0.00    +0.150 HD
ATOM     37  H   UNL     1      -4.942   0.966  26.486  0.00  0.00    +0.156 HD
BRANCH   9  22
ATOM     22  C   UNL     1      -4.201  -0.407  25.129  0.00  0.00    +0.035 A 
ATOM     23  C   UNL     1      -3.480  -1.283  25.942  0.00  0.00    +0.027 A 
ATOM     24  C   UNL     1      -4.641  -0.823  23.873  0.00  0.00    +0.027 A 
ATOM     26  C   UNL     1      -3.201  -2.575  25.497  0.00  0.00    +0.047 A 
ATOM     27  C   UNL     1      -4.361  -2.115  23.428  0.00  0.00    +0.047 A 
ATOM     28  C   UNL     1      -3.640  -2.991  24.240  0.00  0.00    +0.120 A 
BRANCH  28   6
ATOM      6  O   UNL     1      -3.367  -4.251  23.807  0.00  0.00    -0.495 OA
ATOM     34  C   UNL     1      -2.157  -4.438  23.074  0.00  0.00    +0.277 C 
ENDBRANCH  28   6
ENDBRANCH   9  22
ENDBRANCH  16   7
ENDBRANCH  11  16
TORSDOF 10
ENDMDL
MODEL 4
REMARK VINA RESULT:       1.7     13.817     17.345
REMARK  Name = 75536331
REMARK  11 active torsions:
REMARK  status: ('A' for Active; 'I' for Inactive)
REMARK    1  A    between atoms: O_2  and  C_12
REMARK    2  A    between atoms: O_5  and  C_21
REMARK    3  A    between atoms: O_5  and  C_25
REMARK    4  A    between atoms: O_6  and  C_28
REMARK    5  A    between atoms: O_6  and  C_34
REMARK    6  A    between atoms: N_7  and  C_16
REMARK    7  A    between atoms: N_9  and  C_22
REMARK    8  A    between atoms: C_10  and  C_15
REMARK    9  A    between atoms: C_11  and  C_16
REMARK   10  A    between atoms: C_15  and  C_17
REMARK   11  A    between atoms: C_20  and  C_21
REMARK                            x       y       z     vdW  Elec       q    Type
REMARK                         _______ _______ _______ _____ _____    ______ ____
ROOT
ATOM      1  O   UNL     1      -2.407   0.235  24.386  0.00  0.00    -0.369 OA
ATOM     10  C   UNL     1      -3.130  -0.903  23.913  0.00  0.00    +0.125 C 
ATOM     11  C   UNL     1      -0.983   0.077  24.429  0.00  0.00    +0.164 C 
ATOM     12  C   UNL     1      -0.582  -1.147  25.264  0.00  0.00    +0.145 C 
ATOM     13  C   UNL     1      -2.851  -2.123  24.790  0.00  0.00    +0.034 C 
ATOM     14  C   UNL     1      -1.352  -2.402  24.861  0.00  0.00    +0.036 C 
ENDROOT
BRANCH  12   2
ATOM      2  O   UNL     1      -0.869  -0.882  26.639  0.00  0.00    -0.389 OA
ATOM     35  H   UNL     1      -1.214   0.026  26.698  0.00  0.00    +0.210 HD
ENDBRANCH  12   2
BRANCH  10  15
ATOM     15  C   UNL     1      -4.612  -0.548  23.936  0.00  0.00    +0.090 C 
BRANCH  15  17
ATOM      3  O   UNL     1      -5.604   2.179  26.076  0.00  0.00    -0.356 OA
ATOM      8  N   UNL     1      -5.576   0.832  25.730  0.00  0.00    -0.083 NA
ATOM     17  C   UNL     1      -4.856   0.778  24.607  0.00  0.00    +0.086 A 
ATOM     18  C   UNL     1      -4.406   2.046  24.200  0.00  0.00    +0.074 A 
ATOM     20  C   UNL     1      -4.903   2.891  25.156  0.00  0.00    +0.175 A 
BRANCH  20  21
ATOM     21  C   UNL     1      -4.828   4.341  25.369  0.00  0.00    +0.306 C 
BRANCH  21   5
ATOM      5  O   UNL     1      -3.772   4.655  26.282  0.00  0.00    -0.484 OA
BRANCH   5  25
ATOM     25  C   UNL     1      -2.504   4.352  25.873  0.00  0.00    +0.121 A 
ATOM     29  C   UNL     1      -1.878   3.196  26.340  0.00  0.00    +0.045 A 
ATOM     30  C   UNL     1      -1.834   5.199  24.991  0.00  0.00    +0.045 A 
ATOM     31  C   UNL     1      -0.583   2.888  25.923  0.00  0.00    +0.004 A 
ATOM     32  C   UNL     1      -0.540   4.892  24.575  0.00  0.00    +0.004 A 
ATOM     33  C   UNL     1       0.087   3.735  25.041  0.00  0.00    +0.000 A 
ENDBRANCH   5  25
ENDBRANCH  21   5
ENDBRANCH  20  21
ENDBRANCH  15  17
ENDBRANCH  10  15
BRANCH  11  16
ATOM     16  C   UNL     1      -0.387   0.062  23.024  0.00  0.00    +0.140 C 
BRANCH  16   7
ATOM      4  O   UNL     1       2.127   1.391  23.366  0.00  0.00    -0.253 OA
ATOM      7  N   UNL     1       0.909  -0.545  23.023  0.00  0.00    -0.297 N 
ATOM      9  N   UNL     1       3.209  -0.680  23.149  0.00  0.00    -0.269 N 
ATOM     19  C   UNL     1       2.105   0.175  23.197  0.00  0.00    +0.304 C 
ATOM     36  H   UNL     1       0.972  -1.542  22.839  0.00  0.00    +0.150 HD
ATOM     37  H   UNL     1       3.015  -1.668  23.002  0.00  0.00    +0.156 HD
BRANCH   9  22
ATOM     22  C   UNL     1       4.576  -0.341  23.282  0.00  0.00    +0.035 A 
ATOM     23  C   UNL     1       5.545  -1.064  22.585  0.00  0.00    +0.027 A 
ATOM     24  C   UNL     1       4.955   0.716  24.109  0.00  0.00    +0.027 A 
ATOM     26  C   UNL     1       6.892  -0.729  22.716  0.00  0.00    +0.047 A 
ATOM     27  C   UNL     1       6.303   1.050  24.240  0.00  0.00    +0.047 A 
ATOM     28  C   UNL     1       7.271   0.328  23.544  0.00  0.00    +0.120 A 
BRANCH  28   6
ATOM      6  O   UNL     1       8.586   0.654  23.672  0.00  0.00    -0.495 OA
ATOM     34  C   UNL     1       9.531  -0.185  23.009  0.00  0.00    +0.277 C 
ENDBRANCH  28   6
ENDBRANCH   9  22
ENDBRANCH  16   7
ENDBRANCH  11  16
TORSDOF 10
ENDMDL
