MODEL 1
REMARK VINA RESULT:       9.6      0.000      0.000
REMARK  Name = 7051763
REMARK  3 active torsions:
REMARK  status: ('A' for Active; 'I' for Inactive)
REMARK    1  A    between atoms: C_14  and  C_19
REMARK    2  A    between atoms: C_16  and  C_20
REMARK    3  A    between atoms: C_29  and  C_30
REMARK                            x       y       z     vdW  Elec       q    Type
REMARK                         _______ _______ _______ _____ _____    ______ ____
ROOT
ATOM      1  O   UNL     1      -1.718   3.767  28.498  0.00  0.00    -0.268 OA
ATOM      2  O   UNL     1      -5.566   2.450  25.462  0.00  0.00    -0.270 OA
ATOM      3  N   UNL     1      -3.781   3.006  24.058  0.00  0.00    -0.297 N 
ATOM      4  N   UNL     1      -1.508   3.581  26.173  0.00  0.00    -0.311 N 
ATOM      7  C   UNL     1      -2.723   5.189  24.583  0.00  0.00    +0.027 C 
ATOM      8  C   UNL     1      -1.351   3.360  23.674  0.00  0.00    +0.054 C 
ATOM      9  C   UNL     1      -1.585   4.870  23.626  0.00  0.00    +0.018 C 
ATOM     10  C   UNL     1      -4.004   4.446  24.168  0.00  0.00    +0.113 C 
ATOM     11  C   UNL     1      -2.281   4.821  26.002  0.00  0.00    +0.130 C 
ATOM     12  C   UNL     1      -2.633   2.625  23.224  0.00  0.00    +0.117 C 
ATOM     13  C   UNL     1      -0.947   2.896  25.075  0.00  0.00    +0.034 A 
ATOM     14  C   UNL     1      -0.111   1.848  25.288  0.00  0.00    +0.004 A 
ATOM     15  C   UNL     1      -1.267   3.198  27.504  0.00  0.00    +0.252 A 
ATOM     16  C   UNL     1      -4.605   2.127  24.766  0.00  0.00    +0.247 C 
ATOM     17  C   UNL     1       0.158   1.421  26.648  0.00  0.00    +0.015 A 
ATOM     18  C   UNL     1      -0.383   2.027  27.705  0.00  0.00    +0.071 A 
ENDROOT
BRANCH  14  19
ATOM      5  N   UNL     1       2.428   0.806  22.730  0.00  0.00    -0.263 NA
ATOM     19  C   UNL     1       0.520   1.115  24.169  0.00  0.00    +0.002 A 
ATOM     21  C   UNL     1      -0.156   0.094  23.520  0.00  0.00    +0.011 A 
ATOM     22  C   UNL     1       1.795   1.435  23.745  0.00  0.00    +0.119 A 
ATOM     25  C   UNL     1       0.463  -0.576  22.471  0.00  0.00    +0.020 A 
ATOM     28  C   UNL     1       1.744  -0.185  22.118  0.00  0.00    +0.111 A 
ENDBRANCH  14  19
BRANCH  16  20
ATOM     20  C   UNL     1      -4.305   0.692  24.701  0.00  0.00    +0.037 A 
ATOM     23  C   UNL     1      -4.672  -0.043  23.577  0.00  0.00    +0.014 A 
ATOM     24  C   UNL     1      -3.655   0.072  25.764  0.00  0.00    +0.014 A 
ATOM     26  C   UNL     1      -4.386  -1.407  23.515  0.00  0.00    +0.019 A 
ATOM     27  C   UNL     1      -3.368  -1.292  25.702  0.00  0.00    +0.019 A 
ATOM     29  C   UNL     1      -3.734  -2.031  24.577  0.00  0.00    +0.052 A 
BRANCH  29  30
ATOM      6  N   UNL     1      -3.206  -4.565  24.465  0.00  0.00    -0.191 NA
ATOM     30  C   UNL     1      -3.443  -3.429  24.515  0.00  0.00    +0.099 C 
ENDBRANCH  29  30
ENDBRANCH  16  20
TORSDOF 3
ENDMDL
MODEL 2
REMARK VINA RESULT:       9.9      2.489      5.627
REMARK  Name = 7051763
REMARK  3 active torsions:
REMARK  status: ('A' for Active; 'I' for Inactive)
REMARK    1  A    between atoms: C_14  and  C_19
REMARK    2  A    between atoms: C_16  and  C_20
REMARK    3  A    between atoms: C_29  and  C_30
REMARK                            x       y       z     vdW  Elec       q    Type
REMARK                         _______ _______ _______ _____ _____    ______ ____
ROOT
ATOM      1  O   UNL     1       0.315   0.035  21.614  0.00  0.00    -0.268 OA
ATOM      2  O   UNL     1      -4.309  -1.330  23.199  0.00  0.00    -0.270 OA
ATOM      3  N   UNL     1      -2.923  -1.395  25.080  0.00  0.00    -0.297 N 
ATOM      4  N   UNL     1      -0.210  -0.330  23.867  0.00  0.00    -0.311 N 
ATOM      7  C   UNL     1      -0.817  -2.664  24.743  0.00  0.00    +0.027 C 
ATOM      8  C   UNL     1      -0.841  -0.732  26.267  0.00  0.00    +0.054 C 
ATOM      9  C   UNL     1      -0.288  -2.144  26.070  0.00  0.00    +0.018 C 
ATOM     10  C   UNL     1      -2.355  -2.700  24.749  0.00  0.00    +0.113 C 
ATOM     11  C   UNL     1      -0.269  -1.778  23.621  0.00  0.00    +0.130 C 
ATOM     12  C   UNL     1      -2.384  -0.783  26.304  0.00  0.00    +0.117 C 
ATOM     13  C   UNL     1      -0.377   0.214  25.157  0.00  0.00    +0.034 A 
ATOM     14  C   UNL     1      -0.159   1.538  25.367  0.00  0.00    +0.004 A 
ATOM     15  C   UNL     1       0.143   0.458  22.757  0.00  0.00    +0.252 A 
ATOM     16  C   UNL     1      -3.860  -0.814  24.222  0.00  0.00    +0.247 C 
ATOM     17  C   UNL     1       0.202   2.383  24.244  0.00  0.00    +0.015 A 
ATOM     18  C   UNL     1       0.335   1.905  23.007  0.00  0.00    +0.071 A 
ENDROOT
BRANCH  14  19
ATOM      5  N   UNL     1       0.650   2.568  28.883  0.00  0.00    -0.263 NA
ATOM     19  C   UNL     1      -0.297   2.148  26.707  0.00  0.00    +0.002 A 
ATOM     21  C   UNL     1      -1.446   2.842  27.054  0.00  0.00    +0.011 A 
ATOM     22  C   UNL     1       0.713   2.037  27.641  0.00  0.00    +0.119 A 
ATOM     25  C   UNL     1      -1.547   3.404  28.322  0.00  0.00    +0.020 A 
ATOM     28  C   UNL     1      -0.481   3.240  29.191  0.00  0.00    +0.111 A 
ENDBRANCH  14  19
BRANCH  16  20
ATOM     20  C   UNL     1      -4.351   0.532  24.538  0.00  0.00    +0.037 A 
ATOM     23  C   UNL     1      -5.486   0.687  25.328  0.00  0.00    +0.014 A 
ATOM     24  C   UNL     1      -3.678   1.647  24.048  0.00  0.00    +0.014 A 
ATOM     26  C   UNL     1      -5.952   1.968  25.629  0.00  0.00    +0.019 A 
ATOM     27  C   UNL     1      -4.143   2.927  24.349  0.00  0.00    +0.019 A 
ATOM     29  C   UNL     1      -5.280   3.087  25.140  0.00  0.00    +0.052 A 
BRANCH  29  30
ATOM      6  N   UNL     1      -6.149   5.463  25.697  0.00  0.00    -0.191 NA
ATOM     30  C   UNL     1      -5.759   4.398  25.448  0.00  0.00    +0.099 C 
ENDBRANCH  29  30
ENDBRANCH  16  20
TORSDOF 3
ENDMDL
MODEL 3
REMARK VINA RESULT:      10.5      1.875      5.219
REMARK  Name = 7051763
REMARK  3 active torsions:
REMARK  status: ('A' for Active; 'I' for Inactive)
REMARK    1  A    between atoms: C_14  and  C_19
REMARK    2  A    between atoms: C_16  and  C_20
REMARK    3  A    between atoms: C_29  and  C_30
REMARK                            x       y       z     vdW  Elec       q    Type
REMARK                         _______ _______ _______ _____ _____    ______ ____
ROOT
ATOM      1  O   UNL     1      -4.259   4.459  21.504  0.00  0.00    -0.268 OA
ATOM      2  O   UNL     1      -0.757   5.207  25.100  0.00  0.00    -0.270 OA
ATOM      3  N   UNL     1      -2.156   3.508  25.888  0.00  0.00    -0.297 N 
ATOM      4  N   UNL     1      -4.081   3.118  23.416  0.00  0.00    -0.311 N 
ATOM      7  C   UNL     1      -4.575   4.045  25.757  0.00  0.00    +0.027 C 
ATOM      8  C   UNL     1      -3.832   1.715  25.487  0.00  0.00    +0.054 C 
ATOM      9  C   UNL     1      -4.917   2.603  26.097  0.00  0.00    +0.018 C 
ATOM     10  C   UNL     1      -3.201   4.427  26.333  0.00  0.00    +0.113 C 
ATOM     11  C   UNL     1      -4.625   4.210  24.236  0.00  0.00    +0.130 C 
ATOM     12  C   UNL     1      -2.461   2.085  26.096  0.00  0.00    +0.117 C 
ATOM     13  C   UNL     1      -3.781   1.854  23.964  0.00  0.00    +0.034 A 
ATOM     14  C   UNL     1      -3.431   0.827  23.147  0.00  0.00    +0.004 A 
ATOM     15  C   UNL     1      -3.996   3.381  22.038  0.00  0.00    +0.252 A 
ATOM     16  C   UNL     1      -1.009   4.015  25.272  0.00  0.00    +0.247 C 
ATOM     17  C   UNL     1      -3.329   1.062  21.719  0.00  0.00    +0.015 A 
ATOM     18  C   UNL     1      -3.574   2.254  21.174  0.00  0.00    +0.071 A 
ENDROOT
BRANCH  14  19
ATOM      5  N   UNL     1      -1.501  -2.097  24.489  0.00  0.00    -0.263 NA
ATOM     19  C   UNL     1      -3.132  -0.522  23.674  0.00  0.00    +0.002 A 
ATOM     21  C   UNL     1      -4.144  -1.453  23.848  0.00  0.00    +0.011 A 
ATOM     22  C   UNL     1      -1.841  -0.882  24.004  0.00  0.00    +0.119 A 
ATOM     25  C   UNL     1      -3.833  -2.714  24.346  0.00  0.00    +0.020 A 
ATOM     28  C   UNL     1      -2.508  -2.983  24.648  0.00  0.00    +0.111 A 
ENDBRANCH  14  19
BRANCH  16  20
ATOM     20  C   UNL     1      -0.016   3.063  24.762  0.00  0.00    +0.037 A 
ATOM     23  C   UNL     1       0.116   1.812  25.360  0.00  0.00    +0.014 A 
ATOM     24  C   UNL     1       0.789   3.414  23.682  0.00  0.00    +0.014 A 
ATOM     26  C   UNL     1       1.060   0.907  24.874  0.00  0.00    +0.019 A 
ATOM     27  C   UNL     1       1.733   2.508  23.196  0.00  0.00    +0.019 A 
ATOM     29  C   UNL     1       1.867   1.255  23.792  0.00  0.00    +0.052 A 
BRANCH  29  30
ATOM      6  N   UNL     1       3.623  -0.425  22.894  0.00  0.00    -0.191 NA
ATOM     30  C   UNL     1       2.835   0.328  23.297  0.00  0.00    +0.099 C 
ENDBRANCH  29  30
ENDBRANCH  16  20
TORSDOF 3
ENDMDL
MODEL 4
REMARK VINA RESULT:      11.1      1.493      1.838
REMARK  Name = 7051763
REMARK  3 active torsions:
REMARK  status: ('A' for Active; 'I' for Inactive)
REMARK    1  A    between atoms: C_14  and  C_19
REMARK    2  A    between atoms: C_16  and  C_20
REMARK    3  A    between atoms: C_29  and  C_30
REMARK                            x       y       z     vdW  Elec       q    Type
REMARK                         _______ _______ _______ _____ _____    ______ ____
ROOT
ATOM      1  O   UNL     1      -2.505   4.052  27.339  0.00  0.00    -0.268 OA
ATOM      2  O   UNL     1      -5.198   0.365  25.126  0.00  0.00    -0.270 OA
ATOM      3  N   UNL     1      -3.778   1.220  23.479  0.00  0.00    -0.297 N 
ATOM      4  N   UNL     1      -2.113   3.319  25.150  0.00  0.00    -0.311 N 
ATOM      7  C   UNL     1      -3.831   3.694  23.281  0.00  0.00    +0.027 C 
ATOM      8  C   UNL     1      -1.742   2.481  22.809  0.00  0.00    +0.054 C 
ATOM      9  C   UNL     1      -2.622   3.649  22.360  0.00  0.00    +0.018 C 
ATOM     10  C   UNL     1      -4.624   2.378  23.199  0.00  0.00    +0.113 C 
ATOM     11  C   UNL     1      -3.347   3.983  24.704  0.00  0.00    +0.130 C 
ATOM     12  C   UNL     1      -2.537   1.162  22.692  0.00  0.00    +0.117 C 
ATOM     13  C   UNL     1      -1.249   2.668  24.245  0.00  0.00    +0.034 A 
ATOM     14  C   UNL     1      -0.046   2.205  24.673  0.00  0.00    +0.004 A 
ATOM     15  C   UNL     1      -1.796   3.482  26.510  0.00  0.00    +0.252 A 
ATOM     16  C   UNL     1      -4.159   0.313  24.470  0.00  0.00    +0.247 C 
ATOM     17  C   UNL     1       0.314   2.352  26.070  0.00  0.00    +0.015 A 
ATOM     18  C   UNL     1      -0.495   2.933  26.957  0.00  0.00    +0.071 A 
ENDROOT
BRANCH  14  19
ATOM      5  N   UNL     1       3.088   1.486  22.738  0.00  0.00    -0.263 NA
ATOM     19  C   UNL     1       0.903   1.539  23.754  0.00  0.00    +0.002 A 
ATOM     21  C   UNL     1       0.536   0.393  23.067  0.00  0.00    +0.011 A 
ATOM     22  C   UNL     1       2.174   2.045  23.562  0.00  0.00    +0.119 A 
ATOM     25  C   UNL     1       1.450  -0.211  22.210  0.00  0.00    +0.020 A 
ATOM     28  C   UNL     1       2.701   0.369  22.082  0.00  0.00    +0.111 A 
ENDBRANCH  14  19
BRANCH  16  20
ATOM     20  C   UNL     1      -3.249  -0.794  24.785  0.00  0.00    +0.037 A 
ATOM     23  C   UNL     1      -3.554  -2.084  24.360  0.00  0.00    +0.014 A 
ATOM     24  C   UNL     1      -2.084  -0.549  25.506  0.00  0.00    +0.014 A 
ATOM     26  C   UNL     1      -2.688  -3.137  24.659  0.00  0.00    +0.019 A 
ATOM     27  C   UNL     1      -1.217  -1.601  25.804  0.00  0.00    +0.019 A 
ATOM     29  C   UNL     1      -1.520  -2.895  25.381  0.00  0.00    +0.052 A 
BRANCH  29  30
ATOM      6  N   UNL     1       0.087  -4.850  25.937  0.00  0.00    -0.191 NA
ATOM     30  C   UNL     1      -0.634  -3.973  25.688  0.00  0.00    +0.099 C 
ENDBRANCH  29  30
ENDBRANCH  16  20
TORSDOF 3
ENDMDL
MODEL 5
REMARK VINA RESULT:      12.3      2.537      5.210
REMARK  Name = 7051763
REMARK  3 active torsions:
REMARK  status: ('A' for Active; 'I' for Inactive)
REMARK    1  A    between atoms: C_14  and  C_19
REMARK    2  A    between atoms: C_16  and  C_20
REMARK    3  A    between atoms: C_29  and  C_30
REMARK                            x       y       z     vdW  Elec       q    Type
REMARK                         _______ _______ _______ _____ _____    ______ ____
ROOT
ATOM      1  O   UNL     1      -1.019   3.441  21.223  0.00  0.00    -0.268 OA
ATOM      2  O   UNL     1       0.469  -0.693  23.763  0.00  0.00    -0.270 OA
ATOM      3  N   UNL     1      -0.548   0.711  25.331  0.00  0.00    -0.297 N 
ATOM      4  N   UNL     1      -1.536   3.068  23.477  0.00  0.00    -0.311 N 
ATOM      7  C   UNL     1       0.283   3.049  25.286  0.00  0.00    +0.027 C 
ATOM      8  C   UNL     1      -2.060   2.604  25.891  0.00  0.00    +0.054 C 
ATOM      9  C   UNL     1      -0.843   3.471  26.217  0.00  0.00    +0.018 C 
ATOM     10  C   UNL     1       0.628   1.564  25.490  0.00  0.00    +0.113 C 
ATOM     11  C   UNL     1      -0.141   3.347  23.846  0.00  0.00    +0.130 C 
ATOM     12  C   UNL     1      -1.714   1.118  26.129  0.00  0.00    +0.117 C 
ATOM     13  C   UNL     1      -2.525   2.807  24.447  0.00  0.00    +0.034 A 
ATOM     14  C   UNL     1      -3.828   2.710  24.077  0.00  0.00    +0.004 A 
ATOM     15  C   UNL     1      -1.838   3.200  22.110  0.00  0.00    +0.252 A 
ATOM     16  C   UNL     1      -0.508  -0.355  24.429  0.00  0.00    +0.247 C 
ATOM     17  C   UNL     1      -4.177   2.836  22.675  0.00  0.00    +0.015 A 
ATOM     18  C   UNL     1      -3.262   3.051  21.729  0.00  0.00    +0.071 A 
ENDROOT
BRANCH  14  19
ATOM      5  N   UNL     1      -6.531   3.355  26.598  0.00  0.00    -0.263 NA
ATOM     19  C   UNL     1      -4.902   2.462  25.063  0.00  0.00    +0.002 A 
ATOM     21  C   UNL     1      -5.285   1.169  25.382  0.00  0.00    +0.011 A 
ATOM     22  C   UNL     1      -5.544   3.513  25.688  0.00  0.00    +0.119 A 
ATOM     25  C   UNL     1      -6.297   0.967  26.313  0.00  0.00    +0.020 A 
ATOM     28  C   UNL     1      -6.883   2.083  26.887  0.00  0.00    +0.111 A 
ENDBRANCH  14  19
BRANCH  16  20
ATOM     20  C   UNL     1      -1.730  -1.143  24.231  0.00  0.00    +0.037 A 
ATOM     23  C   UNL     1      -1.763  -2.480  24.618  0.00  0.00    +0.014 A 
ATOM     24  C   UNL     1      -2.852  -0.549  23.658  0.00  0.00    +0.014 A 
ATOM     26  C   UNL     1      -2.926  -3.228  24.430  0.00  0.00    +0.019 A 
ATOM     27  C   UNL     1      -4.014  -1.297  23.472  0.00  0.00    +0.019 A 
ATOM     29  C   UNL     1      -4.051  -2.637  23.857  0.00  0.00    +0.052 A 
BRANCH  29  30
ATOM      6  N   UNL     1      -6.209  -4.027  23.506  0.00  0.00    -0.191 NA
ATOM     30  C   UNL     1      -5.241  -3.404  23.664  0.00  0.00    +0.099 C 
ENDBRANCH  29  30
ENDBRANCH  16  20
TORSDOF 3
ENDMDL
