MODEL 1
REMARK VINA RESULT:      -4.0      0.000      0.000
REMARK  Name = 75536515
REMARK  11 active torsions:
REMARK  status: ('A' for Active; 'I' for Inactive)
REMARK    1  A    between atoms: O_2  and  C_10
REMARK    2  A    between atoms: N_5  and  C_8
REMARK    3  A    between atoms: N_5  and  C_9
REMARK    4  A    between atoms: N_7  and  C_17
REMARK    5  A    between atoms: C_11  and  C_17
REMARK    6  A    between atoms: C_18  and  C_22
REMARK    7  A    between atoms: C_19  and  C_20
REMARK    8  A    between atoms: C_19  and  C_23
REMARK    9  A    between atoms: C_19  and  C_24
REMARK   10  A    between atoms: C_19  and  C_25
REMARK   11  A    between atoms: C_20  and  C_21
REMARK                            x       y       z     vdW  Elec       q    Type
REMARK                         _______ _______ _______ _____ _____    ______ ____
ROOT
ATOM      1  O   UNL     1      -4.464   3.674  26.587  0.00  0.00    -0.371 OA
ATOM      8  C   UNL     1      -3.051   4.323  24.792  0.00  0.00    +0.111 C 
ATOM     10  C   UNL     1      -3.971   3.211  24.321  0.00  0.00    +0.164 C 
ATOM     11  C   UNL     1      -5.091   3.302  25.348  0.00  0.00    +0.165 C 
ATOM     12  C   UNL     1      -3.146   4.171  26.301  0.00  0.00    +0.181 C 
ENDROOT
BRANCH  10   2
ATOM      2  O   UNL     1      -4.445   3.416  23.004  0.00  0.00    -0.388 OA
ATOM     27  H   UNL     1      -4.859   2.591  22.696  0.00  0.00    +0.210 HD
ENDBRANCH  10   2
BRANCH   8   5
ATOM      5  N   UNL     1      -1.690   4.203  24.295  0.00  0.00    -0.306 NA
ATOM     26  H   UNL     1      -1.065   4.803  24.832  0.00  0.00    +0.123 HD
BRANCH   5   9
ATOM      3  O   UNL     1       2.738   0.098  23.136  0.00  0.00    -0.276 OA
ATOM      6  N   UNL     1       0.516   0.699  23.454  0.00  0.00    -0.302 N 
ATOM      9  C   UNL     1      -1.233   2.818  24.365  0.00  0.00    +0.057 C 
ATOM     13  C   UNL     1       0.249   2.772  24.760  0.00  0.00    +0.037 C 
ATOM     14  C   UNL     1      -1.449   2.122  23.015  0.00  0.00    +0.037 C 
ATOM     15  C   UNL     1       0.773   1.337  24.746  0.00  0.00    +0.109 C 
ATOM     16  C   UNL     1      -0.891   0.700  23.035  0.00  0.00    +0.109 C 
ATOM     18  C   UNL     1       1.569   0.118  22.746  0.00  0.00    +0.212 C 
ATOM     22  C   UNL     1       1.223  -0.516  21.422  0.00  0.00    +0.109 C 
ENDBRANCH   5   9
ENDBRANCH   8   5
BRANCH  11  17
ATOM     17  C   UNL     1      -5.850   1.999  25.526  0.00  0.00    +0.138 C 
BRANCH  17   7
ATOM      4  O   UNL     1      -3.376   0.540  25.908  0.00  0.00    -0.276 OA
ATOM      7  N   UNL     1      -5.312   0.963  24.691  0.00  0.00    -0.313 N 
ATOM     21  C   UNL     1      -4.111   0.313  24.949  0.00  0.00    +0.214 C 
ATOM     28  H   UNL     1      -5.851   0.694  23.874  0.00  0.00    +0.149 HD
BRANCH  21  20
ATOM     20  C   UNL     1      -3.757  -0.738  23.910  0.00  0.00    +0.102 C 
BRANCH  20  19
ATOM     19  C   UNL     1      -3.258  -2.082  24.492  0.00  0.00    -0.029 C 
ATOM     23  C   UNL     1      -4.099  -3.213  23.869  0.00  0.00    +0.011 C 
ATOM     24  C   UNL     1      -1.780  -2.330  24.149  0.00  0.00    +0.011 C 
ATOM     25  C   UNL     1      -3.439  -2.125  26.018  0.00  0.00    +0.011 C 
ENDBRANCH  20  19
ENDBRANCH  21  20
ENDBRANCH  17   7
ENDBRANCH  11  17
TORSDOF 7
ENDMDL
MODEL 2
REMARK VINA RESULT:      -2.6      2.128      4.582
REMARK  Name = 75536515
REMARK  11 active torsions:
REMARK  status: ('A' for Active; 'I' for Inactive)
REMARK    1  A    between atoms: O_2  and  C_10
REMARK    2  A    between atoms: N_5  and  C_8
REMARK    3  A    between atoms: N_5  and  C_9
REMARK    4  A    between atoms: N_7  and  C_17
REMARK    5  A    between atoms: C_11  and  C_17
REMARK    6  A    between atoms: C_18  and  C_22
REMARK    7  A    between atoms: C_19  and  C_20
REMARK    8  A    between atoms: C_19  and  C_23
REMARK    9  A    between atoms: C_19  and  C_24
REMARK   10  A    between atoms: C_19  and  C_25
REMARK   11  A    between atoms: C_20  and  C_21
REMARK                            x       y       z     vdW  Elec       q    Type
REMARK                         _______ _______ _______ _____ _____    ______ ____
ROOT
ATOM      1  O   UNL     1      -1.056   3.513  26.466  0.00  0.00    -0.371 OA
ATOM      8  C   UNL     1       0.351   2.296  24.990  0.00  0.00    +0.111 C 
ATOM     10  C   UNL     1      -0.423   3.332  24.195  0.00  0.00    +0.164 C 
ATOM     11  C   UNL     1      -0.819   4.309  25.294  0.00  0.00    +0.165 C 
ATOM     12  C   UNL     1      -0.478   2.212  26.261  0.00  0.00    +0.181 C 
ENDROOT
BRANCH  10   2
ATOM      2  O   UNL     1       0.363   3.952  23.196  0.00  0.00    -0.388 OA
ATOM     27  H   UNL     1      -0.222   4.209  22.463  0.00  0.00    +0.210 HD
ENDBRANCH  10   2
BRANCH   8   5
ATOM      5  N   UNL     1       0.478   1.016  24.312  0.00  0.00    -0.306 NA
ATOM     26  H   UNL     1       1.445   0.695  24.344  0.00  0.00    +0.123 HD
BRANCH   5   9
ATOM      3  O   UNL     1      -3.012  -3.996  23.601  0.00  0.00    -0.276 OA
ATOM      6  N   UNL     1      -2.448  -2.011  24.670  0.00  0.00    -0.302 N 
ATOM      9  C   UNL     1      -0.399   0.018  24.919  0.00  0.00    +0.057 C 
ATOM     13  C   UNL     1      -0.090  -1.371  24.348  0.00  0.00    +0.037 C 
ATOM     14  C   UNL     1      -1.868   0.386  24.668  0.00  0.00    +0.037 C 
ATOM     15  C   UNL     1      -1.060  -2.416  24.898  0.00  0.00    +0.109 C 
ATOM     16  C   UNL     1      -2.803  -0.694  25.212  0.00  0.00    +0.109 C 
ATOM     18  C   UNL     1      -3.325  -2.878  24.016  0.00  0.00    +0.212 C 
ATOM     22  C   UNL     1      -4.737  -2.386  23.817  0.00  0.00    +0.109 C 
ENDBRANCH   5   9
ENDBRANCH   8   5
BRANCH  11  17
ATOM     17  C   UNL     1      -2.061   5.116  24.960  0.00  0.00    +0.138 C 
BRANCH  17   7
ATOM      4  O   UNL     1      -4.156   3.512  23.766  0.00  0.00    -0.276 OA
ATOM      7  N   UNL     1      -3.222   4.579  25.609  0.00  0.00    -0.313 N 
ATOM     21  C   UNL     1      -4.183   3.816  24.957  0.00  0.00    +0.214 C 
ATOM     28  H   UNL     1      -3.332   4.767  26.601  0.00  0.00    +0.149 HD
BRANCH  21  20
ATOM     20  C   UNL     1      -5.320   3.373  25.864  0.00  0.00    +0.102 C 
BRANCH  20  19
ATOM     19  C   UNL     1      -5.850   1.945  25.588  0.00  0.00    -0.029 C 
ATOM     23  C   UNL     1      -6.501   1.421  26.882  0.00  0.00    +0.011 C 
ATOM     24  C   UNL     1      -6.910   1.943  24.475  0.00  0.00    +0.011 C 
ATOM     25  C   UNL     1      -4.705   0.996  25.201  0.00  0.00    +0.011 C 
ENDBRANCH  20  19
ENDBRANCH  21  20
ENDBRANCH  17   7
ENDBRANCH  11  17
TORSDOF 7
ENDMDL
MODEL 3
REMARK VINA RESULT:      -2.5      1.869      4.983
REMARK  Name = 75536515
REMARK  11 active torsions:
REMARK  status: ('A' for Active; 'I' for Inactive)
REMARK    1  A    between atoms: O_2  and  C_10
REMARK    2  A    between atoms: N_5  and  C_8
REMARK    3  A    between atoms: N_5  and  C_9
REMARK    4  A    between atoms: N_7  and  C_17
REMARK    5  A    between atoms: C_11  and  C_17
REMARK    6  A    between atoms: C_18  and  C_22
REMARK    7  A    between atoms: C_19  and  C_20
REMARK    8  A    between atoms: C_19  and  C_23
REMARK    9  A    between atoms: C_19  and  C_24
REMARK   10  A    between atoms: C_19  and  C_25
REMARK   11  A    between atoms: C_20  and  C_21
REMARK                            x       y       z     vdW  Elec       q    Type
REMARK                         _______ _______ _______ _____ _____    ______ ____
ROOT
ATOM      1  O   UNL     1       0.138   2.802  23.158  0.00  0.00    -0.371 OA
ATOM      8  C   UNL     1      -0.323   3.930  25.196  0.00  0.00    +0.111 C 
ATOM     10  C   UNL     1      -0.041   2.468  25.492  0.00  0.00    +0.164 C 
ATOM     11  C   UNL     1       0.721   2.057  24.240  0.00  0.00    +0.165 C 
ATOM     12  C   UNL     1      -0.636   3.881  23.710  0.00  0.00    +0.181 C 
ENDROOT
BRANCH  10   2
ATOM      2  O   UNL     1       0.731   2.287  26.663  0.00  0.00    -0.388 OA
ATOM     27  H   UNL     1       0.248   2.678  27.411  0.00  0.00    +0.210 HD
ENDBRANCH  10   2
BRANCH   8   5
ATOM      5  N   UNL     1      -1.410   4.486  25.986  0.00  0.00    -0.306 NA
ATOM     26  H   UNL     1      -1.266   5.485  26.129  0.00  0.00    +0.123 HD
BRANCH   5   9
ATOM      3  O   UNL     1      -6.960   1.847  26.156  0.00  0.00    -0.276 OA
ATOM      6  N   UNL     1      -5.119   2.703  25.027  0.00  0.00    -0.302 N 
ATOM      9  C   UNL     1      -2.696   4.257  25.332  0.00  0.00    +0.057 C 
ATOM     13  C   UNL     1      -3.830   4.325  26.362  0.00  0.00    +0.037 C 
ATOM     14  C   UNL     1      -2.692   2.894  24.628  0.00  0.00    +0.037 C 
ATOM     15  C   UNL     1      -5.174   3.993  25.717  0.00  0.00    +0.109 C 
ATOM     16  C   UNL     1      -4.060   2.590  24.016  0.00  0.00    +0.109 C 
ATOM     18  C   UNL     1      -6.057   1.715  25.327  0.00  0.00    +0.212 C 
ATOM     22  C   UNL     1      -5.930   0.413  24.576  0.00  0.00    +0.109 C 
ENDBRANCH   5   9
ENDBRANCH   8   5
BRANCH  11  17
ATOM     17  C   UNL     1       0.634   0.570  23.946  0.00  0.00    +0.138 C 
BRANCH  17   7
ATOM      4  O   UNL     1      -0.939  -0.493  26.133  0.00  0.00    -0.276 OA
ATOM      7  N   UNL     1      -0.729   0.125  23.902  0.00  0.00    -0.313 N 
ATOM     21  C   UNL     1      -1.412  -0.374  25.004  0.00  0.00    +0.214 C 
ATOM     28  H   UNL     1      -1.214   0.193  23.012  0.00  0.00    +0.149 HD
BRANCH  21  20
ATOM     20  C   UNL     1      -2.842  -0.785  24.695  0.00  0.00    +0.102 C 
BRANCH  20  19
ATOM     19  C   UNL     1      -3.054  -2.308  24.518  0.00  0.00    -0.029 C 
ATOM     23  C   UNL     1      -3.306  -2.919  25.910  0.00  0.00    +0.011 C 
ATOM     24  C   UNL     1      -4.271  -2.607  23.629  0.00  0.00    +0.011 C 
ATOM     25  C   UNL     1      -1.807  -2.974  23.914  0.00  0.00    +0.011 C 
ENDBRANCH  20  19
ENDBRANCH  21  20
ENDBRANCH  17   7
ENDBRANCH  11  17
TORSDOF 7
ENDMDL
MODEL 4
REMARK VINA RESULT:      -2.2      2.186      4.854
REMARK  Name = 75536515
REMARK  11 active torsions:
REMARK  status: ('A' for Active; 'I' for Inactive)
REMARK    1  A    between atoms: O_2  and  C_10
REMARK    2  A    between atoms: N_5  and  C_8
REMARK    3  A    between atoms: N_5  and  C_9
REMARK    4  A    between atoms: N_7  and  C_17
REMARK    5  A    between atoms: C_11  and  C_17
REMARK    6  A    between atoms: C_18  and  C_22
REMARK    7  A    between atoms: C_19  and  C_20
REMARK    8  A    between atoms: C_19  and  C_23
REMARK    9  A    between atoms: C_19  and  C_24
REMARK   10  A    between atoms: C_19  and  C_25
REMARK   11  A    between atoms: C_20  and  C_21
REMARK                            x       y       z     vdW  Elec       q    Type
REMARK                         _______ _______ _______ _____ _____    ______ ____
ROOT
ATOM      1  O   UNL     1      -1.010   1.225  24.220  0.00  0.00    -0.371 OA
ATOM      8  C   UNL     1      -0.253   3.412  24.756  0.00  0.00    +0.111 C 
ATOM     10  C   UNL     1      -0.247   2.564  26.014  0.00  0.00    +0.164 C 
ATOM     11  C   UNL     1      -0.225   1.161  25.423  0.00  0.00    +0.165 C 
ATOM     12  C   UNL     1      -1.175   2.606  23.856  0.00  0.00    +0.181 C 
ENDROOT
BRANCH  10   2
ATOM      2  O   UNL     1       0.881   2.809  26.832  0.00  0.00    -0.388 OA
ATOM     27  H   UNL     1       1.640   3.005  26.256  0.00  0.00    +0.210 HD
ENDBRANCH  10   2
BRANCH   8   5
ATOM      5  N   UNL     1      -0.719   4.772  24.971  0.00  0.00    -0.306 NA
ATOM     26  H   UNL     1      -0.402   5.377  24.215  0.00  0.00    +0.123 HD
BRANCH   5   9
ATOM      3  O   UNL     1      -5.909   2.079  26.873  0.00  0.00    -0.276 OA
ATOM      6  N   UNL     1      -4.709   3.463  25.444  0.00  0.00    -0.302 N 
ATOM      9  C   UNL     1      -2.176   4.812  25.065  0.00  0.00    +0.057 C 
ATOM     13  C   UNL     1      -2.629   4.325  26.447  0.00  0.00    +0.037 C 
ATOM     14  C   UNL     1      -2.799   3.947  23.961  0.00  0.00    +0.037 C 
ATOM     15  C   UNL     1      -4.153   4.268  26.533  0.00  0.00    +0.109 C 
ATOM     16  C   UNL     1      -4.321   3.898  24.097  0.00  0.00    +0.109 C 
ATOM     18  C   UNL     1      -5.569   2.403  25.734  0.00  0.00    +0.212 C 
ATOM     22  C   UNL     1      -6.096   1.621  24.557  0.00  0.00    +0.109 C 
ENDBRANCH   5   9
ENDBRANCH   8   5
BRANCH  11  17
ATOM     17  C   UNL     1      -0.798   0.108  26.355  0.00  0.00    +0.138 C 
BRANCH  17   7
ATOM      4  O   UNL     1      -0.158  -2.372  25.000  0.00  0.00    -0.276 OA
ATOM      7  N   UNL     1      -1.703  -0.765  25.663  0.00  0.00    -0.313 N 
ATOM     21  C   UNL     1      -1.310  -1.941  25.037  0.00  0.00    +0.214 C 
ATOM     28  H   UNL     1      -2.683  -0.502  25.645  0.00  0.00    +0.149 HD
BRANCH  21  20
ATOM     20  C   UNL     1      -2.456  -2.682  24.368  0.00  0.00    +0.102 C 
BRANCH  20  19
ATOM     19  C   UNL     1      -3.749  -1.851  24.193  0.00  0.00    -0.029 C 
ATOM     23  C   UNL     1      -4.849  -2.788  23.656  0.00  0.00    +0.011 C 
ATOM     24  C   UNL     1      -4.225  -1.260  25.530  0.00  0.00    +0.011 C 
ATOM     25  C   UNL     1      -3.543  -0.713  23.179  0.00  0.00    +0.011 C 
ENDBRANCH  20  19
ENDBRANCH  21  20
ENDBRANCH  17   7
ENDBRANCH  11  17
TORSDOF 7
ENDMDL
MODEL 5
REMARK VINA RESULT:      -2.1      1.713      4.712
REMARK  Name = 75536515
REMARK  11 active torsions:
REMARK  status: ('A' for Active; 'I' for Inactive)
REMARK    1  A    between atoms: O_2  and  C_10
REMARK    2  A    between atoms: N_5  and  C_8
REMARK    3  A    between atoms: N_5  and  C_9
REMARK    4  A    between atoms: N_7  and  C_17
REMARK    5  A    between atoms: C_11  and  C_17
REMARK    6  A    between atoms: C_18  and  C_22
REMARK    7  A    between atoms: C_19  and  C_20
REMARK    8  A    between atoms: C_19  and  C_23
REMARK    9  A    between atoms: C_19  and  C_24
REMARK   10  A    between atoms: C_19  and  C_25
REMARK   11  A    between atoms: C_20  and  C_21
REMARK                            x       y       z     vdW  Elec       q    Type
REMARK                         _______ _______ _______ _____ _____    ______ ____
ROOT
ATOM      1  O   UNL     1      -4.788  -1.301  24.153  0.00  0.00    -0.371 OA
ATOM      8  C   UNL     1      -2.629  -2.008  24.846  0.00  0.00    +0.111 C 
ATOM     10  C   UNL     1      -2.813  -0.547  25.213  0.00  0.00    +0.164 C 
ATOM     11  C   UNL     1      -4.331  -0.430  25.201  0.00  0.00    +0.165 C 
ATOM     12  C   UNL     1      -3.717  -2.194  23.802  0.00  0.00    +0.181 C 
ENDROOT
BRANCH  10   2
ATOM      2  O   UNL     1      -2.270  -0.229  26.479  0.00  0.00    -0.388 OA
ATOM     27  H   UNL     1      -2.279  -1.033  27.026  0.00  0.00    +0.210 HD
ENDBRANCH  10   2
BRANCH   8   5
ATOM      5  N   UNL     1      -1.301  -2.320  24.342  0.00  0.00    -0.306 NA
ATOM     26  H   UNL     1      -1.349  -3.093  23.679  0.00  0.00    +0.123 HD
BRANCH   5   9
ATOM      3  O   UNL     1       3.381   0.062  21.146  0.00  0.00    -0.276 OA
ATOM      6  N   UNL     1       1.616   0.226  22.648  0.00  0.00    -0.302 N 
ATOM      9  C   UNL     1      -0.702  -1.151  23.702  0.00  0.00    +0.057 C 
ATOM     13  C   UNL     1      -0.070  -1.550  22.363  0.00  0.00    +0.037 C 
ATOM     14  C   UNL     1       0.351  -0.526  24.627  0.00  0.00    +0.037 C 
ATOM     15  C   UNL     1       0.647  -0.362  21.722  0.00  0.00    +0.109 C 
ATOM     16  C   UNL     1       1.059   0.642  23.941  0.00  0.00    +0.109 C 
ATOM     18  C   UNL     1       2.944   0.386  22.253  0.00  0.00    +0.212 C 
ATOM     22  C   UNL     1       3.881   0.996  23.265  0.00  0.00    +0.109 C 
ENDBRANCH   5   9
ENDBRANCH   8   5
BRANCH  11  17
ATOM     17  C   UNL     1      -4.823   0.984  24.946  0.00  0.00    +0.138 C 
BRANCH  17   7
ATOM      4  O   UNL     1      -5.238   3.823  25.341  0.00  0.00    -0.276 OA
ATOM      7  N   UNL     1      -3.852   1.956  25.358  0.00  0.00    -0.313 N 
ATOM     21  C   UNL     1      -4.137   3.306  25.524  0.00  0.00    +0.214 C 
ATOM     28  H   UNL     1      -2.910   1.626  25.544  0.00  0.00    +0.149 HD
BRANCH  21  20
ATOM     20  C   UNL     1      -2.936   4.129  25.958  0.00  0.00    +0.102 C 
BRANCH  20  19
ATOM     19  C   UNL     1      -1.608   3.759  25.253  0.00  0.00    -0.029 C 
ATOM     23  C   UNL     1      -0.881   5.068  24.890  0.00  0.00    +0.011 C 
ATOM     24  C   UNL     1      -0.694   2.934  26.172  0.00  0.00    +0.011 C 
ATOM     25  C   UNL     1      -1.870   2.973  23.957  0.00  0.00    +0.011 C 
ENDBRANCH  20  19
ENDBRANCH  21  20
ENDBRANCH  17   7
ENDBRANCH  11  17
TORSDOF 7
ENDMDL
MODEL 6
REMARK VINA RESULT:      -1.9      2.323      4.269
REMARK  Name = 75536515
REMARK  11 active torsions:
REMARK  status: ('A' for Active; 'I' for Inactive)
REMARK    1  A    between atoms: O_2  and  C_10
REMARK    2  A    between atoms: N_5  and  C_8
REMARK    3  A    between atoms: N_5  and  C_9
REMARK    4  A    between atoms: N_7  and  C_17
REMARK    5  A    between atoms: C_11  and  C_17
REMARK    6  A    between atoms: C_18  and  C_22
REMARK    7  A    between atoms: C_19  and  C_20
REMARK    8  A    between atoms: C_19  and  C_23
REMARK    9  A    between atoms: C_19  and  C_24
REMARK   10  A    between atoms: C_19  and  C_25
REMARK   11  A    between atoms: C_20  and  C_21
REMARK                            x       y       z     vdW  Elec       q    Type
REMARK                         _______ _______ _______ _____ _____    ______ ____
ROOT
ATOM      1  O   UNL     1      -1.071   2.785  26.385  0.00  0.00    -0.371 OA
ATOM      8  C   UNL     1      -0.049   1.790  24.486  0.00  0.00    +0.111 C 
ATOM     10  C   UNL     1      -0.668   3.115  24.079  0.00  0.00    +0.164 C 
ATOM     11  C   UNL     1      -0.778   3.814  25.427  0.00  0.00    +0.165 C 
ATOM     12  C   UNL     1      -0.774   1.509  25.791  0.00  0.00    +0.181 C 
ENDROOT
BRANCH  10   2
ATOM      2  O   UNL     1       0.141   3.840  23.173  0.00  0.00    -0.388 OA
ATOM     27  H   UNL     1       1.066   3.571  23.305  0.00  0.00    +0.210 HD
ENDBRANCH  10   2
BRANCH   8   5
ATOM      5  N   UNL     1      -0.227   0.736  23.501  0.00  0.00    -0.306 NA
ATOM     26  H   UNL     1      -0.869   1.041  22.770  0.00  0.00    +0.123 HD
BRANCH   5   9
ATOM      3  O   UNL     1       5.400  -1.611  24.300  0.00  0.00    -0.276 OA
ATOM      6  N   UNL     1       3.870  -0.254  23.196  0.00  0.00    -0.302 N 
ATOM      9  C   UNL     1       1.054   0.356  22.912  0.00  0.00    +0.057 C 
ATOM     13  C   UNL     1       1.533  -0.975  23.506  0.00  0.00    +0.037 C 
ATOM     14  C   UNL     1       2.094   1.457  23.156  0.00  0.00    +0.037 C 
ATOM     15  C   UNL     1       2.917  -1.343  22.975  0.00  0.00    +0.109 C 
ATOM     16  C   UNL     1       3.468   1.040  22.631  0.00  0.00    +0.109 C 
ATOM     18  C   UNL     1       5.068  -0.505  23.865  0.00  0.00    +0.212 C 
ATOM     22  C   UNL     1       5.994   0.670  24.056  0.00  0.00    +0.109 C 
ENDBRANCH   5   9
ENDBRANCH   8   5
BRANCH  11  17
ATOM     17  C   UNL     1      -1.862   4.877  25.465  0.00  0.00    +0.138 C 
BRANCH  17   7
ATOM      4  O   UNL     1      -4.056   3.902  23.845  0.00  0.00    -0.276 OA
ATOM      7  N   UNL     1      -3.108   4.334  25.924  0.00  0.00    -0.313 N 
ATOM     21  C   UNL     1      -4.112   3.887  25.073  0.00  0.00    +0.214 C 
ATOM     28  H   UNL     1      -3.249   4.269  26.927  0.00  0.00    +0.149 HD
BRANCH  21  20
ATOM     20  C   UNL     1      -5.337   3.365  25.806  0.00  0.00    +0.102 C 
BRANCH  20  19
ATOM     19  C   UNL     1      -5.670   1.878  25.533  0.00  0.00    -0.029 C 
ATOM     23  C   UNL     1      -6.277   1.283  26.818  0.00  0.00    +0.011 C 
ATOM     24  C   UNL     1      -6.695   1.730  24.397  0.00  0.00    +0.011 C 
ATOM     25  C   UNL     1      -4.402   1.083  25.181  0.00  0.00    +0.011 C 
ENDBRANCH  20  19
ENDBRANCH  21  20
ENDBRANCH  17   7
ENDBRANCH  11  17
TORSDOF 7
ENDMDL
MODEL 7
REMARK VINA RESULT:      -1.9     15.635     18.076
REMARK  Name = 75536515
REMARK  11 active torsions:
REMARK  status: ('A' for Active; 'I' for Inactive)
REMARK    1  A    between atoms: O_2  and  C_10
REMARK    2  A    between atoms: N_5  and  C_8
REMARK    3  A    between atoms: N_5  and  C_9
REMARK    4  A    between atoms: N_7  and  C_17
REMARK    5  A    between atoms: C_11  and  C_17
REMARK    6  A    between atoms: C_18  and  C_22
REMARK    7  A    between atoms: C_19  and  C_20
REMARK    8  A    between atoms: C_19  and  C_23
REMARK    9  A    between atoms: C_19  and  C_24
REMARK   10  A    between atoms: C_19  and  C_25
REMARK   11  A    between atoms: C_20  and  C_21
REMARK                            x       y       z     vdW  Elec       q    Type
REMARK                         _______ _______ _______ _____ _____    ______ ____
ROOT
ATOM      1  O   UNL     1      -4.894  -9.224  12.005  0.00  0.00    -0.371 OA
ATOM      8  C   UNL     1      -7.209  -9.718  11.823  0.00  0.00    +0.111 C 
ATOM     10  C   UNL     1      -6.596 -10.606  12.890  0.00  0.00    +0.164 C 
ATOM     11  C   UNL     1      -5.336  -9.824  13.233  0.00  0.00    +0.165 C 
ATOM     12  C   UNL     1      -5.975  -9.272  11.058  0.00  0.00    +0.181 C 
ENDROOT
BRANCH  10   2
ATOM      2  O   UNL     1      -7.438 -10.770  14.015  0.00  0.00    -0.388 OA
ATOM     27  H   UNL     1      -8.347 -10.905  13.699  0.00  0.00    +0.210 HD
ENDBRANCH  10   2
BRANCH   8   5
ATOM      5  N   UNL     1      -8.180 -10.402  10.983  0.00  0.00    -0.306 NA
ATOM     26  H   UNL     1      -9.018 -10.622  11.521  0.00  0.00    +0.123 HD
BRANCH   5   9
ATOM      3  O   UNL     1      -8.367  -4.831   8.387  0.00  0.00    -0.276 OA
ATOM      6  N   UNL     1      -9.144  -7.004   8.664  0.00  0.00    -0.302 N 
ATOM      9  C   UNL     1      -8.531  -9.583   9.826  0.00  0.00    +0.057 C 
ATOM     13  C   UNL     1      -7.440  -8.536   9.571  0.00  0.00    +0.037 C 
ATOM     14  C   UNL     1      -9.886  -8.900  10.054  0.00  0.00    +0.037 C 
ATOM     15  C   UNL     1      -7.832  -7.606   8.424  0.00  0.00    +0.109 C 
ATOM     16  C   UNL     1     -10.230  -7.964   8.897  0.00  0.00    +0.109 C 
ATOM     18  C   UNL     1      -9.288  -5.617   8.620  0.00  0.00    +0.212 C 
ATOM     22  C   UNL     1     -10.671  -5.073   8.882  0.00  0.00    +0.109 C 
ENDBRANCH   5   9
ENDBRANCH   8   5
BRANCH  11  17
ATOM     17  C   UNL     1      -4.230 -10.690  13.810  0.00  0.00    +0.138 C 
BRANCH  17   7
ATOM      4  O   UNL     1      -1.484 -10.185  14.584  0.00  0.00    -0.276 OA
ATOM      7  N   UNL     1      -3.072 -10.691  12.962  0.00  0.00    -0.313 N 
ATOM     21  C   UNL     1      -1.784 -10.437  13.418  0.00  0.00    +0.214 C 
ATOM     28  H   UNL     1      -3.214 -10.899  11.978  0.00  0.00    +0.149 HD
BRANCH  21  20
ATOM     20  C   UNL     1      -0.733 -10.489  12.321  0.00  0.00    +0.102 C 
BRANCH  20  19
ATOM     19  C   UNL     1      -0.536  -9.161  11.551  0.00  0.00    -0.029 C 
ATOM     23  C   UNL     1      -1.777  -8.934  10.666  0.00  0.00    +0.011 C 
ATOM     24  C   UNL     1      -0.399  -7.968  12.511  0.00  0.00    +0.011 C 
ATOM     25  C   UNL     1       0.703  -9.227  10.643  0.00  0.00    +0.011 C 
ENDBRANCH  20  19
ENDBRANCH  21  20
ENDBRANCH  17   7
ENDBRANCH  11  17
TORSDOF 7
ENDMDL
