MODEL 1
REMARK VINA RESULT:       4.6      0.000      0.000
REMARK  Name = 11941709
REMARK  4 active torsions:
REMARK  status: ('A' for Active; 'I' for Inactive)
REMARK    1  A    between atoms: S_1  and  N_5
REMARK    2  A    between atoms: S_1  and  C_18
REMARK    3  A    between atoms: C_16  and  C_19
REMARK    4  A    between atoms: C_20  and  C_23
REMARK                            x       y       z     vdW  Elec       q    Type
REMARK                         _______ _______ _______ _____ _____    ______ ____
ROOT
ATOM      4  O   UNL     1       0.404   2.248  25.758  0.00  0.00    -0.267 OA
ATOM      5  N   UNL     1      -4.560   2.578  25.454  0.00  0.00    -0.180 NA
ATOM      6  N   UNL     1      -1.524   3.082  24.743  0.00  0.00    -0.311 N 
ATOM      7  C   UNL     1      -3.185   4.596  25.972  0.00  0.00    +0.025 C 
ATOM      8  C   UNL     1      -3.601   3.973  23.633  0.00  0.00    +0.052 C 
ATOM      9  C   UNL     1      -3.480   5.159  24.588  0.00  0.00    +0.017 C 
ATOM     10  C   UNL     1      -4.326   3.675  26.436  0.00  0.00    +0.114 C 
ATOM     11  C   UNL     1      -4.780   3.084  24.065  0.00  0.00    +0.118 C 
ATOM     12  C   UNL     1      -1.829   3.879  25.940  0.00  0.00    +0.130 C 
ATOM     13  C   UNL     1      -2.317   3.167  23.597  0.00  0.00    +0.026 A 
ATOM     14  C   UNL     1      -1.954   2.521  22.478  0.00  0.00    +0.022 A 
ATOM     15  C   UNL     1      -0.340   2.320  24.778  0.00  0.00    +0.259 A 
ATOM     16  C   UNL     1       0.023   1.577  23.519  0.00  0.00    +0.047 A 
ATOM     17  C   UNL     1      -0.769   1.711  22.444  0.00  0.00    +0.015 A 
ENDROOT
BRANCH  16  19
ATOM     19  C   UNL     1       1.213   0.712  23.459  0.00  0.00    -0.010 A 
ATOM     20  C   UNL     1       1.150  -0.640  23.802  0.00  0.00    -0.043 A 
ATOM     21  C   UNL     1       2.428   1.267  23.046  0.00  0.00    +0.009 A 
ATOM     22  C   UNL     1       2.295  -1.433  23.734  0.00  0.00    +0.004 A 
ATOM     23  C   UNL     1      -0.130  -1.270  24.247  0.00  0.00    +0.044 C 
ATOM     24  C   UNL     1       3.572   0.473  22.979  0.00  0.00    +0.001 A 
ATOM     25  C   UNL     1       3.506  -0.877  23.323  0.00  0.00    +0.000 A 
ENDBRANCH  16  19
BRANCH   5   1
ATOM      1  S   UNL     1      -5.624   1.340  25.967  0.00  0.00    +0.029 S 
ATOM      2  O   UNL     1      -6.298   1.773  27.171  0.00  0.00    -0.158 OA
ATOM      3  O   UNL     1      -4.931   0.071  25.898  0.00  0.00    -0.158 OA
ATOM     18  C   UNL     1      -6.794   1.399  24.634  0.00  0.00    +0.215 C 
ENDBRANCH   5   1
TORSDOF 2
ENDMDL
MODEL 2
REMARK VINA RESULT:       5.2      1.873      2.907
REMARK  Name = 11941709
REMARK  4 active torsions:
REMARK  status: ('A' for Active; 'I' for Inactive)
REMARK    1  A    between atoms: S_1  and  N_5
REMARK    2  A    between atoms: S_1  and  C_18
REMARK    3  A    between atoms: C_16  and  C_19
REMARK    4  A    between atoms: C_20  and  C_23
REMARK                            x       y       z     vdW  Elec       q    Type
REMARK                         _______ _______ _______ _____ _____    ______ ____
ROOT
ATOM      4  O   UNL     1       1.658   1.860  24.811  0.00  0.00    -0.267 OA
ATOM      5  N   UNL     1      -3.142   0.540  24.559  0.00  0.00    -0.180 NA
ATOM      6  N   UNL     1      -0.330   1.624  23.613  0.00  0.00    -0.311 N 
ATOM      7  C   UNL     1      -2.460   2.916  24.208  0.00  0.00    +0.025 C 
ATOM      8  C   UNL     1      -2.468   1.358  22.310  0.00  0.00    +0.052 C 
ATOM      9  C   UNL     1      -2.780   2.794  22.724  0.00  0.00    +0.017 C 
ATOM     10  C   UNL     1      -3.323   1.943  25.029  0.00  0.00    +0.114 C 
ATOM     11  C   UNL     1      -3.374   0.389  23.091  0.00  0.00    +0.118 C 
ATOM     12  C   UNL     1      -0.958   2.684  24.415  0.00  0.00    +0.130 C 
ATOM     13  C   UNL     1      -1.008   1.026  22.550  0.00  0.00    +0.026 A 
ATOM     14  C   UNL     1      -0.375   0.145  21.758  0.00  0.00    +0.022 A 
ATOM     15  C   UNL     1       1.016   1.327  23.904  0.00  0.00    +0.259 A 
ATOM     16  C   UNL     1       1.689   0.308  23.022  0.00  0.00    +0.047 A 
ATOM     17  C   UNL     1       0.991  -0.220  22.005  0.00  0.00    +0.015 A 
ENDROOT
BRANCH  16  19
ATOM     19  C   UNL     1       3.079  -0.112  23.265  0.00  0.00    -0.010 A 
ATOM     20  C   UNL     1       4.156   0.728  22.976  0.00  0.00    -0.043 A 
ATOM     21  C   UNL     1       3.315  -1.383  23.798  0.00  0.00    +0.009 A 
ATOM     22  C   UNL     1       5.461   0.302  23.217  0.00  0.00    +0.004 A 
ATOM     23  C   UNL     1       3.944   2.094  22.407  0.00  0.00    +0.044 C 
ATOM     24  C   UNL     1       4.621  -1.809  24.037  0.00  0.00    +0.001 A 
ATOM     25  C   UNL     1       5.694  -0.967  23.747  0.00  0.00    +0.000 A 
ENDBRANCH  16  19
BRANCH   5   1
ATOM      1  S   UNL     1      -3.844  -0.668  25.546  0.00  0.00    +0.029 S 
ATOM      2  O   UNL     1      -5.107  -0.180  26.054  0.00  0.00    -0.158 OA
ATOM      3  O   UNL     1      -2.826  -1.202  26.426  0.00  0.00    -0.158 OA
ATOM     18  C   UNL     1      -4.188  -1.888  24.303  0.00  0.00    +0.215 C 
ENDBRANCH   5   1
TORSDOF 2
ENDMDL
MODEL 3
REMARK VINA RESULT:       6.8      3.050      7.051
REMARK  Name = 11941709
REMARK  4 active torsions:
REMARK  status: ('A' for Active; 'I' for Inactive)
REMARK    1  A    between atoms: S_1  and  N_5
REMARK    2  A    between atoms: S_1  and  C_18
REMARK    3  A    between atoms: C_16  and  C_19
REMARK    4  A    between atoms: C_20  and  C_23
REMARK                            x       y       z     vdW  Elec       q    Type
REMARK                         _______ _______ _______ _____ _____    ______ ____
ROOT
ATOM      4  O   UNL     1      -2.411   1.888  26.496  0.00  0.00    -0.267 OA
ATOM      5  N   UNL     1       0.500  -0.951  23.613  0.00  0.00    -0.180 NA
ATOM      6  N   UNL     1      -2.053  -0.041  25.235  0.00  0.00    -0.311 N 
ATOM      7  C   UNL     1      -0.268  -1.775  25.841  0.00  0.00    +0.025 C 
ATOM      8  C   UNL     1      -1.680  -2.120  23.862  0.00  0.00    +0.052 C 
ATOM      9  C   UNL     1      -1.200  -2.767  25.159  0.00  0.00    +0.017 C 
ATOM     10  C   UNL     1       0.940  -1.461  24.943  0.00  0.00    +0.114 C 
ATOM     11  C   UNL     1      -0.475  -1.860  22.940  0.00  0.00    +0.118 C 
ATOM     12  C   UNL     1      -1.064  -0.517  26.212  0.00  0.00    +0.130 C 
ATOM     13  C   UNL     1      -2.421  -0.825  24.140  0.00  0.00    +0.026 A 
ATOM     14  C   UNL     1      -3.411  -0.424  23.326  0.00  0.00    +0.022 A 
ATOM     15  C   UNL     1      -2.683   1.186  25.521  0.00  0.00    +0.259 A 
ATOM     16  C   UNL     1      -3.764   1.629  24.570  0.00  0.00    +0.047 A 
ATOM     17  C   UNL     1      -4.085   0.825  23.545  0.00  0.00    +0.015 A 
ENDROOT
BRANCH  16  19
ATOM     19  C   UNL     1      -4.455   2.916  24.746  0.00  0.00    -0.010 A 
ATOM     20  C   UNL     1      -5.612   3.023  25.521  0.00  0.00    -0.043 A 
ATOM     21  C   UNL     1      -3.934   4.052  24.120  0.00  0.00    +0.009 A 
ATOM     22  C   UNL     1      -6.244   4.256  25.670  0.00  0.00    +0.004 A 
ATOM     23  C   UNL     1      -6.200   1.831  26.207  0.00  0.00    +0.044 C 
ATOM     24  C   UNL     1      -4.568   5.285  24.269  0.00  0.00    +0.001 A 
ATOM     25  C   UNL     1      -5.723   5.388  25.043  0.00  0.00    +0.000 A 
ENDBRANCH  16  19
BRANCH   5   1
ATOM      1  S   UNL     1       1.740  -0.325  22.613  0.00  0.00    +0.029 S 
ATOM      2  O   UNL     1       1.293  -0.363  21.238  0.00  0.00    -0.158 OA
ATOM      3  O   UNL     1       3.003  -0.903  23.018  0.00  0.00    -0.158 OA
ATOM     18  C   UNL     1       1.714   1.366  23.152  0.00  0.00    +0.215 C 
ENDBRANCH   5   1
TORSDOF 2
ENDMDL
MODEL 4
REMARK VINA RESULT:       7.6      3.074      7.112
REMARK  Name = 11941709
REMARK  4 active torsions:
REMARK  status: ('A' for Active; 'I' for Inactive)
REMARK    1  A    between atoms: S_1  and  N_5
REMARK    2  A    between atoms: S_1  and  C_18
REMARK    3  A    between atoms: C_16  and  C_19
REMARK    4  A    between atoms: C_20  and  C_23
REMARK                            x       y       z     vdW  Elec       q    Type
REMARK                         _______ _______ _______ _____ _____    ______ ____
ROOT
ATOM      4  O   UNL     1      -2.408   1.696  26.640  0.00  0.00    -0.267 OA
ATOM      5  N   UNL     1       0.504  -0.981  23.607  0.00  0.00    -0.180 NA
ATOM      6  N   UNL     1      -2.038  -0.179  25.303  0.00  0.00    -0.311 N 
ATOM      7  C   UNL     1      -0.211  -1.900  25.816  0.00  0.00    +0.025 C 
ATOM      8  C   UNL     1      -1.651  -2.199  23.850  0.00  0.00    +0.052 C 
ATOM      9  C   UNL     1      -1.137  -2.884  25.114  0.00  0.00    +0.017 C 
ATOM     10  C   UNL     1       0.976  -1.531  24.910  0.00  0.00    +0.114 C 
ATOM     11  C   UNL     1      -0.467  -1.884  22.918  0.00  0.00    +0.118 C 
ATOM     12  C   UNL     1      -1.023  -0.671  26.246  0.00  0.00    +0.130 C 
ATOM     13  C   UNL     1      -2.410  -0.930  24.187  0.00  0.00    +0.026 A 
ATOM     14  C   UNL     1      -3.421  -0.518  23.405  0.00  0.00    +0.022 A 
ATOM     15  C   UNL     1      -2.685   1.025  25.644  0.00  0.00    +0.259 A 
ATOM     16  C   UNL     1      -3.789   1.481  24.728  0.00  0.00    +0.047 A 
ATOM     17  C   UNL     1      -4.114   0.709  23.680  0.00  0.00    +0.015 A 
ENDROOT
BRANCH  16  19
ATOM     19  C   UNL     1      -4.501   2.749  24.963  0.00  0.00    -0.010 A 
ATOM     20  C   UNL     1      -3.911   3.981  24.670  0.00  0.00    -0.043 A 
ATOM     21  C   UNL     1      -5.795   2.708  25.489  0.00  0.00    +0.009 A 
ATOM     22  C   UNL     1      -4.610   5.164  24.903  0.00  0.00    +0.004 A 
ATOM     23  C   UNL     1      -2.529   4.066  24.105  0.00  0.00    +0.044 C 
ATOM     24  C   UNL     1      -6.493   3.892  25.722  0.00  0.00    +0.001 A 
ATOM     25  C   UNL     1      -5.901   5.121  25.429  0.00  0.00    +0.000 A 
ENDBRANCH  16  19
BRANCH   5   1
ATOM      1  S   UNL     1       1.714  -0.297  22.610  0.00  0.00    +0.029 S 
ATOM      2  O   UNL     1       1.259  -0.326  21.238  0.00  0.00    -0.158 OA
ATOM      3  O   UNL     1       2.999  -0.839  22.998  0.00  0.00    -0.158 OA
ATOM     18  C   UNL     1       1.634   1.383  23.179  0.00  0.00    +0.215 C 
ENDBRANCH   5   1
TORSDOF 2
ENDMDL
MODEL 5
REMARK VINA RESULT:       7.8      2.323      3.755
REMARK  Name = 11941709
REMARK  4 active torsions:
REMARK  status: ('A' for Active; 'I' for Inactive)
REMARK    1  A    between atoms: S_1  and  N_5
REMARK    2  A    between atoms: S_1  and  C_18
REMARK    3  A    between atoms: C_16  and  C_19
REMARK    4  A    between atoms: C_20  and  C_23
REMARK                            x       y       z     vdW  Elec       q    Type
REMARK                         _______ _______ _______ _____ _____    ______ ____
ROOT
ATOM      4  O   UNL     1      -0.342   0.135  22.024  0.00  0.00    -0.267 OA
ATOM      5  N   UNL     1      -4.021   1.384  25.146  0.00  0.00    -0.180 NA
ATOM      6  N   UNL     1      -1.862  -0.416  23.705  0.00  0.00    -0.311 N 
ATOM      7  C   UNL     1      -4.398  -0.317  23.357  0.00  0.00    +0.025 C 
ATOM      8  C   UNL     1      -3.491  -1.015  25.530  0.00  0.00    +0.052 C 
ATOM      9  C   UNL     1      -4.444  -1.418  24.407  0.00  0.00    +0.017 C 
ATOM     10  C   UNL     1      -4.850   1.024  23.960  0.00  0.00    +0.114 C 
ATOM     11  C   UNL     1      -3.978   0.298  26.170  0.00  0.00    +0.118 C 
ATOM     12  C   UNL     1      -2.983  -0.247  22.769  0.00  0.00    +0.130 C 
ATOM     13  C   UNL     1      -2.074  -0.856  25.013  0.00  0.00    +0.026 A 
ATOM     14  C   UNL     1      -1.028  -1.116  25.813  0.00  0.00    +0.022 A 
ATOM     15  C   UNL     1      -0.569  -0.218  23.182  0.00  0.00    +0.259 A 
ATOM     16  C   UNL     1       0.584  -0.482  24.115  0.00  0.00    +0.047 A 
ATOM     17  C   UNL     1       0.319  -0.919  25.355  0.00  0.00    +0.015 A 
ENDROOT
BRANCH  16  19
ATOM     19  C   UNL     1       1.976  -0.262  23.689  0.00  0.00    -0.010 A 
ATOM     20  C   UNL     1       2.438   1.008  23.337  0.00  0.00    -0.043 A 
ATOM     21  C   UNL     1       2.847  -1.354  23.641  0.00  0.00    +0.009 A 
ATOM     22  C   UNL     1       3.762   1.185  22.938  0.00  0.00    +0.004 A 
ATOM     23  C   UNL     1       1.538   2.201  23.376  0.00  0.00    +0.044 C 
ATOM     24  C   UNL     1       4.170  -1.176  23.241  0.00  0.00    +0.001 A 
ATOM     25  C   UNL     1       4.629   0.094  22.889  0.00  0.00    +0.000 A 
ENDBRANCH  16  19
BRANCH   5   1
ATOM      1  S   UNL     1      -4.249   2.967  25.755  0.00  0.00    +0.029 S 
ATOM      2  O   UNL     1      -3.068   3.356  26.493  0.00  0.00    -0.158 OA
ATOM      3  O   UNL     1      -5.573   3.059  26.333  0.00  0.00    -0.158 OA
ATOM     18  C   UNL     1      -4.257   3.863  24.223  0.00  0.00    +0.215 C 
ENDBRANCH   5   1
TORSDOF 2
ENDMDL
MODEL 6
REMARK VINA RESULT:       8.3      2.062      2.662
REMARK  Name = 11941709
REMARK  4 active torsions:
REMARK  status: ('A' for Active; 'I' for Inactive)
REMARK    1  A    between atoms: S_1  and  N_5
REMARK    2  A    between atoms: S_1  and  C_18
REMARK    3  A    between atoms: C_16  and  C_19
REMARK    4  A    between atoms: C_20  and  C_23
REMARK                            x       y       z     vdW  Elec       q    Type
REMARK                         _______ _______ _______ _____ _____    ______ ____
ROOT
ATOM      4  O   UNL     1      -0.643   0.790  26.592  0.00  0.00    -0.267 OA
ATOM      5  N   UNL     1      -4.333   3.906  25.361  0.00  0.00    -0.180 NA
ATOM      6  N   UNL     1      -1.594   2.348  25.141  0.00  0.00    -0.311 N 
ATOM      7  C   UNL     1      -2.040   4.777  25.823  0.00  0.00    +0.025 C 
ATOM      8  C   UNL     1      -2.621   4.019  23.561  0.00  0.00    +0.052 C 
ATOM      9  C   UNL     1      -1.850   5.080  24.343  0.00  0.00    +0.017 C 
ATOM     10  C   UNL     1      -3.529   4.837  26.202  0.00  0.00    +0.114 C 
ATOM     11  C   UNL     1      -4.120   4.120  23.898  0.00  0.00    +0.118 C 
ATOM     12  C   UNL     1      -1.410   3.413  26.137  0.00  0.00    +0.130 C 
ATOM     13  C   UNL     1      -2.103   2.628  23.871  0.00  0.00    +0.026 A 
ATOM     14  C   UNL     1      -2.152   1.664  22.938  0.00  0.00    +0.022 A 
ATOM     15  C   UNL     1      -1.131   1.066  25.495  0.00  0.00    +0.259 A 
ATOM     16  C   UNL     1      -1.232  -0.004  24.441  0.00  0.00    +0.047 A 
ATOM     17  C   UNL     1      -1.715   0.328  23.233  0.00  0.00    +0.015 A 
ENDROOT
BRANCH  16  19
ATOM     19  C   UNL     1      -0.822  -1.391  24.718  0.00  0.00    -0.010 A 
ATOM     20  C   UNL     1      -1.740  -2.443  24.686  0.00  0.00    -0.043 A 
ATOM     21  C   UNL     1       0.518  -1.650  25.017  0.00  0.00    +0.009 A 
ATOM     22  C   UNL     1      -1.321  -3.746  24.953  0.00  0.00    +0.004 A 
ATOM     23  C   UNL     1      -3.182  -2.207  24.369  0.00  0.00    +0.044 C 
ATOM     24  C   UNL     1       0.936  -2.953  25.285  0.00  0.00    +0.001 A 
ATOM     25  C   UNL     1       0.016  -4.001  25.253  0.00  0.00    +0.000 A 
ENDBRANCH  16  19
BRANCH   5   1
ATOM      1  S   UNL     1      -5.959   3.686  25.846  0.00  0.00    +0.029 S 
ATOM      2  O   UNL     1      -6.686   4.913  25.611  0.00  0.00    -0.158 OA
ATOM      3  O   UNL     1      -5.976   3.027  27.135  0.00  0.00    -0.158 OA
ATOM     18  C   UNL     1      -6.465   2.505  24.621  0.00  0.00    +0.215 C 
ENDBRANCH   5   1
TORSDOF 2
ENDMDL
