MODEL 1
REMARK VINA RESULT:      -5.6      0.000      0.000
REMARK  Name = 7049320
REMARK  10 active torsions:
REMARK  status: ('A' for Active; 'I' for Inactive)
REMARK    1  A    between atoms: O_1  and  C_10
REMARK    2  A    between atoms: O_2  and  C_12
REMARK    3  A    between atoms: N_6  and  C_11
REMARK    4  A    between atoms: N_7  and  C_19
REMARK    5  A    between atoms: N_8  and  C_20
REMARK    6  A    between atoms: C_14  and  C_16
REMARK    7  A    between atoms: C_17  and  C_18
REMARK    8  A    between atoms: C_18  and  C_20
REMARK    9  A    between atoms: C_19  and  C_21
REMARK   10  A    between atoms: C_19  and  C_22
REMARK                            x       y       z     vdW  Elec       q    Type
REMARK                         _______ _______ _______ _____ _____    ______ ____
ROOT
ATOM     10  C   UNL     1      -0.548  -1.690  24.758  0.00  0.00    +0.167 C 
ATOM     11  C   UNL     1      -0.204  -0.748  23.589  0.00  0.00    +0.127 C 
ATOM     12  C   UNL     1      -2.062  -1.890  24.894  0.00  0.00    +0.149 C 
ATOM     13  C   UNL     1      -2.811  -0.556  25.048  0.00  0.00    +0.074 C 
ATOM     14  C   UNL     1      -2.250   0.545  24.192  0.00  0.00    +0.015 C 
ATOM     15  C   UNL     1      -1.087   0.470  23.527  0.00  0.00    +0.006 C 
ENDROOT
BRANCH  14  16
ATOM      3  O   UNL     1      -3.378   2.188  22.949  0.00  0.00    -0.271 OA
ATOM      7  N   UNL     1      -3.299   2.385  25.270  0.00  0.00    -0.301 N 
ATOM     16  C   UNL     1      -3.029   1.779  24.056  0.00  0.00    +0.240 C 
ATOM     26  H   UNL     1      -2.956   1.959  26.126  0.00  0.00    +0.150 HD
BRANCH   7  19
ATOM     19  C   UNL     1      -4.048   3.615  25.390  0.00  0.00    +0.156 C 
ATOM     21  C   UNL     1      -3.449   4.521  26.453  0.00  0.00    +0.038 C 
BRANCH  19  22
ATOM      5  O   UNL     1      -5.877   2.119  25.953  0.00  0.00    -0.274 OA
ATOM      9  N   UNL     1      -6.311   4.368  25.785  0.00  0.00    -0.328 N 
ATOM     22  C   UNL     1      -5.490   3.262  25.723  0.00  0.00    +0.231 C 
ATOM     29  H   UNL     1      -7.296   4.274  26.009  0.00  0.00    +0.145 HD
ATOM     30  H   UNL     1      -5.973   5.310  25.612  0.00  0.00    +0.145 HD
ENDBRANCH  19  22
ENDBRANCH   7  19
ENDBRANCH  14  16
BRANCH  11   6
ATOM      4  O   UNL     1       1.527  -0.343  21.341  0.00  0.00    -0.276 OA
ATOM      6  N   UNL     1       1.173  -0.322  23.635  0.00  0.00    -0.306 N 
ATOM     17  C   UNL     1       1.932  -0.155  22.485  0.00  0.00    +0.215 C 
ATOM     23  H   UNL     1       1.610  -0.182  24.542  0.00  0.00    +0.149 HD
BRANCH  17  18
ATOM     18  C   UNL     1       3.345   0.298  22.806  0.00  0.00    +0.110 C 
BRANCH  18  20
ATOM     20  C   UNL     1       4.156  -0.787  23.507  0.00  0.00    +0.087 C 
BRANCH  20   8
ATOM      8  N   UNL     1       5.243  -0.193  24.274  0.00  0.00    -0.330 NA
ATOM     27  H   UNL     1       5.059  -0.312  25.270  0.00  0.00    +0.118 HD
ATOM     28  H   UNL     1       6.111  -0.691  24.083  0.00  0.00    +0.118 HD
ENDBRANCH  20   8
ENDBRANCH  18  20
ENDBRANCH  17  18
ENDBRANCH  11   6
BRANCH  10   1
ATOM      1  O   UNL     1      -0.046  -1.141  25.979  0.00  0.00    -0.387 OA
ATOM     24  H   UNL     1       0.919  -1.067  25.891  0.00  0.00    +0.210 HD
ENDBRANCH  10   1
BRANCH  12   2
ATOM      2  O   UNL     1      -2.565  -2.606  23.767  0.00  0.00    -0.389 OA
ATOM     25  H   UNL     1      -2.170  -2.214  22.969  0.00  0.00    +0.210 HD
ENDBRANCH  12   2
TORSDOF 9
ENDMDL
MODEL 2
REMARK VINA RESULT:      -4.5      1.714      7.229
REMARK  Name = 7049320
REMARK  10 active torsions:
REMARK  status: ('A' for Active; 'I' for Inactive)
REMARK    1  A    between atoms: O_1  and  C_10
REMARK    2  A    between atoms: O_2  and  C_12
REMARK    3  A    between atoms: N_6  and  C_11
REMARK    4  A    between atoms: N_7  and  C_19
REMARK    5  A    between atoms: N_8  and  C_20
REMARK    6  A    between atoms: C_14  and  C_16
REMARK    7  A    between atoms: C_17  and  C_18
REMARK    8  A    between atoms: C_18  and  C_20
REMARK    9  A    between atoms: C_19  and  C_21
REMARK   10  A    between atoms: C_19  and  C_22
REMARK                            x       y       z     vdW  Elec       q    Type
REMARK                         _______ _______ _______ _____ _____    ______ ____
ROOT
ATOM     10  C   UNL     1      -2.493  -0.246  25.292  0.00  0.00    +0.167 C 
ATOM     11  C   UNL     1      -1.862   1.144  25.085  0.00  0.00    +0.127 C 
ATOM     12  C   UNL     1      -1.424  -1.323  25.508  0.00  0.00    +0.149 C 
ATOM     13  C   UNL     1      -0.405  -1.367  24.356  0.00  0.00    +0.074 C 
ATOM     14  C   UNL     1      -0.038  -0.007  23.833  0.00  0.00    +0.015 C 
ATOM     15  C   UNL     1      -0.677   1.127  24.157  0.00  0.00    +0.006 C 
ENDROOT
BRANCH  14  16
ATOM      3  O   UNL     1       1.023  -0.293  21.756  0.00  0.00    -0.271 OA
ATOM      7  N   UNL     1       2.222   0.657  23.516  0.00  0.00    -0.301 N 
ATOM     16  C   UNL     1       1.105   0.097  22.921  0.00  0.00    +0.240 C 
ATOM     26  H   UNL     1       2.177   0.940  24.491  0.00  0.00    +0.150 HD
BRANCH   7  19
ATOM     19  C   UNL     1       3.471   0.859  22.819  0.00  0.00    +0.156 C 
ATOM     21  C   UNL     1       3.417   0.273  21.417  0.00  0.00    +0.038 C 
BRANCH  19  22
ATOM      5  O   UNL     1       5.513   0.847  24.133  0.00  0.00    -0.274 OA
ATOM      9  N   UNL     1       4.409  -1.140  23.801  0.00  0.00    -0.328 N 
ATOM     22  C   UNL     1       4.581   0.218  23.636  0.00  0.00    +0.231 C 
ATOM     29  H   UNL     1       5.074  -1.688  24.337  0.00  0.00    +0.145 HD
ATOM     30  H   UNL     1       3.623  -1.644  23.401  0.00  0.00    +0.145 HD
ENDBRANCH  19  22
ENDBRANCH   7  19
ENDBRANCH  14  16
BRANCH  11   6
ATOM      4  O   UNL     1      -2.484   3.688  26.249  0.00  0.00    -0.276 OA
ATOM      6  N   UNL     1      -2.826   2.098  24.593  0.00  0.00    -0.306 N 
ATOM     17  C   UNL     1      -3.056   3.309  25.231  0.00  0.00    +0.215 C 
ATOM     23  H   UNL     1      -3.381   1.855  23.777  0.00  0.00    +0.149 HD
BRANCH  17  18
ATOM     18  C   UNL     1      -4.114   4.129  24.514  0.00  0.00    +0.110 C 
BRANCH  18  20
ATOM     20  C   UNL     1      -5.433   4.167  25.279  0.00  0.00    +0.087 C 
BRANCH  20   8
ATOM      8  N   UNL     1      -5.598   2.953  26.067  0.00  0.00    -0.330 NA
ATOM     27  H   UNL     1      -5.065   3.037  26.933  0.00  0.00    +0.118 HD
ATOM     28  H   UNL     1      -6.574   2.852  26.342  0.00  0.00    +0.118 HD
ENDBRANCH  20   8
ENDBRANCH  18  20
ENDBRANCH  17  18
ENDBRANCH  11   6
BRANCH  10   1
ATOM      1  O   UNL     1      -3.271  -0.595  24.144  0.00  0.00    -0.387 OA
ATOM     24  H   UNL     1      -3.633  -1.484  24.296  0.00  0.00    +0.210 HD
ENDBRANCH  10   1
BRANCH  12   2
ATOM      2  O   UNL     1      -0.752  -1.105  26.747  0.00  0.00    -0.389 OA
ATOM     25  H   UNL     1       0.204  -1.173  26.579  0.00  0.00    +0.210 HD
ENDBRANCH  12   2
TORSDOF 9
ENDMDL
MODEL 3
REMARK VINA RESULT:      -3.9      1.665      6.838
REMARK  Name = 7049320
REMARK  10 active torsions:
REMARK  status: ('A' for Active; 'I' for Inactive)
REMARK    1  A    between atoms: O_1  and  C_10
REMARK    2  A    between atoms: O_2  and  C_12
REMARK    3  A    between atoms: N_6  and  C_11
REMARK    4  A    between atoms: N_7  and  C_19
REMARK    5  A    between atoms: N_8  and  C_20
REMARK    6  A    between atoms: C_14  and  C_16
REMARK    7  A    between atoms: C_17  and  C_18
REMARK    8  A    between atoms: C_18  and  C_20
REMARK    9  A    between atoms: C_19  and  C_21
REMARK   10  A    between atoms: C_19  and  C_22
REMARK                            x       y       z     vdW  Elec       q    Type
REMARK                         _______ _______ _______ _____ _____    ______ ____
ROOT
ATOM     10  C   UNL     1      -3.075  -1.412  24.525  0.00  0.00    +0.167 C 
ATOM     11  C   UNL     1      -2.734  -0.180  25.383  0.00  0.00    +0.127 C 
ATOM     12  C   UNL     1      -1.841  -2.291  24.286  0.00  0.00    +0.149 C 
ATOM     13  C   UNL     1      -0.684  -1.503  23.649  0.00  0.00    +0.074 C 
ATOM     14  C   UNL     1      -0.546  -0.106  24.186  0.00  0.00    +0.015 C 
ATOM     15  C   UNL     1      -1.453   0.496  24.971  0.00  0.00    +0.006 C 
ENDROOT
BRANCH  14  16
ATOM      3  O   UNL     1       0.753   1.849  24.101  0.00  0.00    -0.271 OA
ATOM      7  N   UNL     1       1.637  -0.133  23.248  0.00  0.00    -0.301 N 
ATOM     16  C   UNL     1       0.666   0.647  23.851  0.00  0.00    +0.240 C 
ATOM     26  H   UNL     1       1.454  -1.119  23.086  0.00  0.00    +0.150 HD
BRANCH   7  19
ATOM     19  C   UNL     1       2.917   0.388  22.825  0.00  0.00    +0.156 C 
ATOM     21  C   UNL     1       3.109   0.218  21.326  0.00  0.00    +0.038 C 
BRANCH  19  22
ATOM      5  O   UNL     1       4.004  -1.548  23.808  0.00  0.00    -0.274 OA
ATOM      9  N   UNL     1       5.021   0.502  24.008  0.00  0.00    -0.328 N 
ATOM     22  C   UNL     1       4.006  -0.337  23.601  0.00  0.00    +0.231 C 
ATOM     29  H   UNL     1       5.817   0.143  24.526  0.00  0.00    +0.145 HD
ATOM     30  H   UNL     1       5.019   1.498  23.812  0.00  0.00    +0.145 HD
ENDBRANCH  19  22
ENDBRANCH   7  19
ENDBRANCH  14  16
BRANCH  11   6
ATOM      4  O   UNL     1      -3.209   1.791  23.356  0.00  0.00    -0.276 OA
ATOM      6  N   UNL     1      -3.799   0.792  25.367  0.00  0.00    -0.306 N 
ATOM     17  C   UNL     1      -3.946   1.710  24.336  0.00  0.00    +0.215 C 
ATOM     23  H   UNL     1      -4.436   0.831  26.158  0.00  0.00    +0.149 HD
BRANCH  17  18
ATOM     18  C   UNL     1      -5.143   2.617  24.557  0.00  0.00    +0.110 C 
BRANCH  18  20
ATOM     20  C   UNL     1      -4.892   3.647  25.654  0.00  0.00    +0.087 C 
BRANCH  20   8
ATOM      8  N   UNL     1      -3.463   3.877  25.817  0.00  0.00    -0.330 NA
ATOM     27  H   UNL     1      -3.222   3.820  26.807  0.00  0.00    +0.118 HD
ATOM     28  H   UNL     1      -2.940   3.135  25.353  0.00  0.00    +0.118 HD
ENDBRANCH  20   8
ENDBRANCH  18  20
ENDBRANCH  17  18
ENDBRANCH  11   6
BRANCH  10   1
ATOM      1  O   UNL     1      -3.589  -0.989  23.260  0.00  0.00    -0.387 OA
ATOM     24  H   UNL     1      -2.999  -1.340  22.572  0.00  0.00    +0.210 HD
ENDBRANCH  10   1
BRANCH  12   2
ATOM      2  O   UNL     1      -1.414  -2.881  25.513  0.00  0.00    -0.389 OA
ATOM     25  H   UNL     1      -0.859  -3.648  25.292  0.00  0.00    +0.210 HD
ENDBRANCH  12   2
TORSDOF 9
ENDMDL
MODEL 4
REMARK VINA RESULT:      -3.7      2.622      4.513
REMARK  Name = 7049320
REMARK  10 active torsions:
REMARK  status: ('A' for Active; 'I' for Inactive)
REMARK    1  A    between atoms: O_1  and  C_10
REMARK    2  A    between atoms: O_2  and  C_12
REMARK    3  A    between atoms: N_6  and  C_11
REMARK    4  A    between atoms: N_7  and  C_19
REMARK    5  A    between atoms: N_8  and  C_20
REMARK    6  A    between atoms: C_14  and  C_16
REMARK    7  A    between atoms: C_17  and  C_18
REMARK    8  A    between atoms: C_18  and  C_20
REMARK    9  A    between atoms: C_19  and  C_21
REMARK   10  A    between atoms: C_19  and  C_22
REMARK                            x       y       z     vdW  Elec       q    Type
REMARK                         _______ _______ _______ _____ _____    ______ ____
ROOT
ATOM     10  C   UNL     1       0.366   0.635  24.448  0.00  0.00    +0.167 C 
ATOM     11  C   UNL     1      -0.907   0.161  25.175  0.00  0.00    +0.127 C 
ATOM     12  C   UNL     1       0.648   2.118  24.715  0.00  0.00    +0.149 C 
ATOM     13  C   UNL     1      -0.545   3.012  24.337  0.00  0.00    +0.074 C 
ATOM     14  C   UNL     1      -1.876   2.405  24.677  0.00  0.00    +0.015 C 
ATOM     15  C   UNL     1      -2.052   1.131  25.062  0.00  0.00    +0.006 C 
ENDROOT
BRANCH  14  16
ATOM      3  O   UNL     1      -2.974   4.443  24.278  0.00  0.00    -0.271 OA
ATOM      7  N   UNL     1      -4.231   2.594  24.939  0.00  0.00    -0.301 N 
ATOM     16  C   UNL     1      -3.065   3.260  24.605  0.00  0.00    +0.240 C 
ATOM     26  H   UNL     1      -4.187   1.613  25.199  0.00  0.00    +0.150 HD
BRANCH   7  19
ATOM     19  C   UNL     1      -5.529   3.229  24.943  0.00  0.00    +0.156 C 
ATOM     21  C   UNL     1      -5.543   4.442  25.860  0.00  0.00    +0.038 C 
BRANCH  19  22
ATOM      5  O   UNL     1      -7.264   1.565  24.602  0.00  0.00    -0.274 OA
ATOM      9  N   UNL     1      -6.590   2.022  26.749  0.00  0.00    -0.328 N 
ATOM     22  C   UNL     1      -6.560   2.201  25.382  0.00  0.00    +0.231 C 
ATOM     29  H   UNL     1      -7.226   1.356  27.173  0.00  0.00    +0.145 HD
ATOM     30  H   UNL     1      -5.987   2.541  27.381  0.00  0.00    +0.145 HD
ENDBRANCH  19  22
ENDBRANCH   7  19
ENDBRANCH  14  16
BRANCH  11   6
ATOM      4  O   UNL     1      -3.078  -1.391  26.219  0.00  0.00    -0.276 OA
ATOM      6  N   UNL     1      -1.341  -1.130  24.702  0.00  0.00    -0.306 N 
ATOM     17  C   UNL     1      -2.409  -1.806  25.276  0.00  0.00    +0.215 C 
ATOM     23  H   UNL     1      -0.820  -1.575  23.950  0.00  0.00    +0.149 HD
BRANCH  17  18
ATOM     18  C   UNL     1      -2.662  -3.139  24.595  0.00  0.00    +0.110 C 
BRANCH  18  20
ATOM     20  C   UNL     1      -3.981  -3.155  23.829  0.00  0.00    +0.087 C 
BRANCH  20   8
ATOM      8  N   UNL     1      -4.489  -1.800  23.663  0.00  0.00    -0.330 NA
ATOM     27  H   UNL     1      -3.706  -1.147  23.629  0.00  0.00    +0.118 HD
ATOM     28  H   UNL     1      -4.968  -1.719  22.767  0.00  0.00    +0.118 HD
ENDBRANCH  20   8
ENDBRANCH  18  20
ENDBRANCH  17  18
ENDBRANCH  11   6
BRANCH  10   1
ATOM      1  O   UNL     1       0.212   0.443  23.039  0.00  0.00    -0.387 OA
ATOM     24  H   UNL     1       1.037   0.051  22.706  0.00  0.00    +0.210 HD
ENDBRANCH  10   1
BRANCH  12   2
ATOM      2  O   UNL     1       0.990   2.312  26.086  0.00  0.00    -0.389 OA
ATOM     25  H   UNL     1       1.283   3.234  26.188  0.00  0.00    +0.210 HD
ENDBRANCH  12   2
TORSDOF 9
ENDMDL
MODEL 5
REMARK VINA RESULT:      -3.4      2.229      7.404
REMARK  Name = 7049320
REMARK  10 active torsions:
REMARK  status: ('A' for Active; 'I' for Inactive)
REMARK    1  A    between atoms: O_1  and  C_10
REMARK    2  A    between atoms: O_2  and  C_12
REMARK    3  A    between atoms: N_6  and  C_11
REMARK    4  A    between atoms: N_7  and  C_19
REMARK    5  A    between atoms: N_8  and  C_20
REMARK    6  A    between atoms: C_14  and  C_16
REMARK    7  A    between atoms: C_17  and  C_18
REMARK    8  A    between atoms: C_18  and  C_20
REMARK    9  A    between atoms: C_19  and  C_21
REMARK   10  A    between atoms: C_19  and  C_22
REMARK                            x       y       z     vdW  Elec       q    Type
REMARK                         _______ _______ _______ _____ _____    ______ ____
ROOT
ATOM     10  C   UNL     1      -2.288   4.122  25.245  0.00  0.00    +0.167 C 
ATOM     11  C   UNL     1      -2.669   3.284  24.011  0.00  0.00    +0.127 C 
ATOM     12  C   UNL     1      -0.779   4.389  25.301  0.00  0.00    +0.149 C 
ATOM     13  C   UNL     1       0.041   3.088  25.268  0.00  0.00    +0.074 C 
ATOM     14  C   UNL     1      -0.527   2.049  24.342  0.00  0.00    +0.015 C 
ATOM     15  C   UNL     1      -1.736   2.128  23.766  0.00  0.00    +0.006 C 
ENDROOT
BRANCH  14  16
ATOM      3  O   UNL     1      -0.148  -0.261  24.156  0.00  0.00    -0.271 OA
ATOM      7  N   UNL     1       1.570   1.213  23.599  0.00  0.00    -0.301 N 
ATOM     16  C   UNL     1       0.298   0.879  24.029  0.00  0.00    +0.240 C 
ATOM     26  H   UNL     1       1.833   2.192  23.535  0.00  0.00    +0.150 HD
BRANCH   7  19
ATOM     19  C   UNL     1       2.564   0.230  23.235  0.00  0.00    +0.156 C 
ATOM     21  C   UNL     1       3.960   0.690  23.626  0.00  0.00    +0.038 C 
BRANCH  19  22
ATOM      5  O   UNL     1       1.500  -0.536  21.191  0.00  0.00    -0.274 OA
ATOM      9  N   UNL     1       3.564   0.462  21.047  0.00  0.00    -0.328 N 
ATOM     22  C   UNL     1       2.468  -0.012  21.737  0.00  0.00    +0.231 C 
ATOM     29  H   UNL     1       3.622   0.375  20.038  0.00  0.00    +0.145 HD
ATOM     30  H   UNL     1       4.348   0.912  21.509  0.00  0.00    +0.145 HD
ENDBRANCH  19  22
ENDBRANCH   7  19
ENDBRANCH  14  16
BRANCH  11   6
ATOM      4  O   UNL     1      -3.486   0.806  25.198  0.00  0.00    -0.276 OA
ATOM      6  N   UNL     1      -4.018   2.782  24.103  0.00  0.00    -0.306 N 
ATOM     17  C   UNL     1      -4.313   1.564  24.700  0.00  0.00    +0.215 C 
ATOM     23  H   UNL     1      -4.769   3.321  23.680  0.00  0.00    +0.149 HD
BRANCH  17  18
ATOM     18  C   UNL     1      -5.802   1.269  24.668  0.00  0.00    +0.110 C 
BRANCH  18  20
ATOM     20  C   UNL     1      -6.533   1.849  25.875  0.00  0.00    +0.087 C 
BRANCH  20   8
ATOM      8  N   UNL     1      -5.798   2.987  26.414  0.00  0.00    -0.330 NA
ATOM     27  H   UNL     1      -6.148   3.846  25.991  0.00  0.00    +0.118 HD
ATOM     28  H   UNL     1      -5.976   3.068  27.414  0.00  0.00    +0.118 HD
ENDBRANCH  20   8
ENDBRANCH  18  20
ENDBRANCH  17  18
ENDBRANCH  11   6
BRANCH  10   1
ATOM      1  O   UNL     1      -2.675   3.428  26.435  0.00  0.00    -0.387 OA
ATOM     24  H   UNL     1      -2.118   3.758  27.160  0.00  0.00    +0.210 HD
ENDBRANCH  10   1
BRANCH  12   2
ATOM      2  O   UNL     1      -0.392   5.239  24.223  0.00  0.00    -0.389 OA
ATOM     25  H   UNL     1      -1.079   5.176  23.537  0.00  0.00    +0.210 HD
ENDBRANCH  12   2
TORSDOF 9
ENDMDL
MODEL 6
REMARK VINA RESULT:      -3.3      2.556      7.070
REMARK  Name = 7049320
REMARK  10 active torsions:
REMARK  status: ('A' for Active; 'I' for Inactive)
REMARK    1  A    between atoms: O_1  and  C_10
REMARK    2  A    between atoms: O_2  and  C_12
REMARK    3  A    between atoms: N_6  and  C_11
REMARK    4  A    between atoms: N_7  and  C_19
REMARK    5  A    between atoms: N_8  and  C_20
REMARK    6  A    between atoms: C_14  and  C_16
REMARK    7  A    between atoms: C_17  and  C_18
REMARK    8  A    between atoms: C_18  and  C_20
REMARK    9  A    between atoms: C_19  and  C_21
REMARK   10  A    between atoms: C_19  and  C_22
REMARK                            x       y       z     vdW  Elec       q    Type
REMARK                         _______ _______ _______ _____ _____    ______ ____
ROOT
ATOM     10  C   UNL     1      -1.932   2.538  25.287  0.00  0.00    +0.167 C 
ATOM     11  C   UNL     1      -2.143   1.967  23.873  0.00  0.00    +0.127 C 
ATOM     12  C   UNL     1      -0.585   3.261  25.408  0.00  0.00    +0.149 C 
ATOM     13  C   UNL     1       0.596   2.356  25.018  0.00  0.00    +0.074 C 
ATOM     14  C   UNL     1       0.299   1.462  23.847  0.00  0.00    +0.015 C 
ATOM     15  C   UNL     1      -0.921   1.285  23.318  0.00  0.00    +0.006 C 
ENDROOT
BRANCH  14  16
ATOM      3  O   UNL     1       1.258  -0.368  22.728  0.00  0.00    -0.271 OA
ATOM      7  N   UNL     1       2.604   1.458  23.267  0.00  0.00    -0.301 N 
ATOM     16  C   UNL     1       1.417   0.748  23.223  0.00  0.00    +0.240 C 
ATOM     26  H   UNL     1       2.621   2.374  23.707  0.00  0.00    +0.150 HD
BRANCH   7  19
ATOM     19  C   UNL     1       3.844   0.957  22.719  0.00  0.00    +0.156 C 
ATOM     21  C   UNL     1       3.599   0.152  21.453  0.00  0.00    +0.038 C 
BRANCH  19  22
ATOM      5  O   UNL     1       5.300   0.562  24.622  0.00  0.00    -0.274 OA
ATOM      9  N   UNL     1       4.149  -1.216  23.733  0.00  0.00    -0.328 N 
ATOM     22  C   UNL     1       4.526   0.110  23.782  0.00  0.00    +0.231 C 
ATOM     29  H   UNL     1       4.522  -1.888  24.395  0.00  0.00    +0.145 HD
ATOM     30  H   UNL     1       3.492  -1.572  23.045  0.00  0.00    +0.145 HD
ENDBRANCH  19  22
ENDBRANCH   7  19
ENDBRANCH  14  16
BRANCH  11   6
ATOM      4  O   UNL     1      -2.106  -0.778  24.695  0.00  0.00    -0.276 OA
ATOM      6  N   UNL     1      -3.251   1.046  23.830  0.00  0.00    -0.306 N 
ATOM     17  C   UNL     1      -3.133  -0.271  24.252  0.00  0.00    +0.215 C 
ATOM     23  H   UNL     1      -4.135   1.363  23.438  0.00  0.00    +0.149 HD
BRANCH  17  18
ATOM     18  C   UNL     1      -4.441  -1.028  24.105  0.00  0.00    +0.110 C 
BRANCH  18  20
ATOM     20  C   UNL     1      -4.223  -2.507  23.801  0.00  0.00    +0.087 C 
BRANCH  20   8
ATOM      8  N   UNL     1      -3.550  -3.160  24.916  0.00  0.00    -0.330 NA
ATOM     27  H   UNL     1      -3.034  -3.969  24.573  0.00  0.00    +0.118 HD
ATOM     28  H   UNL     1      -2.857  -2.529  25.317  0.00  0.00    +0.118 HD
ENDBRANCH  20   8
ENDBRANCH  18  20
ENDBRANCH  17  18
ENDBRANCH  11   6
BRANCH  10   1
ATOM      1  O   UNL     1      -1.970   1.476  26.244  0.00  0.00    -0.387 OA
ATOM     24  H   UNL     1      -2.903   1.239  26.380  0.00  0.00    +0.210 HD
ENDBRANCH  10   1
BRANCH  12   2
ATOM      2  O   UNL     1      -0.587   4.438  24.601  0.00  0.00    -0.389 OA
ATOM     25  H   UNL     1      -1.502   4.595  24.312  0.00  0.00    +0.210 HD
ENDBRANCH  12   2
TORSDOF 9
ENDMDL
MODEL 7
REMARK VINA RESULT:      -3.0      2.478      7.016
REMARK  Name = 7049320
REMARK  10 active torsions:
REMARK  status: ('A' for Active; 'I' for Inactive)
REMARK    1  A    between atoms: O_1  and  C_10
REMARK    2  A    between atoms: O_2  and  C_12
REMARK    3  A    between atoms: N_6  and  C_11
REMARK    4  A    between atoms: N_7  and  C_19
REMARK    5  A    between atoms: N_8  and  C_20
REMARK    6  A    between atoms: C_14  and  C_16
REMARK    7  A    between atoms: C_17  and  C_18
REMARK    8  A    between atoms: C_18  and  C_20
REMARK    9  A    between atoms: C_19  and  C_21
REMARK   10  A    between atoms: C_19  and  C_22
REMARK                            x       y       z     vdW  Elec       q    Type
REMARK                         _______ _______ _______ _____ _____    ______ ____
ROOT
ATOM     10  C   UNL     1      -2.924   4.833  25.382  0.00  0.00    +0.167 C 
ATOM     11  C   UNL     1      -3.306   3.828  24.279  0.00  0.00    +0.127 C 
ATOM     12  C   UNL     1      -1.429   5.171  25.343  0.00  0.00    +0.149 C 
ATOM     13  C   UNL     1      -0.548   3.914  25.441  0.00  0.00    +0.074 C 
ATOM     14  C   UNL     1      -1.096   2.741  24.677  0.00  0.00    +0.015 C 
ATOM     15  C   UNL     1      -2.327   2.692  24.145  0.00  0.00    +0.006 C 
ENDROOT
BRANCH  14  16
ATOM      3  O   UNL     1       0.976   1.716  24.259  0.00  0.00    -0.271 OA
ATOM      7  N   UNL     1      -0.906   0.375  24.573  0.00  0.00    -0.301 N 
ATOM     16  C   UNL     1      -0.227   1.577  24.481  0.00  0.00    +0.240 C 
ATOM     26  H   UNL     1      -1.905   0.380  24.757  0.00  0.00    +0.150 HD
BRANCH   7  19
ATOM     19  C   UNL     1      -0.262  -0.909  24.412  0.00  0.00    +0.156 C 
ATOM     21  C   UNL     1       0.555  -0.957  23.131  0.00  0.00    +0.038 C 
BRANCH  19  22
ATOM      5  O   UNL     1      -1.217  -3.071  23.854  0.00  0.00    -0.274 OA
ATOM      9  N   UNL     1      -2.449  -1.628  25.150  0.00  0.00    -0.328 N 
ATOM     22  C   UNL     1      -1.338  -1.984  24.414  0.00  0.00    +0.231 C 
ATOM     29  H   UNL     1      -3.236  -2.261  25.242  0.00  0.00    +0.145 HD
ATOM     30  H   UNL     1      -2.527  -0.734  25.624  0.00  0.00    +0.145 HD
ENDBRANCH  19  22
ENDBRANCH   7  19
ENDBRANCH  14  16
BRANCH  11   6
ATOM      4  O   UNL     1      -4.002   1.050  24.394  0.00  0.00    -0.276 OA
ATOM      6  N   UNL     1      -4.625   3.284  24.488  0.00  0.00    -0.306 N 
ATOM     17  C   UNL     1      -4.862   1.917  24.527  0.00  0.00    +0.215 C 
ATOM     23  H   UNL     1      -5.410   3.925  24.567  0.00  0.00    +0.149 HD
BRANCH  17  18
ATOM     18  C   UNL     1      -6.330   1.608  24.760  0.00  0.00    +0.110 C 
BRANCH  18  20
ATOM     20  C   UNL     1      -6.687   1.583  26.243  0.00  0.00    +0.087 C 
BRANCH  20   8
ATOM      8  N   UNL     1      -6.069   2.707  26.933  0.00  0.00    -0.330 NA
ATOM     27  H   UNL     1      -6.260   2.638  27.932  0.00  0.00    +0.118 HD
ATOM     28  H   UNL     1      -5.056   2.657  26.832  0.00  0.00    +0.118 HD
ENDBRANCH  20   8
ENDBRANCH  18  20
ENDBRANCH  17  18
ENDBRANCH  11   6
BRANCH  10   1
ATOM      1  O   UNL     1      -3.236   4.281  26.663  0.00  0.00    -0.387 OA
ATOM     24  H   UNL     1      -2.806   3.411  26.719  0.00  0.00    +0.210 HD
ENDBRANCH  10   1
BRANCH  12   2
ATOM      2  O   UNL     1      -1.120   5.893  24.151  0.00  0.00    -0.389 OA
ATOM     25  H   UNL     1      -1.383   6.819  24.292  0.00  0.00    +0.210 HD
ENDBRANCH  12   2
TORSDOF 9
ENDMDL
MODEL 8
REMARK VINA RESULT:      -2.7      1.995      6.479
REMARK  Name = 7049320
REMARK  10 active torsions:
REMARK  status: ('A' for Active; 'I' for Inactive)
REMARK    1  A    between atoms: O_1  and  C_10
REMARK    2  A    between atoms: O_2  and  C_12
REMARK    3  A    between atoms: N_6  and  C_11
REMARK    4  A    between atoms: N_7  and  C_19
REMARK    5  A    between atoms: N_8  and  C_20
REMARK    6  A    between atoms: C_14  and  C_16
REMARK    7  A    between atoms: C_17  and  C_18
REMARK    8  A    between atoms: C_18  and  C_20
REMARK    9  A    between atoms: C_19  and  C_21
REMARK   10  A    between atoms: C_19  and  C_22
REMARK                            x       y       z     vdW  Elec       q    Type
REMARK                         _______ _______ _______ _____ _____    ______ ____
ROOT
ATOM     10  C   UNL     1      -2.714  -0.521  24.911  0.00  0.00    +0.167 C 
ATOM     11  C   UNL     1      -1.625   0.440  25.422  0.00  0.00    +0.127 C 
ATOM     12  C   UNL     1      -2.124  -1.875  24.503  0.00  0.00    +0.149 C 
ATOM     13  C   UNL     1      -1.009  -1.729  23.454  0.00  0.00    +0.074 C 
ATOM     14  C   UNL     1      -0.123  -0.538  23.688  0.00  0.00    +0.015 C 
ATOM     15  C   UNL     1      -0.382   0.437  24.572  0.00  0.00    +0.006 C 
ENDROOT
BRANCH  14  16
ATOM      3  O   UNL     1       1.100  -0.132  21.724  0.00  0.00    -0.271 OA
ATOM      7  N   UNL     1       2.247  -0.724  23.666  0.00  0.00    -0.301 N 
ATOM     16  C   UNL     1       1.119  -0.439  22.916  0.00  0.00    +0.240 C 
ATOM     26  H   UNL     1       2.143  -0.972  24.646  0.00  0.00    +0.150 HD
BRANCH   7  19
ATOM     19  C   UNL     1       3.585  -0.695  23.123  0.00  0.00    +0.156 C 
ATOM     21  C   UNL     1       4.483  -1.705  23.820  0.00  0.00    +0.038 C 
BRANCH  19  22
ATOM      5  O   UNL     1       5.283   0.970  23.614  0.00  0.00    -0.274 OA
ATOM      9  N   UNL     1       3.204   1.685  22.948  0.00  0.00    -0.328 N 
ATOM     22  C   UNL     1       4.129   0.717  23.275  0.00  0.00    +0.231 C 
ATOM     29  H   UNL     1       3.443   2.670  22.995  0.00  0.00    +0.145 HD
ATOM     30  H   UNL     1       2.260   1.461  22.650  0.00  0.00    +0.145 HD
ENDBRANCH  19  22
ENDBRANCH   7  19
ENDBRANCH  14  16
BRANCH  11   6
ATOM      4  O   UNL     1      -1.962   2.300  23.267  0.00  0.00    -0.276 OA
ATOM      6  N   UNL     1      -2.114   1.793  25.527  0.00  0.00    -0.306 N 
ATOM     17  C   UNL     1      -2.241   2.620  24.419  0.00  0.00    +0.215 C 
ATOM     23  H   UNL     1      -2.331   2.163  26.449  0.00  0.00    +0.149 HD
BRANCH  17  18
ATOM     18  C   UNL     1      -2.777   3.989  24.799  0.00  0.00    +0.110 C 
BRANCH  18  20
ATOM     20  C   UNL     1      -1.662   4.969  25.151  0.00  0.00    +0.087 C 
BRANCH  20   8
ATOM      8  N   UNL     1      -0.359   4.354  24.936  0.00  0.00    -0.330 NA
ATOM     27  H   UNL     1      -0.378   3.816  24.070  0.00  0.00    +0.118 HD
ATOM     28  H   UNL     1       0.346   5.078  24.807  0.00  0.00    +0.118 HD
ENDBRANCH  20   8
ENDBRANCH  18  20
ENDBRANCH  17  18
ENDBRANCH  11   6
BRANCH  10   1
ATOM      1  O   UNL     1      -3.369   0.056  23.778  0.00  0.00    -0.387 OA
ATOM     24  H   UNL     1      -3.339   1.022  23.883  0.00  0.00    +0.210 HD
ENDBRANCH  10   1
BRANCH  12   2
ATOM      2  O   UNL     1      -1.628  -2.560  25.652  0.00  0.00    -0.389 OA
ATOM     25  H   UNL     1      -0.720  -2.248  25.811  0.00  0.00    +0.210 HD
ENDBRANCH  12   2
TORSDOF 9
ENDMDL
MODEL 9
REMARK VINA RESULT:      -2.2      2.777      5.817
REMARK  Name = 7049320
REMARK  10 active torsions:
REMARK  status: ('A' for Active; 'I' for Inactive)
REMARK    1  A    between atoms: O_1  and  C_10
REMARK    2  A    between atoms: O_2  and  C_12
REMARK    3  A    between atoms: N_6  and  C_11
REMARK    4  A    between atoms: N_7  and  C_19
REMARK    5  A    between atoms: N_8  and  C_20
REMARK    6  A    between atoms: C_14  and  C_16
REMARK    7  A    between atoms: C_17  and  C_18
REMARK    8  A    between atoms: C_18  and  C_20
REMARK    9  A    between atoms: C_19  and  C_21
REMARK   10  A    between atoms: C_19  and  C_22
REMARK                            x       y       z     vdW  Elec       q    Type
REMARK                         _______ _______ _______ _____ _____    ______ ____
ROOT
ATOM     10  C   UNL     1      -3.554  -2.124  24.394  0.00  0.00    +0.167 C 
ATOM     11  C   UNL     1      -3.595  -1.033  25.480  0.00  0.00    +0.127 C 
ATOM     12  C   UNL     1      -2.131  -2.650  24.176  0.00  0.00    +0.149 C 
ATOM     13  C   UNL     1      -1.142  -1.522  23.834  0.00  0.00    +0.074 C 
ATOM     14  C   UNL     1      -1.390  -0.258  24.609  0.00  0.00    +0.015 C 
ATOM     15  C   UNL     1      -2.480  -0.029  25.357  0.00  0.00    +0.006 C 
ENDROOT
BRANCH  14  16
ATOM      3  O   UNL     1       0.700   0.610  23.979  0.00  0.00    -0.271 OA
ATOM      7  N   UNL     1      -0.745   1.943  25.232  0.00  0.00    -0.301 N 
ATOM     16  C   UNL     1      -0.367   0.792  24.564  0.00  0.00    +0.240 C 
ATOM     26  H   UNL     1      -1.653   1.980  25.685  0.00  0.00    +0.150 HD
BRANCH   7  19
ATOM     19  C   UNL     1       0.098   3.113  25.328  0.00  0.00    +0.156 C 
ATOM     21  C   UNL     1       0.813   3.166  26.668  0.00  0.00    +0.038 C 
BRANCH  19  22
ATOM      5  O   UNL     1      -0.358   5.400  24.651  0.00  0.00    -0.274 OA
ATOM      9  N   UNL     1      -2.087   4.135  25.481  0.00  0.00    -0.328 N 
ATOM     22  C   UNL     1      -0.771   4.343  25.123  0.00  0.00    +0.231 C 
ATOM     29  H   UNL     1      -2.776   4.873  25.384  0.00  0.00    +0.145 HD
ATOM     30  H   UNL     1      -2.419   3.250  25.851  0.00  0.00    +0.145 HD
ENDBRANCH  19  22
ENDBRANCH   7  19
ENDBRANCH  14  16
BRANCH  11   6
ATOM      4  O   UNL     1      -4.045   1.665  24.627  0.00  0.00    -0.276 OA
ATOM      6  N   UNL     1      -4.855  -0.333  25.486  0.00  0.00    -0.306 N 
ATOM     17  C   UNL     1      -4.971   0.980  25.051  0.00  0.00    +0.215 C 
ATOM     23  H   UNL     1      -5.674  -0.805  25.860  0.00  0.00    +0.149 HD
BRANCH  17  18
ATOM     18  C   UNL     1      -6.400   1.483  25.158  0.00  0.00    +0.110 C 
BRANCH  18  20
ATOM     20  C   UNL     1      -6.560   2.548  26.238  0.00  0.00    +0.087 C 
BRANCH  20   8
ATOM      8  N   UNL     1      -5.999   3.815  25.787  0.00  0.00    -0.330 NA
ATOM     27  H   UNL     1      -5.976   3.832  24.768  0.00  0.00    +0.118 HD
ATOM     28  H   UNL     1      -6.608   4.581  26.072  0.00  0.00    +0.118 HD
ENDBRANCH  20   8
ENDBRANCH  18  20
ENDBRANCH  17  18
ENDBRANCH  11   6
BRANCH  10   1
ATOM      1  O   UNL     1      -4.040  -1.589  23.159  0.00  0.00    -0.387 OA
ATOM     24  H   UNL     1      -3.350  -1.728  22.489  0.00  0.00    +0.210 HD
ENDBRANCH  10   1
BRANCH  12   2
ATOM      2  O   UNL     1      -1.687  -3.356  25.333  0.00  0.00    -0.389 OA
ATOM     25  H   UNL     1      -2.344  -4.046  25.526  0.00  0.00    +0.210 HD
ENDBRANCH  12   2
TORSDOF 9
ENDMDL
MODEL 10
REMARK VINA RESULT:      -2.1      2.454      4.604
REMARK  Name = 7049320
REMARK  10 active torsions:
REMARK  status: ('A' for Active; 'I' for Inactive)
REMARK    1  A    between atoms: O_1  and  C_10
REMARK    2  A    between atoms: O_2  and  C_12
REMARK    3  A    between atoms: N_6  and  C_11
REMARK    4  A    between atoms: N_7  and  C_19
REMARK    5  A    between atoms: N_8  and  C_20
REMARK    6  A    between atoms: C_14  and  C_16
REMARK    7  A    between atoms: C_17  and  C_18
REMARK    8  A    between atoms: C_18  and  C_20
REMARK    9  A    between atoms: C_19  and  C_21
REMARK   10  A    between atoms: C_19  and  C_22
REMARK                            x       y       z     vdW  Elec       q    Type
REMARK                         _______ _______ _______ _____ _____    ______ ____
ROOT
ATOM     10  C   UNL     1       1.026  -0.576  22.857  0.00  0.00    +0.167 C 
ATOM     11  C   UNL     1       0.207  -0.794  24.143  0.00  0.00    +0.127 C 
ATOM     12  C   UNL     1       1.950   0.642  22.977  0.00  0.00    +0.149 C 
ATOM     13  C   UNL     1       1.177   1.922  23.339  0.00  0.00    +0.074 C 
ATOM     14  C   UNL     1       0.071   1.690  24.329  0.00  0.00    +0.015 C 
ATOM     15  C   UNL     1      -0.369   0.479  24.705  0.00  0.00    +0.006 C 
ENDROOT
BRANCH  14  16
ATOM      3  O   UNL     1      -0.056   3.414  25.920  0.00  0.00    -0.271 OA
ATOM      7  N   UNL     1      -1.738   3.231  24.316  0.00  0.00    -0.301 N 
ATOM     16  C   UNL     1      -0.562   2.860  24.945  0.00  0.00    +0.240 C 
ATOM     26  H   UNL     1      -2.066   2.696  23.517  0.00  0.00    +0.150 HD
BRANCH   7  19
ATOM     19  C   UNL     1      -2.542   4.353  24.744  0.00  0.00    +0.156 C 
ATOM     21  C   UNL     1      -1.670   5.516  25.188  0.00  0.00    +0.038 C 
BRANCH  19  22
ATOM      5  O   UNL     1      -3.320   4.248  27.042  0.00  0.00    -0.274 OA
ATOM      9  N   UNL     1      -4.453   3.048  25.444  0.00  0.00    -0.328 N 
ATOM     22  C   UNL     1      -3.446   3.886  25.875  0.00  0.00    +0.231 C 
ATOM     29  H   UNL     1      -5.133   2.674  26.096  0.00  0.00    +0.145 HD
ATOM     30  H   UNL     1      -4.557   2.774  24.472  0.00  0.00    +0.145 HD
ENDBRANCH  19  22
ENDBRANCH   7  19
ENDBRANCH  14  16
BRANCH  11   6
ATOM      4  O   UNL     1      -1.995  -1.278  25.913  0.00  0.00    -0.276 OA
ATOM      6  N   UNL     1      -0.863  -1.739  23.940  0.00  0.00    -0.306 N 
ATOM     17  C   UNL     1      -1.889  -1.902  24.860  0.00  0.00    +0.215 C 
ATOM     23  H   UNL     1      -0.838  -2.333  23.115  0.00  0.00    +0.149 HD
BRANCH  17  18
ATOM     18  C   UNL     1      -2.885  -2.955  24.410  0.00  0.00    +0.110 C 
BRANCH  18  20
ATOM     20  C   UNL     1      -4.167  -2.340  23.858  0.00  0.00    +0.087 C 
BRANCH  20   8
ATOM      8  N   UNL     1      -4.138  -0.890  24.004  0.00  0.00    -0.330 NA
ATOM     27  H   UNL     1      -3.171  -0.568  23.989  0.00  0.00    +0.118 HD
ATOM     28  H   UNL     1      -4.597  -0.455  23.204  0.00  0.00    +0.118 HD
ENDBRANCH  20   8
ENDBRANCH  18  20
ENDBRANCH  17  18
ENDBRANCH  11   6
BRANCH  10   1
ATOM      1  O   UNL     1       0.140  -0.373  21.753  0.00  0.00    -0.387 OA
ATOM     24  H   UNL     1      -0.546   0.253  22.041  0.00  0.00    +0.210 HD
ENDBRANCH  10   1
BRANCH  12   2
ATOM      2  O   UNL     1       2.966   0.393  23.947  0.00  0.00    -0.389 OA
ATOM     25  H   UNL     1       3.757   0.891  23.678  0.00  0.00    +0.210 HD
ENDBRANCH  12   2
TORSDOF 9
ENDMDL
