MODEL 1
REMARK VINA RESULT:       0.6      0.000      0.000
REMARK  Name = 28960549
REMARK  6 active torsions:
REMARK  status: ('A' for Active; 'I' for Inactive)
REMARK    1  A    between atoms: O_3  and  C_12
REMARK    2  A    between atoms: N_6  and  C_11
REMARK    3  A    between atoms: N_7  and  C_13
REMARK    4  A    between atoms: N_9  and  C_24
REMARK    5  A    between atoms: C_21  and  C_22
REMARK    6  A    between atoms: C_27  and  C_30
REMARK                            x       y       z     vdW  Elec       q    Type
REMARK                         _______ _______ _______ _____ _____    ______ ____
ROOT
ATOM      1  O   UNL     1      -3.616   3.180  26.764  0.00  0.00    -0.342 OA
ATOM      2  O   UNL     1      -5.360   4.442  25.899  0.00  0.00    -0.347 OA
ATOM     11  C   UNL     1      -4.435   2.654  24.558  0.00  0.00    +0.143 C 
ATOM     12  C   UNL     1      -3.415   3.627  23.925  0.00  0.00    +0.159 C 
ATOM     13  C   UNL     1      -2.439   4.245  24.949  0.00  0.00    +0.136 C 
ATOM     14  C   UNL     1      -4.814   3.115  25.978  0.00  0.00    +0.270 C 
ATOM     15  C   UNL     1      -3.063   4.433  26.348  0.00  0.00    +0.170 C 
ATOM     16  C   UNL     1      -4.307   5.301  26.360  0.00  0.00    +0.196 C 
ENDROOT
BRANCH  13   7
ATOM      5  O   UNL     1      -1.279   2.639  22.881  0.00  0.00    -0.252 OA
ATOM      7  N   UNL     1      -1.244   3.435  25.052  0.00  0.00    -0.291 N 
ATOM      9  N   UNL     1       0.414   2.002  24.378  0.00  0.00    -0.269 N 
ATOM     23  C   UNL     1      -0.746   2.679  23.987  0.00  0.00    +0.304 C 
ATOM     31  H   UNL     1      -0.794   3.353  25.958  0.00  0.00    +0.151 HD
ATOM     35  H   UNL     1       0.724   2.144  25.336  0.00  0.00    +0.156 HD
BRANCH   9  24
ATOM     24  C   UNL     1       1.217   1.137  23.601  0.00  0.00    +0.036 A 
ATOM     25  C   UNL     1       2.604   1.143  23.757  0.00  0.00    +0.042 A 
ATOM     26  C   UNL     1       0.623   0.276  22.677  0.00  0.00    +0.023 A 
ATOM     27  C   UNL     1       3.396   0.290  22.990  0.00  0.00    +0.054 A 
ATOM     28  C   UNL     1       1.416  -0.578  21.910  0.00  0.00    +0.003 A 
ATOM     29  C   UNL     1       2.803  -0.571  22.067  0.00  0.00    +0.019 A 
BRANCH  27  30
ATOM     10  N   UNL     1       5.969   0.302  23.279  0.00  0.00    -0.191 NA
ATOM     30  C   UNL     1       4.816   0.297  23.149  0.00  0.00    +0.099 C 
ENDBRANCH  27  30
ENDBRANCH   9  24
ENDBRANCH  13   7
BRANCH  11   6
ATOM      6  N   UNL     1      -3.877   1.301  24.609  0.00  0.00    -0.293 NA
ATOM     17  C   UNL     1      -4.715   0.430  25.445  0.00  0.00    +0.085 C 
ATOM     18  C   UNL     1      -3.731   0.754  23.252  0.00  0.00    +0.085 C 
ATOM     19  C   UNL     1      -4.116  -0.973  25.553  0.00  0.00    +0.028 C 
ATOM     20  C   UNL     1      -3.099  -0.639  23.284  0.00  0.00    +0.028 C 
ATOM     21  C   UNL     1      -3.898  -1.591  24.172  0.00  0.00    +0.077 C 
BRANCH  21  22
ATOM      4  O   UNL     1      -3.755  -3.972  24.292  0.00  0.00    -0.276 OA
ATOM      8  N   UNL     1      -1.808  -2.754  24.431  0.00  0.00    -0.329 N 
ATOM     22  C   UNL     1      -3.169  -2.892  24.296  0.00  0.00    +0.214 C 
ATOM     33  H   UNL     1      -1.350  -1.848  24.444  0.00  0.00    +0.145 HD
ATOM     34  H   UNL     1      -1.209  -3.567  24.528  0.00  0.00    +0.145 HD
ENDBRANCH  21  22
ENDBRANCH  11   6
BRANCH  12   3
ATOM      3  O   UNL     1      -4.152   4.683  23.295  0.00  0.00    -0.388 OA
ATOM     32  H   UNL     1      -3.840   4.752  22.376  0.00  0.00    +0.210 HD
ENDBRANCH  12   3
TORSDOF 6
ENDMDL
MODEL 2
REMARK VINA RESULT:       3.6      2.094      5.095
REMARK  Name = 28960549
REMARK  6 active torsions:
REMARK  status: ('A' for Active; 'I' for Inactive)
REMARK    1  A    between atoms: O_3  and  C_12
REMARK    2  A    between atoms: N_6  and  C_11
REMARK    3  A    between atoms: N_7  and  C_13
REMARK    4  A    between atoms: N_9  and  C_24
REMARK    5  A    between atoms: C_21  and  C_22
REMARK    6  A    between atoms: C_27  and  C_30
REMARK                            x       y       z     vdW  Elec       q    Type
REMARK                         _______ _______ _______ _____ _____    ______ ____
ROOT
ATOM      1  O   UNL     1      -4.063  -0.399  23.112  0.00  0.00    -0.342 OA
ATOM      2  O   UNL     1      -5.237  -1.497  24.784  0.00  0.00    -0.347 OA
ATOM     11  C   UNL     1      -3.600   0.170  25.409  0.00  0.00    +0.143 C 
ATOM     12  C   UNL     1      -2.495  -0.908  25.475  0.00  0.00    +0.159 C 
ATOM     13  C   UNL     1      -2.233  -1.603  24.121  0.00  0.00    +0.136 C 
ATOM     14  C   UNL     1      -4.686  -0.229  24.393  0.00  0.00    +0.270 C 
ATOM     15  C   UNL     1      -3.494  -1.707  23.237  0.00  0.00    +0.170 C 
ATOM     16  C   UNL     1      -4.647  -2.448  23.886  0.00  0.00    +0.196 C 
ENDROOT
BRANCH  13   7
ATOM      5  O   UNL     1       0.521  -1.408  24.879  0.00  0.00    -0.252 OA
ATOM      7  N   UNL     1      -1.186  -0.913  23.400  0.00  0.00    -0.291 N 
ATOM      9  N   UNL     1       0.922  -0.133  22.948  0.00  0.00    -0.269 N 
ATOM     23  C   UNL     1       0.139  -0.867  23.844  0.00  0.00    +0.304 C 
ATOM     31  H   UNL     1      -1.441  -0.374  22.578  0.00  0.00    +0.151 HD
ATOM     35  H   UNL     1       0.447   0.250  22.135  0.00  0.00    +0.156 HD
BRANCH   9  24
ATOM     24  C   UNL     1       2.305   0.146  23.032  0.00  0.00    +0.036 A 
ATOM     25  C   UNL     1       3.187  -0.829  23.499  0.00  0.00    +0.042 A 
ATOM     26  C   UNL     1       2.789   1.397  22.647  0.00  0.00    +0.023 A 
ATOM     27  C   UNL     1       4.552  -0.553  23.582  0.00  0.00    +0.054 A 
ATOM     28  C   UNL     1       4.153   1.673  22.729  0.00  0.00    +0.003 A 
ATOM     29  C   UNL     1       5.035   0.698  23.197  0.00  0.00    +0.019 A 
BRANCH  27  30
ATOM     10  N   UNL     1       6.188  -2.362  24.450  0.00  0.00    -0.191 NA
ATOM     30  C   UNL     1       5.455  -1.551  24.061  0.00  0.00    +0.099 C 
ENDBRANCH  27  30
ENDBRANCH   9  24
ENDBRANCH  13   7
BRANCH  11   6
ATOM      6  N   UNL     1      -3.022   1.463  25.034  0.00  0.00    -0.293 NA
ATOM     17  C   UNL     1      -3.929   2.558  25.404  0.00  0.00    +0.085 C 
ATOM     18  C   UNL     1      -1.701   1.634  25.656  0.00  0.00    +0.085 C 
ATOM     19  C   UNL     1      -3.363   3.912  24.970  0.00  0.00    +0.028 C 
ATOM     20  C   UNL     1      -1.059   2.956  25.231  0.00  0.00    +0.028 C 
ATOM     21  C   UNL     1      -1.968   4.141  25.549  0.00  0.00    +0.077 C 
BRANCH  21  22
ATOM      4  O   UNL     1      -1.961   6.472  25.029  0.00  0.00    -0.276 OA
ATOM      8  N   UNL     1      -0.138   5.213  24.413  0.00  0.00    -0.329 N 
ATOM     22  C   UNL     1      -1.374   5.395  24.986  0.00  0.00    +0.214 C 
ATOM     33  H   UNL     1       0.321   4.307  24.380  0.00  0.00    +0.145 HD
ATOM     34  H   UNL     1       0.362   5.990  23.994  0.00  0.00    +0.145 HD
ENDBRANCH  21  22
ENDBRANCH  11   6
BRANCH  12   3
ATOM      3  O   UNL     1      -2.906  -1.897  26.429  0.00  0.00    -0.388 OA
ATOM     32  H   UNL     1      -3.195  -2.682  25.933  0.00  0.00    +0.210 HD
ENDBRANCH  12   3
TORSDOF 6
ENDMDL
