MODEL 1
REMARK VINA RESULT:       0.1      0.000      0.000
REMARK  Name = 28963128
REMARK  8 active torsions:
REMARK  status: ('A' for Active; 'I' for Inactive)
REMARK    1  A    between atoms: O_1  and  C_11
REMARK    2  A    between atoms: N_4  and  C_15
REMARK    3  A    between atoms: C_8  and  C_18
REMARK    4  A    between atoms: C_10  and  C_20
REMARK    5  A    between atoms: C_13  and  C_19
REMARK    6  A    between atoms: C_19  and  C_21
REMARK    7  A    between atoms: C_19  and  C_22
REMARK    8  A    between atoms: C_23  and  C_28
REMARK                            x       y       z     vdW  Elec       q    Type
REMARK                         _______ _______ _______ _____ _____    ______ ____
ROOT
ATOM      8  C   UNL     1      -2.608  -1.093  25.076  0.00  0.00    -0.027 C 
ATOM      9  C   UNL     1      -2.131   0.146  24.248  0.00  0.00    +0.028 C 
ATOM     10  C   UNL     1      -0.566   0.277  24.290  0.00  0.00    +0.012 C 
ATOM     11  C   UNL     1      -2.920   1.427  24.644  0.00  0.00    +0.122 C 
ATOM     12  C   UNL     1      -4.138  -1.259  24.921  0.00  0.00    +0.007 C 
ATOM     13  C   UNL     1      -4.452   1.223  24.587  0.00  0.00    +0.029 C 
ATOM     14  C   UNL     1      -1.937  -2.366  24.512  0.00  0.00    +0.009 C 
ATOM     15  C   UNL     1       0.098  -1.036  23.791  0.00  0.00    +0.076 C 
ATOM     16  C   UNL     1      -4.917  -0.021  25.346  0.00  0.00    +0.007 C 
ATOM     17  C   UNL     1      -0.416  -2.286  24.503  0.00  0.00    +0.023 C 
ATOM     18  C   UNL     1      -2.271  -0.965  26.584  0.00  0.00    +0.011 C 
ATOM     20  C   UNL     1      -0.025   1.461  23.470  0.00  0.00    +0.010 C 
ENDROOT
BRANCH  15   4
ATOM      3  O   UNL     1       1.969   0.008  21.879  0.00  0.00    -0.270 OA
ATOM      4  N   UNL     1       1.540  -0.993  23.926  0.00  0.00    -0.308 N 
ATOM     23  C   UNL     1       2.360  -0.466  22.942  0.00  0.00    +0.247 C 
ATOM     33  H   UNL     1       1.943  -1.457  24.733  0.00  0.00    +0.149 HD
BRANCH  23  28
ATOM      6  N   UNL     1       5.734  -1.690  24.086  0.00  0.00    -0.243 NA
ATOM      7  N   UNL     1       5.993   0.512  23.141  0.00  0.00    -0.243 NA
ATOM     28  C   UNL     1       3.818  -0.518  23.221  0.00  0.00    +0.073 A 
ATOM     30  C   UNL     1       4.414  -1.610  23.817  0.00  0.00    +0.127 A 
ATOM     31  C   UNL     1       4.665   0.524  22.901  0.00  0.00    +0.127 A 
ATOM     32  C   UNL     1       6.453  -0.609  23.727  0.00  0.00    +0.221 A 
ENDBRANCH  23  28
ENDBRANCH  15   4
BRANCH  11   1
ATOM      1  O   UNL     1      -2.614   2.479  23.727  0.00  0.00    -0.391 OA
ATOM     34  H   UNL     1      -3.275   2.460  23.015  0.00  0.00    +0.210 HD
ENDBRANCH  11   1
BRANCH  13  19
ATOM     19  C   UNL     1      -5.209   2.451  25.105  0.00  0.00    +0.078 C 
ATOM     21  C   UNL     1      -6.651   2.446  24.631  0.00  0.00    +0.017 C 
BRANCH  19  22
ATOM      2  O   UNL     1      -4.925   4.260  23.600  0.00  0.00    -0.275 OA
ATOM      5  N   UNL     1      -3.409   4.124  25.355  0.00  0.00    -0.301 N 
ATOM     22  C   UNL     1      -4.508   3.693  24.614  0.00  0.00    +0.219 C 
ATOM     24  C   UNL     1      -2.674   5.321  24.941  0.00  0.00    +0.108 C 
ATOM     25  C   UNL     1      -2.918   3.497  26.589  0.00  0.00    +0.108 C 
ATOM     26  C   UNL     1      -1.184   5.022  24.792  0.00  0.00    +0.019 C 
ATOM     27  C   UNL     1      -1.432   3.164  26.473  0.00  0.00    +0.019 C 
ATOM     29  C   UNL     1      -0.618   4.390  26.063  0.00  0.00    +0.003 C 
ENDBRANCH  19  22
ENDBRANCH  13  19
TORSDOF 5
ENDMDL
