MODEL 1
REMARK VINA RESULT:      -4.6      0.000      0.000
REMARK  Name = 75536760
REMARK  6 active torsions:
REMARK  status: ('A' for Active; 'I' for Inactive)
REMARK    1  A    between atoms: O_2  and  C_11
REMARK    2  A    between atoms: N_5  and  C_10
REMARK    3  A    between atoms: N_5  and  C_15
REMARK    4  A    between atoms: N_6  and  C_14
REMARK    5  A    between atoms: C_12  and  C_14
REMARK    6  A    between atoms: C_15  and  C_19
REMARK                            x       y       z     vdW  Elec       q    Type
REMARK                         _______ _______ _______ _____ _____    ______ ____
ROOT
ATOM      1  O   UNL     1      -0.207   3.849  23.820  0.00  0.00    -0.371 OA
ATOM     10  C   UNL     1      -1.218   3.964  25.966  0.00  0.00    +0.111 C 
ATOM     11  C   UNL     1      -0.743   2.544  25.718  0.00  0.00    +0.164 C 
ATOM     12  C   UNL     1       0.293   2.768  24.625  0.00  0.00    +0.165 C 
ATOM     13  C   UNL     1      -1.244   4.523  24.553  0.00  0.00    +0.181 C 
ENDROOT
BRANCH  11   2
ATOM      2  O   UNL     1      -0.175   1.949  26.869  0.00  0.00    -0.388 OA
ATOM     26  H   UNL     1      -0.787   2.077  27.612  0.00  0.00    +0.210 HD
ENDBRANCH  11   2
BRANCH  10   5
ATOM      5  N   UNL     1      -2.509   4.040  26.628  0.00  0.00    -0.302 NA
ATOM     24  H   UNL     1      -2.462   4.736  27.374  0.00  0.00    +0.123 HD
BRANCH   5  15
ATOM     15  C   UNL     1      -3.559   4.424  25.692  0.00  0.00    +0.156 C 
BRANCH  15  19
ATOM      8  N   UNL     1      -4.741   2.596  24.450  0.00  0.00    -0.347 N 
ATOM      9  N   UNL     1      -5.524   3.050  26.478  0.00  0.00    -0.240 NA
ATOM     19  C   UNL     1      -4.622   3.364  25.575  0.00  0.00    +0.121 A 
ATOM     22  C   UNL     1      -5.785   1.738  24.649  0.00  0.00    +0.104 A 
ATOM     23  C   UNL     1      -6.253   2.037  25.907  0.00  0.00    +0.130 A 
ATOM     27  H   UNL     1      -4.162   2.651  23.623  0.00  0.00    +0.167 HD
ENDBRANCH  15  19
ENDBRANCH   5  15
ENDBRANCH  10   5
BRANCH  12  14
ATOM     14  C   UNL     1       0.522   1.544  23.755  0.00  0.00    +0.140 C 
BRANCH  14   6
ATOM      3  O   UNL     1      -3.800  -3.128  24.590  0.00  0.00    -0.377 OA
ATOM      4  O   UNL     1      -2.248   1.383  23.278  0.00  0.00    -0.253 OA
ATOM      6  N   UNL     1      -0.339   0.450  24.145  0.00  0.00    -0.297 N 
ATOM      7  N   UNL     1      -2.407  -0.683  24.319  0.00  0.00    -0.281 N 
ATOM     16  C   UNL     1      -1.702   0.446  23.871  0.00  0.00    +0.302 C 
ATOM     17  C   UNL     1      -3.849  -0.767  24.079  0.00  0.00    +0.137 C 
ATOM     18  C   UNL     1      -1.870  -1.764  25.159  0.00  0.00    +0.137 C 
ATOM     20  C   UNL     1      -4.248  -2.165  23.634  0.00  0.00    +0.179 C 
ATOM     21  C   UNL     1      -2.375  -3.122  24.684  0.00  0.00    +0.179 C 
ATOM     25  H   UNL     1       0.104  -0.306  24.645  0.00  0.00    +0.150 HD
ENDBRANCH  14   6
ENDBRANCH  12  14
TORSDOF 6
ENDMDL
MODEL 2
REMARK VINA RESULT:      -4.5      1.940      4.162
REMARK  Name = 75536760
REMARK  6 active torsions:
REMARK  status: ('A' for Active; 'I' for Inactive)
REMARK    1  A    between atoms: O_2  and  C_11
REMARK    2  A    between atoms: N_5  and  C_10
REMARK    3  A    between atoms: N_5  and  C_15
REMARK    4  A    between atoms: N_6  and  C_14
REMARK    5  A    between atoms: C_12  and  C_14
REMARK    6  A    between atoms: C_15  and  C_19
REMARK                            x       y       z     vdW  Elec       q    Type
REMARK                         _______ _______ _______ _____ _____    ______ ____
ROOT
ATOM      1  O   UNL     1      -4.682   3.563  26.413  0.00  0.00    -0.371 OA
ATOM     10  C   UNL     1      -3.023   4.400  24.933  0.00  0.00    +0.111 C 
ATOM     11  C   UNL     1      -3.587   3.110  24.366  0.00  0.00    +0.164 C 
ATOM     12  C   UNL     1      -4.917   3.023  25.101  0.00  0.00    +0.165 C 
ATOM     13  C   UNL     1      -3.446   4.298  26.389  0.00  0.00    +0.181 C 
ENDROOT
BRANCH  11   2
ATOM      2  O   UNL     1      -3.763   3.161  22.963  0.00  0.00    -0.388 OA
ATOM     26  H   UNL     1      -4.140   4.027  22.734  0.00  0.00    +0.210 HD
ENDBRANCH  11   2
BRANCH  10   5
ATOM      5  N   UNL     1      -1.585   4.530  24.769  0.00  0.00    -0.302 NA
ATOM     24  H   UNL     1      -1.292   5.450  25.101  0.00  0.00    +0.123 HD
BRANCH   5  15
ATOM     15  C   UNL     1      -0.875   3.508  25.529  0.00  0.00    +0.156 C 
BRANCH  15  19
ATOM      8  N   UNL     1       0.882   1.981  24.599  0.00  0.00    -0.347 N 
ATOM      9  N   UNL     1      -1.187   1.630  23.873  0.00  0.00    -0.240 NA
ATOM     19  C   UNL     1      -0.429   2.366  24.654  0.00  0.00    +0.121 A 
ATOM     22  C   UNL     1       0.964   0.933  23.727  0.00  0.00    +0.104 A 
ATOM     23  C   UNL     1      -0.325   0.734  23.292  0.00  0.00    +0.130 A 
ATOM     27  H   UNL     1       1.650   2.395  25.109  0.00  0.00    +0.167 HD
ENDBRANCH  15  19
ENDBRANCH   5  15
ENDBRANCH  10   5
BRANCH  12  14
ATOM     14  C   UNL     1      -5.447   1.605  25.218  0.00  0.00    +0.140 C 
BRANCH  14   6
ATOM      3  O   UNL     1      -0.722  -2.740  25.231  0.00  0.00    -0.377 OA
ATOM      4  O   UNL     1      -5.057  -0.811  23.827  0.00  0.00    -0.253 OA
ATOM      6  N   UNL     1      -4.379   0.659  25.453  0.00  0.00    -0.297 N 
ATOM      7  N   UNL     1      -3.171  -1.337  25.070  0.00  0.00    -0.281 N 
ATOM     16  C   UNL     1      -4.256  -0.516  24.720  0.00  0.00    +0.302 C 
ATOM     17  C   UNL     1      -2.969  -2.598  24.354  0.00  0.00    +0.137 C 
ATOM     18  C   UNL     1      -2.266  -1.138  26.211  0.00  0.00    +0.137 C 
ATOM     20  C   UNL     1      -1.499  -2.815  24.034  0.00  0.00    +0.179 C 
ATOM     21  C   UNL     1      -0.824  -1.443  25.820  0.00  0.00    +0.179 C 
ATOM     25  H   UNL     1      -3.736   0.893  26.195  0.00  0.00    +0.150 HD
ENDBRANCH  14   6
ENDBRANCH  12  14
TORSDOF 6
ENDMDL
MODEL 3
REMARK VINA RESULT:      -4.0      1.964      5.751
REMARK  Name = 75536760
REMARK  6 active torsions:
REMARK  status: ('A' for Active; 'I' for Inactive)
REMARK    1  A    between atoms: O_2  and  C_11
REMARK    2  A    between atoms: N_5  and  C_10
REMARK    3  A    between atoms: N_5  and  C_15
REMARK    4  A    between atoms: N_6  and  C_14
REMARK    5  A    between atoms: C_12  and  C_14
REMARK    6  A    between atoms: C_15  and  C_19
REMARK                            x       y       z     vdW  Elec       q    Type
REMARK                         _______ _______ _______ _____ _____    ______ ____
ROOT
ATOM      1  O   UNL     1      -2.798  -3.026  23.710  0.00  0.00    -0.371 OA
ATOM     10  C   UNL     1      -1.117  -2.149  25.140  0.00  0.00    +0.111 C 
ATOM     11  C   UNL     1      -2.346  -1.263  25.220  0.00  0.00    +0.164 C 
ATOM     12  C   UNL     1      -3.425  -2.211  24.715  0.00  0.00    +0.165 C 
ATOM     13  C   UNL     1      -1.372  -2.901  23.844  0.00  0.00    +0.181 C 
ENDROOT
BRANCH  11   2
ATOM      2  O   UNL     1      -2.611  -0.815  26.535  0.00  0.00    -0.388 OA
ATOM     26  H   UNL     1      -3.508  -0.442  26.556  0.00  0.00    +0.210 HD
ENDBRANCH  11   2
BRANCH  10   5
ATOM      5  N   UNL     1       0.135  -1.412  25.129  0.00  0.00    -0.302 NA
ATOM     24  H   UNL     1       0.902  -2.057  24.932  0.00  0.00    +0.123 HD
BRANCH   5  15
ATOM     15  C   UNL     1       0.123  -0.370  24.109  0.00  0.00    +0.156 C 
BRANCH  15  19
ATOM      8  N   UNL     1      -0.317   1.189  26.021  0.00  0.00    -0.347 N 
ATOM      9  N   UNL     1       0.275   2.149  24.108  0.00  0.00    -0.240 NA
ATOM     19  C   UNL     1       0.037   1.007  24.714  0.00  0.00    +0.121 A 
ATOM     22  C   UNL     1      -0.305   2.534  26.264  0.00  0.00    +0.104 A 
ATOM     23  C   UNL     1       0.064   3.105  25.069  0.00  0.00    +0.130 A 
ATOM     27  H   UNL     1      -0.547   0.464  26.687  0.00  0.00    +0.167 HD
ENDBRANCH  15  19
ENDBRANCH   5  15
ENDBRANCH  10   5
BRANCH  12  14
ATOM     14  C   UNL     1      -4.623  -1.494  24.120  0.00  0.00    +0.140 C 
BRANCH  14   6
ATOM      3  O   UNL     1      -3.405   4.789  24.603  0.00  0.00    -0.377 OA
ATOM      4  O   UNL     1      -5.370   0.467  25.996  0.00  0.00    -0.253 OA
ATOM      6  N   UNL     1      -4.382  -0.073  23.997  0.00  0.00    -0.297 N 
ATOM      7  N   UNL     1      -4.486   2.180  24.706  0.00  0.00    -0.281 N 
ATOM     16  C   UNL     1      -4.784   0.833  24.972  0.00  0.00    +0.302 C 
ATOM     17  C   UNL     1      -4.879   3.204  25.676  0.00  0.00    +0.137 C 
ATOM     18  C   UNL     1      -3.932   2.714  23.453  0.00  0.00    +0.137 C 
ATOM     20  C   UNL     1      -3.773   4.229  25.866  0.00  0.00    +0.179 C 
ATOM     21  C   UNL     1      -2.882   3.783  23.736  0.00  0.00    +0.179 C 
ATOM     25  H   UNL     1      -3.920   0.225  23.151  0.00  0.00    +0.150 HD
ENDBRANCH  14   6
ENDBRANCH  12  14
TORSDOF 6
ENDMDL
MODEL 4
REMARK VINA RESULT:      -3.3      1.744      4.530
REMARK  Name = 75536760
REMARK  6 active torsions:
REMARK  status: ('A' for Active; 'I' for Inactive)
REMARK    1  A    between atoms: O_2  and  C_11
REMARK    2  A    between atoms: N_5  and  C_10
REMARK    3  A    between atoms: N_5  and  C_15
REMARK    4  A    between atoms: N_6  and  C_14
REMARK    5  A    between atoms: C_12  and  C_14
REMARK    6  A    between atoms: C_15  and  C_19
REMARK                            x       y       z     vdW  Elec       q    Type
REMARK                         _______ _______ _______ _____ _____    ______ ____
ROOT
ATOM      1  O   UNL     1      -3.138   4.601  25.444  0.00  0.00    -0.371 OA
ATOM     10  C   UNL     1      -1.288   4.049  24.062  0.00  0.00    +0.111 C 
ATOM     11  C   UNL     1      -2.378   3.013  23.865  0.00  0.00    +0.164 C 
ATOM     12  C   UNL     1      -3.600   3.774  24.363  0.00  0.00    +0.165 C 
ATOM     13  C   UNL     1      -1.704   4.677  25.382  0.00  0.00    +0.181 C 
ENDROOT
BRANCH  11   2
ATOM      2  O   UNL     1      -2.518   2.616  22.514  0.00  0.00    -0.388 OA
ATOM     26  H   UNL     1      -1.710   2.868  22.037  0.00  0.00    +0.210 HD
ENDBRANCH  11   2
BRANCH  10   5
ATOM      5  N   UNL     1       0.052   3.487  24.100  0.00  0.00    -0.302 NA
ATOM     24  H   UNL     1       0.648   4.082  24.677  0.00  0.00    +0.123 HD
BRANCH   5  15
ATOM     15  C   UNL     1       0.042   2.142  24.664  0.00  0.00    +0.156 C 
BRANCH  15  19
ATOM      8  N   UNL     1       2.101   1.336  23.485  0.00  0.00    -0.347 N 
ATOM      9  N   UNL     1       0.290   0.074  23.239  0.00  0.00    -0.240 NA
ATOM     19  C   UNL     1       0.781   1.162  23.791  0.00  0.00    +0.121 A 
ATOM     22  C   UNL     1       2.477   0.293  22.686  0.00  0.00    +0.104 A 
ATOM     23  C   UNL     1       1.343  -0.472  22.549  0.00  0.00    +0.130 A 
ATOM     27  H   UNL     1       2.693   2.096  23.792  0.00  0.00    +0.167 HD
ENDBRANCH  15  19
ENDBRANCH   5  15
ENDBRANCH  10   5
BRANCH  12  14
ATOM     14  C   UNL     1      -4.715   2.866  24.850  0.00  0.00    +0.140 C 
BRANCH  14   6
ATOM      3  O   UNL     1      -3.494  -3.403  24.221  0.00  0.00    -0.377 OA
ATOM      4  O   UNL     1      -2.822   1.151  26.033  0.00  0.00    -0.253 OA
ATOM      6  N   UNL     1      -4.477   1.489  24.480  0.00  0.00    -0.297 N 
ATOM      7  N   UNL     1      -3.400  -0.610  24.638  0.00  0.00    -0.281 N 
ATOM     16  C   UNL     1      -3.520   0.706  25.116  0.00  0.00    +0.302 C 
ATOM     17  C   UNL     1      -2.411  -1.503  25.246  0.00  0.00    +0.137 C 
ATOM     18  C   UNL     1      -4.077  -1.170  23.460  0.00  0.00    +0.137 C 
ATOM     20  C   UNL     1      -2.988  -2.894  25.456  0.00  0.00    +0.179 C 
ATOM     21  C   UNL     1      -4.562  -2.589  23.736  0.00  0.00    +0.179 C 
ATOM     25  H   UNL     1      -5.035   1.133  23.718  0.00  0.00    +0.150 HD
ENDBRANCH  14   6
ENDBRANCH  12  14
TORSDOF 6
ENDMDL
MODEL 5
REMARK VINA RESULT:      -3.1      1.954      4.831
REMARK  Name = 75536760
REMARK  6 active torsions:
REMARK  status: ('A' for Active; 'I' for Inactive)
REMARK    1  A    between atoms: O_2  and  C_11
REMARK    2  A    between atoms: N_5  and  C_10
REMARK    3  A    between atoms: N_5  and  C_15
REMARK    4  A    between atoms: N_6  and  C_14
REMARK    5  A    between atoms: C_12  and  C_14
REMARK    6  A    between atoms: C_15  and  C_19
REMARK                            x       y       z     vdW  Elec       q    Type
REMARK                         _______ _______ _______ _____ _____    ______ ____
ROOT
ATOM      1  O   UNL     1      -0.298   1.432  25.682  0.00  0.00    -0.371 OA
ATOM     10  C   UNL     1       0.260  -0.602  24.589  0.00  0.00    +0.111 C 
ATOM     11  C   UNL     1       0.257   0.523  23.570  0.00  0.00    +0.164 C 
ATOM     12  C   UNL     1       0.419   1.738  24.473  0.00  0.00    +0.165 C 
ATOM     13  C   UNL     1      -0.545   0.017  25.720  0.00  0.00    +0.181 C 
ENDROOT
BRANCH  11   2
ATOM      2  O   UNL     1       1.314   0.415  22.636  0.00  0.00    -0.388 OA
ATOM     26  H   UNL     1       0.937   0.168  21.776  0.00  0.00    +0.210 HD
ENDBRANCH  11   2
BRANCH  10   5
ATOM      5  N   UNL     1      -0.318  -1.840  24.094  0.00  0.00    -0.302 NA
ATOM     24  H   UNL     1       0.425  -2.529  23.969  0.00  0.00    +0.123 HD
BRANCH   5  15
ATOM     15  C   UNL     1      -1.301  -2.372  25.030  0.00  0.00    +0.156 C 
BRANCH  15  19
ATOM      8  N   UNL     1      -3.250  -0.944  24.367  0.00  0.00    -0.347 N 
ATOM      9  N   UNL     1      -3.559  -3.137  24.203  0.00  0.00    -0.240 NA
ATOM     19  C   UNL     1      -2.710  -2.189  24.530  0.00  0.00    +0.121 A 
ATOM     22  C   UNL     1      -4.526  -1.109  23.907  0.00  0.00    +0.104 A 
ATOM     23  C   UNL     1      -4.694  -2.471  23.813  0.00  0.00    +0.130 A 
ATOM     27  H   UNL     1      -2.792  -0.062  24.553  0.00  0.00    +0.167 HD
ENDBRANCH  15  19
ENDBRANCH   5  15
ENDBRANCH  10   5
BRANCH  12  14
ATOM     14  C   UNL     1      -0.127   3.016  23.862  0.00  0.00    +0.140 C 
BRANCH  14   6
ATOM      3  O   UNL     1      -6.209   3.278  25.895  0.00  0.00    -0.377 OA
ATOM      4  O   UNL     1      -2.491   1.747  23.012  0.00  0.00    -0.253 OA
ATOM      6  N   UNL     1      -1.459   3.306  24.343  0.00  0.00    -0.297 N 
ATOM      7  N   UNL     1      -3.806   3.030  24.428  0.00  0.00    -0.281 N 
ATOM     16  C   UNL     1      -2.580   2.631  23.870  0.00  0.00    +0.302 C 
ATOM     17  C   UNL     1      -5.039   2.377  23.983  0.00  0.00    +0.137 C 
ATOM     18  C   UNL     1      -4.017   4.167  25.336  0.00  0.00    +0.137 C 
ATOM     20  C   UNL     1      -5.955   2.080  25.160  0.00  0.00    +0.179 C 
ATOM     21  C   UNL     1      -4.999   3.803  26.443  0.00  0.00    +0.179 C 
ATOM     25  H   UNL     1      -1.532   4.041  25.031  0.00  0.00    +0.150 HD
ENDBRANCH  14   6
ENDBRANCH  12  14
TORSDOF 6
ENDMDL
MODEL 6
REMARK VINA RESULT:      -2.9      3.027      6.809
REMARK  Name = 75536760
REMARK  6 active torsions:
REMARK  status: ('A' for Active; 'I' for Inactive)
REMARK    1  A    between atoms: O_2  and  C_11
REMARK    2  A    between atoms: N_5  and  C_10
REMARK    3  A    between atoms: N_5  and  C_15
REMARK    4  A    between atoms: N_6  and  C_14
REMARK    5  A    between atoms: C_12  and  C_14
REMARK    6  A    between atoms: C_15  and  C_19
REMARK                            x       y       z     vdW  Elec       q    Type
REMARK                         _______ _______ _______ _____ _____    ______ ____
ROOT
ATOM      1  O   UNL     1      -0.531  -1.749  23.217  0.00  0.00    -0.371 OA
ATOM     10  C   UNL     1       0.971  -0.034  23.883  0.00  0.00    +0.111 C 
ATOM     11  C   UNL     1      -0.379   0.211  24.532  0.00  0.00    +0.164 C 
ATOM     12  C   UNL     1      -1.000  -1.176  24.450  0.00  0.00    +0.165 C 
ATOM     13  C   UNL     1       0.595  -0.983  22.757  0.00  0.00    +0.181 C 
ENDROOT
BRANCH  11   2
ATOM      2  O   UNL     1      -0.268   0.661  25.869  0.00  0.00    -0.388 OA
ATOM     26  H   UNL     1       0.660   0.893  26.038  0.00  0.00    +0.210 HD
ENDBRANCH  11   2
BRANCH  10   5
ATOM      5  N   UNL     1       1.620   1.177  23.410  0.00  0.00    -0.302 NA
ATOM     24  H   UNL     1       2.011   1.680  24.208  0.00  0.00    +0.123 HD
BRANCH   5  15
ATOM     15  C   UNL     1       2.695   0.867  22.476  0.00  0.00    +0.156 C 
BRANCH  15  19
ATOM      8  N   UNL     1       3.996  -1.012  23.503  0.00  0.00    -0.347 N 
ATOM      9  N   UNL     1       4.976   0.982  23.550  0.00  0.00    -0.240 NA
ATOM     19  C   UNL     1       3.906   0.313  23.178  0.00  0.00    +0.121 A 
ATOM     22  C   UNL     1       5.200  -1.199  24.123  0.00  0.00    +0.104 A 
ATOM     23  C   UNL     1       5.786   0.044  24.140  0.00  0.00    +0.130 A 
ATOM     27  H   UNL     1       3.302  -1.723  23.320  0.00  0.00    +0.167 HD
ENDBRANCH  15  19
ENDBRANCH   5  15
ENDBRANCH  10   5
BRANCH  12  14
ATOM     14  C   UNL     1      -2.518  -1.155  24.462  0.00  0.00    +0.140 C 
BRANCH  14   6
ATOM      3  O   UNL     1      -5.060   4.729  24.797  0.00  0.00    -0.377 OA
ATOM      4  O   UNL     1      -4.830  -0.131  25.698  0.00  0.00    -0.253 OA
ATOM      6  N   UNL     1      -3.030   0.189  24.311  0.00  0.00    -0.297 N 
ATOM      7  N   UNL     1      -4.558   1.949  24.708  0.00  0.00    -0.281 N 
ATOM     16  C   UNL     1      -4.183   0.618  24.959  0.00  0.00    +0.302 C 
ATOM     17  C   UNL     1      -5.764   2.483  25.343  0.00  0.00    +0.137 C 
ATOM     18  C   UNL     1      -3.936   2.855  23.731  0.00  0.00    +0.137 C 
ATOM     20  C   UNL     1      -5.531   3.895  25.858  0.00  0.00    +0.179 C 
ATOM     21  C   UNL     1      -3.804   4.262  24.305  0.00  0.00    +0.179 C 
ATOM     25  H   UNL     1      -2.510   0.794  23.693  0.00  0.00    +0.150 HD
ENDBRANCH  14   6
ENDBRANCH  12  14
TORSDOF 6
ENDMDL
MODEL 7
REMARK VINA RESULT:      -2.8      1.963      4.633
REMARK  Name = 75536760
REMARK  6 active torsions:
REMARK  status: ('A' for Active; 'I' for Inactive)
REMARK    1  A    between atoms: O_2  and  C_11
REMARK    2  A    between atoms: N_5  and  C_10
REMARK    3  A    between atoms: N_5  and  C_15
REMARK    4  A    between atoms: N_6  and  C_14
REMARK    5  A    between atoms: C_12  and  C_14
REMARK    6  A    between atoms: C_15  and  C_19
REMARK                            x       y       z     vdW  Elec       q    Type
REMARK                         _______ _______ _______ _____ _____    ______ ____
ROOT
ATOM      1  O   UNL     1      -0.422  -1.225  23.009  0.00  0.00    -0.371 OA
ATOM     10  C   UNL     1       0.587   0.202  24.617  0.00  0.00    +0.111 C 
ATOM     11  C   UNL     1      -0.820  -0.140  25.072  0.00  0.00    +0.164 C 
ATOM     12  C   UNL     1      -1.089  -1.406  24.270  0.00  0.00    +0.165 C 
ATOM     13  C   UNL     1       0.517  -0.144  23.139  0.00  0.00    +0.181 C 
ENDROOT
BRANCH  11   2
ATOM      2  O   UNL     1      -0.903  -0.371  26.465  0.00  0.00    -0.388 OA
ATOM     26  H   UNL     1      -0.301  -1.100  26.690  0.00  0.00    +0.210 HD
ENDBRANCH  11   2
BRANCH  10   5
ATOM      5  N   UNL     1       0.958   1.586  24.858  0.00  0.00    -0.302 NA
ATOM     24  H   UNL     1       1.963   1.693  24.713  0.00  0.00    +0.123 HD
BRANCH   5  15
ATOM     15  C   UNL     1       0.253   2.484  23.951  0.00  0.00    +0.156 C 
BRANCH  15  19
ATOM      8  N   UNL     1      -0.697   4.752  24.436  0.00  0.00    -0.347 N 
ATOM      9  N   UNL     1      -1.550   3.073  25.614  0.00  0.00    -0.240 NA
ATOM     19  C   UNL     1      -0.680   3.409  24.687  0.00  0.00    +0.121 A 
ATOM     22  C   UNL     1      -1.638   5.309  25.255  0.00  0.00    +0.104 A 
ATOM     23  C   UNL     1      -2.151   4.254  25.972  0.00  0.00    +0.130 A 
ATOM     27  H   UNL     1      -0.120   5.244  23.767  0.00  0.00    +0.167 HD
ENDBRANCH  15  19
ENDBRANCH   5  15
ENDBRANCH  10   5
BRANCH  12  14
ATOM     14  C   UNL     1      -2.566  -1.666  24.037  0.00  0.00    +0.140 C 
BRANCH  14   6
ATOM      3  O   UNL     1      -5.733   3.795  25.193  0.00  0.00    -0.377 OA
ATOM      4  O   UNL     1      -4.224  -0.819  26.148  0.00  0.00    -0.253 OA
ATOM      6  N   UNL     1      -3.331  -0.440  24.068  0.00  0.00    -0.297 N 
ATOM      7  N   UNL     1      -4.817   1.126  25.033  0.00  0.00    -0.281 N 
ATOM     16  C   UNL     1      -4.129  -0.092  25.153  0.00  0.00    +0.302 C 
ATOM     17  C   UNL     1      -5.686   1.567  26.126  0.00  0.00    +0.137 C 
ATOM     18  C   UNL     1      -4.880   1.972  23.831  0.00  0.00    +0.137 C 
ATOM     20  C   UNL     1      -5.513   3.054  26.395  0.00  0.00    +0.179 C 
ATOM     21  C   UNL     1      -4.768   3.447  24.200  0.00  0.00    +0.179 C 
ATOM     25  H   UNL     1      -3.267   0.144  23.247  0.00  0.00    +0.150 HD
ENDBRANCH  14   6
ENDBRANCH  12  14
TORSDOF 6
ENDMDL
MODEL 8
REMARK VINA RESULT:      -2.8      2.227      6.604
REMARK  Name = 75536760
REMARK  6 active torsions:
REMARK  status: ('A' for Active; 'I' for Inactive)
REMARK    1  A    between atoms: O_2  and  C_11
REMARK    2  A    between atoms: N_5  and  C_10
REMARK    3  A    between atoms: N_5  and  C_15
REMARK    4  A    between atoms: N_6  and  C_14
REMARK    5  A    between atoms: C_12  and  C_14
REMARK    6  A    between atoms: C_15  and  C_19
REMARK                            x       y       z     vdW  Elec       q    Type
REMARK                         _______ _______ _______ _____ _____    ______ ____
ROOT
ATOM      1  O   UNL     1      -2.815  -2.897  23.736  0.00  0.00    -0.371 OA
ATOM     10  C   UNL     1      -0.884  -2.143  24.896  0.00  0.00    +0.111 C 
ATOM     11  C   UNL     1      -1.998  -1.128  25.076  0.00  0.00    +0.164 C 
ATOM     12  C   UNL     1      -3.223  -1.976  24.763  0.00  0.00    +0.165 C 
ATOM     13  C   UNL     1      -1.379  -2.920  23.686  0.00  0.00    +0.181 C 
ENDROOT
BRANCH  11   2
ATOM      2  O   UNL     1      -2.045  -0.597  26.386  0.00  0.00    -0.388 OA
ATOM     26  H   UNL     1      -2.522  -1.225  26.953  0.00  0.00    +0.210 HD
ENDBRANCH  11   2
BRANCH  10   5
ATOM      5  N   UNL     1       0.424  -1.545  24.689  0.00  0.00    -0.302 NA
ATOM     24  H   UNL     1       1.047  -2.239  24.274  0.00  0.00    +0.123 HD
BRANCH   5  15
ATOM     15  C   UNL     1       0.340  -0.394  23.798  0.00  0.00    +0.156 C 
BRANCH  15  19
ATOM      8  N   UNL     1       2.112   1.337  23.416  0.00  0.00    -0.347 N 
ATOM      9  N   UNL     1       2.615  -0.723  22.755  0.00  0.00    -0.240 NA
ATOM     19  C   UNL     1       1.698   0.038  23.311  0.00  0.00    +0.121 A 
ATOM     22  C   UNL     1       3.372   1.408  22.892  0.00  0.00    +0.104 A 
ATOM     23  C   UNL     1       3.661   0.125  22.491  0.00  0.00    +0.130 A 
ATOM     27  H   UNL     1       1.583   2.105  23.808  0.00  0.00    +0.167 HD
ENDBRANCH  15  19
ENDBRANCH   5  15
ENDBRANCH  10   5
BRANCH  12  14
ATOM     14  C   UNL     1      -4.409  -1.162  24.279  0.00  0.00    +0.140 C 
BRANCH  14   6
ATOM      3  O   UNL     1      -3.097   5.083  24.971  0.00  0.00    -0.377 OA
ATOM      4  O   UNL     1      -5.518   0.866  25.887  0.00  0.00    -0.253 OA
ATOM      6  N   UNL     1      -4.088   0.246  24.202  0.00  0.00    -0.297 N 
ATOM      7  N   UNL     1      -4.273   2.517  24.835  0.00  0.00    -0.281 N 
ATOM     16  C   UNL     1      -4.682   1.188  25.035  0.00  0.00    +0.302 C 
ATOM     17  C   UNL     1      -4.853   3.575  25.664  0.00  0.00    +0.137 C 
ATOM     18  C   UNL     1      -3.406   3.003  23.752  0.00  0.00    +0.137 C 
ATOM     20  C   UNL     1      -3.788   4.565  26.109  0.00  0.00    +0.179 C 
ATOM     21  C   UNL     1      -2.416   4.039  24.273  0.00  0.00    +0.179 C 
ATOM     25  H   UNL     1      -3.419   0.509  23.494  0.00  0.00    +0.150 HD
ENDBRANCH  14   6
ENDBRANCH  12  14
TORSDOF 6
ENDMDL
MODEL 9
REMARK VINA RESULT:      -2.7      2.596      5.673
REMARK  Name = 75536760
REMARK  6 active torsions:
REMARK  status: ('A' for Active; 'I' for Inactive)
REMARK    1  A    between atoms: O_2  and  C_11
REMARK    2  A    between atoms: N_5  and  C_10
REMARK    3  A    between atoms: N_5  and  C_15
REMARK    4  A    between atoms: N_6  and  C_14
REMARK    5  A    between atoms: C_12  and  C_14
REMARK    6  A    between atoms: C_15  and  C_19
REMARK                            x       y       z     vdW  Elec       q    Type
REMARK                         _______ _______ _______ _____ _____    ______ ____
ROOT
ATOM      1  O   UNL     1      -0.729   3.410  25.768  0.00  0.00    -0.371 OA
ATOM     10  C   UNL     1       0.535   2.237  24.134  0.00  0.00    +0.111 C 
ATOM     11  C   UNL     1      -0.941   1.989  23.889  0.00  0.00    +0.164 C 
ATOM     12  C   UNL     1      -1.564   3.170  24.622  0.00  0.00    +0.165 C 
ATOM     13  C   UNL     1       0.522   2.729  25.572  0.00  0.00    +0.181 C 
ENDROOT
BRANCH  11   2
ATOM      2  O   UNL     1      -1.274   1.988  22.514  0.00  0.00    -0.388 OA
ATOM     26  H   UNL     1      -1.891   2.720  22.349  0.00  0.00    +0.210 HD
ENDBRANCH  11   2
BRANCH  10   5
ATOM      5  N   UNL     1       1.364   1.059  23.947  0.00  0.00    -0.302 NA
ATOM     24  H   UNL     1       0.785   0.296  23.593  0.00  0.00    +0.123 HD
BRANCH   5  15
ATOM     15  C   UNL     1       2.436   1.317  22.993  0.00  0.00    +0.156 C 
BRANCH  15  19
ATOM      8  N   UNL     1       3.570  -0.863  23.487  0.00  0.00    -0.347 N 
ATOM      9  N   UNL     1       4.898   0.914  23.377  0.00  0.00    -0.240 NA
ATOM     19  C   UNL     1       3.658   0.486  23.284  0.00  0.00    +0.121 A 
ATOM     22  C   UNL     1       4.835  -1.324  23.725  0.00  0.00    +0.104 A 
ATOM     23  C   UNL     1       5.636  -0.209  23.652  0.00  0.00    +0.130 A 
ATOM     27  H   UNL     1       2.726  -1.419  23.466  0.00  0.00    +0.167 HD
ENDBRANCH  15  19
ENDBRANCH   5  15
ENDBRANCH  10   5
BRANCH  12  14
ATOM     14  C   UNL     1      -2.991   2.913  25.072  0.00  0.00    +0.140 C 
BRANCH  14   6
ATOM      3  O   UNL     1      -3.732  -3.462  25.096  0.00  0.00    -0.377 OA
ATOM      4  O   UNL     1      -3.996   1.090  23.177  0.00  0.00    -0.253 OA
ATOM      6  N   UNL     1      -3.228   1.505  25.299  0.00  0.00    -0.297 N 
ATOM      7  N   UNL     1      -3.913  -0.672  24.682  0.00  0.00    -0.281 N 
ATOM     16  C   UNL     1      -3.728   0.669  24.307  0.00  0.00    +0.302 C 
ATOM     17  C   UNL     1      -4.442  -1.622  23.701  0.00  0.00    +0.137 C 
ATOM     18  C   UNL     1      -3.766  -1.222  26.038  0.00  0.00    +0.137 C 
ATOM     20  C   UNL     1      -3.696  -2.945  23.765  0.00  0.00    +0.179 C 
ATOM     21  C   UNL     1      -3.070  -2.578  26.001  0.00  0.00    +0.179 C 
ATOM     25  H   UNL     1      -3.027   1.166  26.228  0.00  0.00    +0.150 HD
ENDBRANCH  14   6
ENDBRANCH  12  14
TORSDOF 6
ENDMDL
MODEL 10
REMARK VINA RESULT:      -2.6      2.085      4.101
REMARK  Name = 75536760
REMARK  6 active torsions:
REMARK  status: ('A' for Active; 'I' for Inactive)
REMARK    1  A    between atoms: O_2  and  C_11
REMARK    2  A    between atoms: N_5  and  C_10
REMARK    3  A    between atoms: N_5  and  C_15
REMARK    4  A    between atoms: N_6  and  C_14
REMARK    5  A    between atoms: C_12  and  C_14
REMARK    6  A    between atoms: C_15  and  C_19
REMARK                            x       y       z     vdW  Elec       q    Type
REMARK                         _______ _______ _______ _____ _____    ______ ____
ROOT
ATOM      1  O   UNL     1      -2.990   3.692  23.405  0.00  0.00    -0.371 OA
ATOM     10  C   UNL     1      -5.001   2.928  24.413  0.00  0.00    +0.111 C 
ATOM     11  C   UNL     1      -4.029   3.343  25.501  0.00  0.00    +0.164 C 
ATOM     12  C   UNL     1      -3.089   4.255  24.725  0.00  0.00    +0.165 C 
ATOM     13  C   UNL     1      -4.068   2.757  23.226  0.00  0.00    +0.181 C 
ENDROOT
BRANCH  11   2
ATOM      2  O   UNL     1      -4.661   4.023  26.569  0.00  0.00    -0.388 OA
ATOM     26  H   UNL     1      -4.043   4.687  26.917  0.00  0.00    +0.210 HD
ENDBRANCH  11   2
BRANCH  10   5
ATOM      5  N   UNL     1      -5.747   1.721  24.725  0.00  0.00    -0.302 NA
ATOM     24  H   UNL     1      -5.839   1.156  23.880  0.00  0.00    +0.123 HD
BRANCH   5  15
ATOM     15  C   UNL     1      -5.067   0.932  25.746  0.00  0.00    +0.156 C 
BRANCH  15  19
ATOM      8  N   UNL     1      -3.628  -1.112  25.918  0.00  0.00    -0.347 N 
ATOM      9  N   UNL     1      -4.640  -0.802  23.964  0.00  0.00    -0.240 NA
ATOM     19  C   UNL     1      -4.462  -0.323  25.175  0.00  0.00    +0.121 A 
ATOM     22  C   UNL     1      -3.250  -2.162  25.129  0.00  0.00    +0.104 A 
ATOM     23  C   UNL     1      -3.886  -1.949  23.929  0.00  0.00    +0.130 A 
ATOM     27  H   UNL     1      -3.344  -0.951  26.874  0.00  0.00    +0.167 HD
ENDBRANCH  15  19
ENDBRANCH   5  15
ENDBRANCH  10   5
BRANCH  12  14
ATOM     14  C   UNL     1      -1.707   4.360  25.343  0.00  0.00    +0.140 C 
BRANCH  14   6
ATOM      3  O   UNL     1       1.330  -0.850  23.146  0.00  0.00    -0.377 OA
ATOM      4  O   UNL     1      -1.925   1.617  25.937  0.00  0.00    -0.253 OA
ATOM      6  N   UNL     1      -0.829   3.319  24.856  0.00  0.00    -0.297 N 
ATOM      7  N   UNL     1      -0.068   1.090  24.653  0.00  0.00    -0.281 N 
ATOM     16  C   UNL     1      -1.006   1.983  25.197  0.00  0.00    +0.302 C 
ATOM     17  C   UNL     1      -0.174  -0.337  24.965  0.00  0.00    +0.137 C 
ATOM     18  C   UNL     1       1.137   1.455  23.893  0.00  0.00    +0.137 C 
ATOM     20  C   UNL     1       0.070  -1.186  23.728  0.00  0.00    +0.179 C 
ATOM     21  C   UNL     1       1.341   0.511  22.713  0.00  0.00    +0.179 C 
ATOM     25  H   UNL     1      -0.068   3.622  24.267  0.00  0.00    +0.150 HD
ENDBRANCH  14   6
ENDBRANCH  12  14
TORSDOF 6
ENDMDL
