MODEL 1
REMARK VINA RESULT:      -5.1      0.000      0.000
REMARK  Name = 45784341
REMARK  3 active torsions:
REMARK  status: ('A' for Active; 'I' for Inactive)
REMARK    1  A    between atoms: N_4  and  C_10
REMARK    2  A    between atoms: C_6  and  C_11
REMARK    3  A    between atoms: C_10  and  C_12
REMARK                            x       y       z     vdW  Elec       q    Type
REMARK                         _______ _______ _______ _____ _____    ______ ____
ROOT
ATOM      4  N   UNL     1       0.780  -0.481  23.808  0.00  0.00    -0.297 NA
ATOM      6  C   UNL     1      -1.003   0.164  25.187  0.00  0.00    +0.090 C 
ATOM      7  C   UNL     1      -1.280  -1.234  24.608  0.00  0.00    +0.029 C 
ATOM      8  C   UNL     1       0.129   0.728  24.317  0.00  0.00    +0.097 C 
ATOM      9  C   UNL     1      -0.318  -1.373  23.435  0.00  0.00    +0.085 C 
ENDROOT
BRANCH   6  11
ATOM      2  F   UNL     1      -6.351   5.008  25.568  0.00  0.00    -0.205 F 
ATOM      3  O   UNL     1      -3.420   0.471  25.115  0.00  0.00    -0.439 OA
ATOM      5  N   UNL     1      -2.236   2.381  25.417  0.00  0.00    -0.213 NA
ATOM     11  C   UNL     1      -2.207   1.076  25.250  0.00  0.00    +0.201 A 
ATOM     13  C   UNL     1      -3.578   2.672  25.392  0.00  0.00    +0.112 A 
ATOM     14  C   UNL     1      -4.307   1.505  25.208  0.00  0.00    +0.156 A 
ATOM     17  C   UNL     1      -4.266   3.887  25.518  0.00  0.00    +0.070 A 
ATOM     18  C   UNL     1      -5.692   1.440  25.136  0.00  0.00    +0.051 A 
ATOM     21  C   UNL     1      -5.667   3.862  25.450  0.00  0.00    +0.126 A 
ATOM     22  C   UNL     1      -6.364   2.662  25.263  0.00  0.00    +0.042 A 
ENDBRANCH   6  11
BRANCH   4  10
ATOM     10  C   UNL     1       1.671  -0.204  22.690  0.00  0.00    +0.122 C 
BRANCH  10  12
ATOM      1  F   UNL     1       3.410   2.029  22.554  0.00  0.00    -0.205 F 
ATOM     12  C   UNL     1       3.119  -0.263  23.099  0.00  0.00    +0.002 A 
ATOM     15  C   UNL     1       3.919   0.875  23.007  0.00  0.00    +0.128 A 
ATOM     16  C   UNL     1       3.658  -1.458  23.573  0.00  0.00    +0.008 A 
ATOM     19  C   UNL     1       5.260   0.817  23.387  0.00  0.00    +0.038 A 
ATOM     20  C   UNL     1       4.999  -1.516  23.953  0.00  0.00    +0.000 A 
ATOM     23  C   UNL     1       5.800  -0.378  23.860  0.00  0.00    +0.003 A 
ENDBRANCH  10  12
ENDBRANCH   4  10
TORSDOF 3
ENDMDL
MODEL 2
REMARK VINA RESULT:      -3.5      2.486      7.420
REMARK  Name = 45784341
REMARK  3 active torsions:
REMARK  status: ('A' for Active; 'I' for Inactive)
REMARK    1  A    between atoms: N_4  and  C_10
REMARK    2  A    between atoms: C_6  and  C_11
REMARK    3  A    between atoms: C_10  and  C_12
REMARK                            x       y       z     vdW  Elec       q    Type
REMARK                         _______ _______ _______ _____ _____    ______ ____
ROOT
ATOM      4  N   UNL     1      -3.807   1.721  25.270  0.00  0.00    -0.297 NA
ATOM      6  C   UNL     1      -1.570   2.299  24.872  0.00  0.00    +0.090 C 
ATOM      7  C   UNL     1      -2.485   3.114  23.942  0.00  0.00    +0.029 C 
ATOM      8  C   UNL     1      -2.459   1.163  25.395  0.00  0.00    +0.097 C 
ATOM      9  C   UNL     1      -3.822   2.384  23.966  0.00  0.00    +0.085 C 
ENDROOT
BRANCH   6  11
ATOM      2  F   UNL     1       4.838   0.381  22.138  0.00  0.00    -0.205 F 
ATOM      3  O   UNL     1      -0.424   0.742  23.388  0.00  0.00    -0.439 OA
ATOM      5  N   UNL     1       0.930   2.261  24.387  0.00  0.00    -0.213 NA
ATOM     11  C   UNL     1      -0.294   1.802  24.233  0.00  0.00    +0.201 A 
ATOM     13  C   UNL     1       1.678   1.440  23.579  0.00  0.00    +0.112 A 
ATOM     14  C   UNL     1       0.853   0.508  22.966  0.00  0.00    +0.156 A 
ATOM     17  C   UNL     1       3.054   1.411  23.306  0.00  0.00    +0.070 A 
ATOM     18  C   UNL     1       1.285  -0.473  22.083  0.00  0.00    +0.051 A 
ATOM     21  C   UNL     1       3.528   0.433  22.419  0.00  0.00    +0.126 A 
ATOM     22  C   UNL     1       2.660  -0.489  21.821  0.00  0.00    +0.042 A 
ENDBRANCH   6  11
BRANCH   4  10
ATOM     10  C   UNL     1      -4.842   0.704  25.386  0.00  0.00    +0.122 C 
BRANCH  10  12
ATOM      1  F   UNL     1      -3.451  -0.992  27.179  0.00  0.00    -0.205 F 
ATOM     12  C   UNL     1      -4.334  -0.660  25.001  0.00  0.00    +0.002 A 
ATOM     15  C   UNL     1      -3.657  -1.444  25.934  0.00  0.00    +0.128 A 
ATOM     16  C   UNL     1      -4.544  -1.140  23.708  0.00  0.00    +0.008 A 
ATOM     19  C   UNL     1      -3.188  -2.707  25.575  0.00  0.00    +0.038 A 
ATOM     20  C   UNL     1      -4.075  -2.403  23.349  0.00  0.00    +0.000 A 
ATOM     23  C   UNL     1      -3.397  -3.187  24.282  0.00  0.00    +0.003 A 
ENDBRANCH  10  12
ENDBRANCH   4  10
TORSDOF 3
ENDMDL
MODEL 3
REMARK VINA RESULT:      -2.2      2.026      7.555
REMARK  Name = 45784341
REMARK  3 active torsions:
REMARK  status: ('A' for Active; 'I' for Inactive)
REMARK    1  A    between atoms: N_4  and  C_10
REMARK    2  A    between atoms: C_6  and  C_11
REMARK    3  A    between atoms: C_10  and  C_12
REMARK                            x       y       z     vdW  Elec       q    Type
REMARK                         _______ _______ _______ _____ _____    ______ ____
ROOT
ATOM      4  N   UNL     1      -2.892   0.161  24.618  0.00  0.00    -0.297 NA
ATOM      6  C   UNL     1      -0.958  -0.808  23.712  0.00  0.00    +0.090 C 
ATOM      7  C   UNL     1      -1.413  -1.618  24.938  0.00  0.00    +0.029 C 
ATOM      8  C   UNL     1      -1.717   0.521  23.820  0.00  0.00    +0.097 C 
ATOM      9  C   UNL     1      -2.375  -0.700  25.682  0.00  0.00    +0.085 C 
ENDROOT
BRANCH   6  11
ATOM      2  F   UNL     1       6.254  -0.516  23.373  0.00  0.00    -0.205 F 
ATOM      3  O   UNL     1       0.951   0.572  23.089  0.00  0.00    -0.439 OA
ATOM      5  N   UNL     1       1.493  -1.470  23.908  0.00  0.00    -0.213 NA
ATOM     11  C   UNL     1       0.537  -0.624  23.591  0.00  0.00    +0.201 A 
ATOM     13  C   UNL     1       2.640  -0.784  23.592  0.00  0.00    +0.112 A 
ATOM     14  C   UNL     1       2.313   0.468  23.090  0.00  0.00    +0.156 A 
ATOM     17  C   UNL     1       3.993  -1.139  23.696  0.00  0.00    +0.070 A 
ATOM     18  C   UNL     1       3.234   1.419  22.673  0.00  0.00    +0.051 A 
ATOM     21  C   UNL     1       4.953  -0.204  23.284  0.00  0.00    +0.126 A 
ATOM     22  C   UNL     1       4.580   1.049  22.783  0.00  0.00    +0.042 A 
ENDBRANCH   6  11
BRANCH   4  10
ATOM     10  C   UNL     1      -3.588   1.328  25.139  0.00  0.00    +0.122 C 
BRANCH  10  12
ATOM      1  F   UNL     1      -4.514   3.908  24.425  0.00  0.00    -0.205 F 
ATOM     12  C   UNL     1      -2.708   2.549  25.149  0.00  0.00    +0.002 A 
ATOM     15  C   UNL     1      -3.229   3.790  24.785  0.00  0.00    +0.128 A 
ATOM     16  C   UNL     1      -1.369   2.437  25.524  0.00  0.00    +0.008 A 
ATOM     19  C   UNL     1      -2.411   4.920  24.796  0.00  0.00    +0.038 A 
ATOM     20  C   UNL     1      -0.551   3.567  25.534  0.00  0.00    +0.000 A 
ATOM     23  C   UNL     1      -1.072   4.808  25.170  0.00  0.00    +0.003 A 
ENDBRANCH  10  12
ENDBRANCH   4  10
TORSDOF 3
ENDMDL
MODEL 4
REMARK VINA RESULT:      -2.1      1.906      8.674
REMARK  Name = 45784341
REMARK  3 active torsions:
REMARK  status: ('A' for Active; 'I' for Inactive)
REMARK    1  A    between atoms: N_4  and  C_10
REMARK    2  A    between atoms: C_6  and  C_11
REMARK    3  A    between atoms: C_10  and  C_12
REMARK                            x       y       z     vdW  Elec       q    Type
REMARK                         _______ _______ _______ _____ _____    ______ ____
ROOT
ATOM      4  N   UNL     1      -1.644   1.396  24.093  0.00  0.00    -0.297 NA
ATOM      6  C   UNL     1       0.181   0.248  23.170  0.00  0.00    +0.090 C 
ATOM      7  C   UNL     1      -0.584  -0.685  24.124  0.00  0.00    +0.029 C 
ATOM      8  C   UNL     1      -0.323   1.656  23.515  0.00  0.00    +0.097 C 
ATOM      9  C   UNL     1      -1.451   0.240  24.968  0.00  0.00    +0.085 C 
ENDROOT
BRANCH   6  11
ATOM      2  F   UNL     1       7.405   0.293  23.315  0.00  0.00    -0.205 F 
ATOM      3  O   UNL     1       2.172  -1.091  23.598  0.00  0.00    -0.439 OA
ATOM      5  N   UNL     1       2.591   1.053  22.992  0.00  0.00    -0.213 NA
ATOM     11  C   UNL     1       1.687   0.129  23.237  0.00  0.00    +0.201 A 
ATOM     13  C   UNL     1       3.778   0.397  23.206  0.00  0.00    +0.112 A 
ATOM     14  C   UNL     1       3.527  -0.916  23.578  0.00  0.00    +0.156 A 
ATOM     17  C   UNL     1       5.109   0.830  23.111  0.00  0.00    +0.070 A 
ATOM     18  C   UNL     1       4.505  -1.858  23.870  0.00  0.00    +0.051 A 
ATOM     21  C   UNL     1       6.124  -0.093  23.398  0.00  0.00    +0.126 A 
ATOM     22  C   UNL     1       5.827  -1.410  23.770  0.00  0.00    +0.042 A 
ENDBRANCH   6  11
BRANCH   4  10
ATOM     10  C   UNL     1      -2.175   2.548  24.805  0.00  0.00    +0.122 C 
BRANCH  10  12
ATOM      1  F   UNL     1      -3.703   4.551  26.101  0.00  0.00    -0.205 F 
ATOM     12  C   UNL     1      -3.663   2.443  25.012  0.00  0.00    +0.002 A 
ATOM     15  C   UNL     1      -4.354   3.467  25.658  0.00  0.00    +0.128 A 
ATOM     16  C   UNL     1      -4.349   1.318  24.555  0.00  0.00    +0.008 A 
ATOM     19  C   UNL     1      -5.732   3.366  25.848  0.00  0.00    +0.038 A 
ATOM     20  C   UNL     1      -5.728   1.217  24.745  0.00  0.00    +0.000 A 
ATOM     23  C   UNL     1      -6.419   2.241  25.391  0.00  0.00    +0.003 A 
ENDBRANCH  10  12
ENDBRANCH   4  10
TORSDOF 3
ENDMDL
MODEL 5
REMARK VINA RESULT:      -1.9      1.925      7.757
REMARK  Name = 45784341
REMARK  3 active torsions:
REMARK  status: ('A' for Active; 'I' for Inactive)
REMARK    1  A    between atoms: N_4  and  C_10
REMARK    2  A    between atoms: C_6  and  C_11
REMARK    3  A    between atoms: C_10  and  C_12
REMARK                            x       y       z     vdW  Elec       q    Type
REMARK                         _______ _______ _______ _____ _____    ______ ____
ROOT
ATOM      4  N   UNL     1      -4.462  -0.738  24.783  0.00  0.00    -0.297 NA
ATOM      6  C   UNL     1      -2.249  -1.375  24.339  0.00  0.00    +0.090 C 
ATOM      7  C   UNL     1      -2.499  -1.409  25.856  0.00  0.00    +0.029 C 
ATOM      8  C   UNL     1      -3.419  -0.560  23.770  0.00  0.00    +0.097 C 
ATOM      9  C   UNL     1      -3.770  -0.595  26.064  0.00  0.00    +0.085 C 
ENDROOT
BRANCH   6  11
ATOM      2  F   UNL     1       4.342   0.637  22.166  0.00  0.00    -0.205 F 
ATOM      3  O   UNL     1      -0.685   0.488  24.189  0.00  0.00    -0.439 OA
ATOM      5  N   UNL     1       0.097  -1.468  23.351  0.00  0.00    -0.213 NA
ATOM     11  C   UNL     1      -0.900  -0.831  23.929  0.00  0.00    +0.201 A 
ATOM     13  C   UNL     1       1.056  -0.495  23.215  0.00  0.00    +0.112 A 
ATOM     14  C   UNL     1       0.582   0.705  23.726  0.00  0.00    +0.156 A 
ATOM     17  C   UNL     1       2.349  -0.536  22.673  0.00  0.00    +0.070 A 
ATOM     18  C   UNL     1       1.297   1.895  23.747  0.00  0.00    +0.051 A 
ATOM     21  C   UNL     1       3.102   0.647  22.676  0.00  0.00    +0.126 A 
ATOM     22  C   UNL     1       2.586   1.837  23.203  0.00  0.00    +0.042 A 
ENDBRANCH   6  11
BRANCH   4  10
ATOM     10  C   UNL     1      -5.551   0.216  24.632  0.00  0.00    +0.122 C 
BRANCH  10  12
ATOM      1  F   UNL     1      -6.458   1.972  26.662  0.00  0.00    -0.205 F 
ATOM     12  C   UNL     1      -5.073   1.638  24.763  0.00  0.00    +0.002 A 
ATOM     15  C   UNL     1      -5.561   2.449  25.787  0.00  0.00    +0.128 A 
ATOM     16  C   UNL     1      -4.140   2.143  23.858  0.00  0.00    +0.008 A 
ATOM     19  C   UNL     1      -5.117   3.765  25.906  0.00  0.00    +0.038 A 
ATOM     20  C   UNL     1      -3.696   3.460  23.977  0.00  0.00    +0.000 A 
ATOM     23  C   UNL     1      -4.184   4.271  25.001  0.00  0.00    +0.003 A 
ENDBRANCH  10  12
ENDBRANCH   4  10
TORSDOF 3
ENDMDL
MODEL 6
REMARK VINA RESULT:      -1.4      3.415      7.026
REMARK  Name = 45784341
REMARK  3 active torsions:
REMARK  status: ('A' for Active; 'I' for Inactive)
REMARK    1  A    between atoms: N_4  and  C_10
REMARK    2  A    between atoms: C_6  and  C_11
REMARK    3  A    between atoms: C_10  and  C_12
REMARK                            x       y       z     vdW  Elec       q    Type
REMARK                         _______ _______ _______ _____ _____    ______ ____
ROOT
ATOM      4  N   UNL     1      -0.407   3.660  25.322  0.00  0.00    -0.297 NA
ATOM      6  C   UNL     1      -0.216   1.325  25.211  0.00  0.00    +0.090 C 
ATOM      7  C   UNL     1       0.560   1.961  24.045  0.00  0.00    +0.029 C 
ATOM      8  C   UNL     1      -1.120   2.449  25.735  0.00  0.00    +0.097 C 
ATOM      9  C   UNL     1       0.036   3.389  23.955  0.00  0.00    +0.085 C 
ENDROOT
BRANCH   6  11
ATOM      2  F   UNL     1      -3.311  -4.974  23.496  0.00  0.00    -0.205 F 
ATOM      3  O   UNL     1      -2.334   0.200  24.780  0.00  0.00    -0.439 OA
ATOM      5  N   UNL     1      -0.509  -1.133  24.615  0.00  0.00    -0.213 NA
ATOM     11  C   UNL     1      -0.981   0.071  24.857  0.00  0.00    +0.201 A 
ATOM     13  C   UNL     1      -1.639  -1.869  24.354  0.00  0.00    +0.112 A 
ATOM     14  C   UNL     1      -2.759  -1.056  24.454  0.00  0.00    +0.156 A 
ATOM     17  C   UNL     1      -1.811  -3.221  24.025  0.00  0.00    +0.070 A 
ATOM     18  C   UNL     1      -4.066  -1.480  24.250  0.00  0.00    +0.051 A 
ATOM     21  C   UNL     1      -3.116  -3.687  23.812  0.00  0.00    +0.126 A 
ATOM     22  C   UNL     1      -4.220  -2.832  23.923  0.00  0.00    +0.042 A 
ENDBRANCH   6  11
BRANCH   4  10
ATOM     10  C   UNL     1      -1.238   4.851  25.409  0.00  0.00    +0.122 C 
BRANCH  10  12
ATOM      1  F   UNL     1      -2.838   4.246  27.668  0.00  0.00    -0.205 F 
ATOM     12  C   UNL     1      -2.704   4.521  25.314  0.00  0.00    +0.002 A 
ATOM     15  C   UNL     1      -3.433   4.232  26.467  0.00  0.00    +0.128 A 
ATOM     16  C   UNL     1      -3.333   4.505  24.069  0.00  0.00    +0.008 A 
ATOM     19  C   UNL     1      -4.790   3.927  26.375  0.00  0.00    +0.038 A 
ATOM     20  C   UNL     1      -4.691   4.200  23.978  0.00  0.00    +0.000 A 
ATOM     23  C   UNL     1      -5.420   3.911  25.131  0.00  0.00    +0.003 A 
ENDBRANCH  10  12
ENDBRANCH   4  10
TORSDOF 3
ENDMDL
MODEL 7
REMARK VINA RESULT:      -1.4      1.829      2.488
REMARK  Name = 45784341
REMARK  3 active torsions:
REMARK  status: ('A' for Active; 'I' for Inactive)
REMARK    1  A    between atoms: N_4  and  C_10
REMARK    2  A    between atoms: C_6  and  C_11
REMARK    3  A    between atoms: C_10  and  C_12
REMARK                            x       y       z     vdW  Elec       q    Type
REMARK                         _______ _______ _______ _____ _____    ______ ____
ROOT
ATOM      4  N   UNL     1       0.883   0.646  22.955  0.00  0.00    -0.297 NA
ATOM      6  C   UNL     1      -1.108   1.861  23.195  0.00  0.00    +0.090 C 
ATOM      7  C   UNL     1       0.047   2.629  23.861  0.00  0.00    +0.029 C 
ATOM      8  C   UNL     1      -0.566   0.439  22.997  0.00  0.00    +0.097 C 
ATOM      9  C   UNL     1       1.159   1.601  24.028  0.00  0.00    +0.085 C 
ENDROOT
BRANCH   6  11
ATOM      2  F   UNL     1      -7.318   1.376  26.856  0.00  0.00    -0.205 F 
ATOM      3  O   UNL     1      -2.945   3.127  24.175  0.00  0.00    -0.439 OA
ATOM      5  N   UNL     1      -3.106   0.881  24.434  0.00  0.00    -0.213 NA
ATOM     11  C   UNL     1      -2.414   1.893  23.955  0.00  0.00    +0.201 A 
ATOM     13  C   UNL     1      -4.188   1.489  25.021  0.00  0.00    +0.112 A 
ATOM     14  C   UNL     1      -4.094   2.865  24.866  0.00  0.00    +0.156 A 
ATOM     17  C   UNL     1      -5.292   0.959  25.705  0.00  0.00    +0.070 A 
ATOM     18  C   UNL     1      -5.023   3.781  25.340  0.00  0.00    +0.051 A 
ATOM     21  C   UNL     1      -6.252   1.854  26.199  0.00  0.00    +0.126 A 
ATOM     22  C   UNL     1      -6.119   3.236  26.020  0.00  0.00    +0.042 A 
ENDBRANCH   6  11
BRANCH   4  10
ATOM     10  C   UNL     1       1.627  -0.595  23.113  0.00  0.00    +0.122 C 
BRANCH  10  12
ATOM      1  F   UNL     1       3.394  -2.409  24.383  0.00  0.00    -0.205 F 
ATOM     12  C   UNL     1       3.107  -0.351  23.237  0.00  0.00    +0.002 A 
ATOM     15  C   UNL     1       3.921  -1.287  23.875  0.00  0.00    +0.128 A 
ATOM     16  C   UNL     1       3.665   0.814  22.710  0.00  0.00    +0.008 A 
ATOM     19  C   UNL     1       5.291  -1.057  23.987  0.00  0.00    +0.038 A 
ATOM     20  C   UNL     1       5.036   1.043  22.823  0.00  0.00    +0.000 A 
ATOM     23  C   UNL     1       5.850   0.108  23.461  0.00  0.00    +0.003 A 
ENDBRANCH  10  12
ENDBRANCH   4  10
TORSDOF 3
ENDMDL
MODEL 8
REMARK VINA RESULT:      -1.1      1.930      8.493
REMARK  Name = 45784341
REMARK  3 active torsions:
REMARK  status: ('A' for Active; 'I' for Inactive)
REMARK    1  A    between atoms: N_4  and  C_10
REMARK    2  A    between atoms: C_6  and  C_11
REMARK    3  A    between atoms: C_10  and  C_12
REMARK                            x       y       z     vdW  Elec       q    Type
REMARK                         _______ _______ _______ _____ _____    ______ ____
ROOT
ATOM      4  N   UNL     1      -2.385   0.731  23.598  0.00  0.00    -0.297 NA
ATOM      6  C   UNL     1      -0.441  -0.580  23.585  0.00  0.00    +0.090 C 
ATOM      7  C   UNL     1      -1.037  -0.557  25.003  0.00  0.00    +0.029 C 
ATOM      8  C   UNL     1      -1.133   0.579  22.854  0.00  0.00    +0.097 C 
ATOM      9  C   UNL     1      -2.003   0.620  25.006  0.00  0.00    +0.085 C 
ENDROOT
BRANCH   6  11
ATOM      2  F   UNL     1       6.782  -0.758  23.574  0.00  0.00    -0.205 F 
ATOM      3  O   UNL     1       1.579   0.647  22.993  0.00  0.00    -0.439 OA
ATOM      5  N   UNL     1       1.950  -1.385  23.926  0.00  0.00    -0.213 NA
ATOM     11  C   UNL     1       1.067  -0.496  23.527  0.00  0.00    +0.201 A 
ATOM     13  C   UNL     1       3.152  -0.788  23.634  0.00  0.00    +0.112 A 
ATOM     14  C   UNL     1       2.930   0.457  23.063  0.00  0.00    +0.156 A 
ATOM     17  C   UNL     1       4.473  -1.222  23.817  0.00  0.00    +0.070 A 
ATOM     18  C   UNL     1       3.929   1.328  22.648  0.00  0.00    +0.051 A 
ATOM     21  C   UNL     1       5.510  -0.370  23.411  0.00  0.00    +0.126 A 
ATOM     22  C   UNL     1       5.241   0.880  22.838  0.00  0.00    +0.042 A 
ENDBRANCH   6  11
BRANCH   4  10
ATOM     10  C   UNL     1      -3.057   1.989  23.304  0.00  0.00    +0.122 C 
BRANCH  10  12
ATOM      1  F   UNL     1      -3.488   4.557  24.420  0.00  0.00    -0.205 F 
ATOM     12  C   UNL     1      -4.155   2.283  24.291  0.00  0.00    +0.002 A 
ATOM     15  C   UNL     1      -4.312   3.571  24.801  0.00  0.00    +0.128 A 
ATOM     16  C   UNL     1      -5.018   1.264  24.694  0.00  0.00    +0.008 A 
ATOM     19  C   UNL     1      -5.330   3.840  25.715  0.00  0.00    +0.038 A 
ATOM     20  C   UNL     1      -6.037   1.533  25.608  0.00  0.00    +0.000 A 
ATOM     23  C   UNL     1      -6.193   2.821  26.118  0.00  0.00    +0.003 A 
ENDBRANCH  10  12
ENDBRANCH   4  10
TORSDOF 3
ENDMDL
