MODEL 1
REMARK VINA RESULT:      -4.6      0.000      0.000
REMARK  Name = 38028516
REMARK  15 active torsions:
REMARK  status: ('A' for Active; 'I' for Inactive)
REMARK    1  A    between atoms: N_3  and  C_13
REMARK    2  A    between atoms: N_4  and  C_25
REMARK    3  A    between atoms: C_6  and  C_10
REMARK    4  A    between atoms: C_7  and  C_13
REMARK    5  A    between atoms: C_9  and  C_14
REMARK    6  A    between atoms: C_10  and  C_15
REMARK    7  A    between atoms: C_10  and  C_16
REMARK    8  A    between atoms: C_11  and  C_17
REMARK    9  A    between atoms: C_14  and  C_18
REMARK   10  A    between atoms: C_19  and  C_20
REMARK   11  A    between atoms: C_20  and  C_21
REMARK   12  A    between atoms: C_21  and  C_22
REMARK   13  A    between atoms: C_21  and  C_23
REMARK   14  A    between atoms: C_21  and  C_24
REMARK   15  A    between atoms: C_25  and  C_26
REMARK                            x       y       z     vdW  Elec       q    Type
REMARK                         _______ _______ _______ _____ _____    ______ ____
ROOT
ATOM      6  C   UNL     1      -1.104   0.429  24.593  0.00  0.00    +0.000 C 
ATOM      7  C   UNL     1      -0.271  -0.866  24.413  0.00  0.00    +0.032 C 
ATOM      8  C   UNL     1      -2.217   0.210  25.629  0.00  0.00    +0.012 C 
ATOM      9  C   UNL     1      -3.169  -0.932  25.230  0.00  0.00    +0.023 C 
ATOM     11  C   UNL     1      -2.412  -2.165  24.780  0.00  0.00    -0.073 C 
ATOM     12  C   UNL     1      -1.114  -2.118  24.431  0.00  0.00    -0.022 C 
ATOM     17  C   UNL     1      -3.170  -3.464  24.782  0.00  0.00    +0.039 C 
ENDROOT
BRANCH   6  10
ATOM     10  C   UNL     1      -0.229   1.614  25.012  0.00  0.00    -0.013 C 
ATOM     15  C   UNL     1      -0.427   2.785  24.055  0.00  0.00    +0.007 C 
ATOM     16  C   UNL     1      -0.545   2.028  26.446  0.00  0.00    +0.007 C 
ENDBRANCH   6  10
BRANCH   7  13
ATOM     13  C   UNL     1       0.549  -0.820  23.118  0.00  0.00    +0.112 C 
BRANCH  13   3
ATOM      2  O   UNL     1       2.550  -0.158  21.132  0.00  0.00    -0.276 OA
ATOM      3  N   UNL     1       1.800  -0.163  23.334  0.00  0.00    -0.315 N 
ATOM     19  C   UNL     1       2.712   0.120  22.318  0.00  0.00    +0.214 C 
ATOM     31  H   UNL     1       2.009   0.162  24.273  0.00  0.00    +0.149 HD
BRANCH  19  20
ATOM     20  C   UNL     1       3.970   0.817  22.809  0.00  0.00    +0.102 C 
BRANCH  20  21
ATOM     21  C   UNL     1       5.015  -0.121  23.460  0.00  0.00    -0.029 C 
ATOM     22  C   UNL     1       6.220  -0.339  22.530  0.00  0.00    +0.011 C 
ATOM     23  C   UNL     1       5.516   0.548  24.756  0.00  0.00    +0.011 C 
ATOM     24  C   UNL     1       4.402  -1.483  23.823  0.00  0.00    +0.011 C 
ENDBRANCH  20  21
ENDBRANCH  19  20
ENDBRANCH  13   3
ENDBRANCH   7  13
BRANCH   9  14
ATOM     14  C   UNL     1      -4.161  -0.474  24.155  0.00  0.00    +0.103 C 
BRANCH  14  18
ATOM      1  O   UNL     1      -3.730   1.763  23.340  0.00  0.00    -0.276 OA
ATOM      4  N   UNL     1      -5.204   1.453  25.109  0.00  0.00    -0.311 N 
ATOM     18  C   UNL     1      -4.318   1.030  24.130  0.00  0.00    +0.214 C 
ATOM     32  H   UNL     1      -5.646   0.769  25.717  0.00  0.00    +0.149 HD
BRANCH   4  25
ATOM     25  C   UNL     1      -5.545   2.843  25.319  0.00  0.00    +0.141 C 
BRANCH  25  26
ATOM      5  N   UNL     1      -2.879   5.261  24.160  0.00  0.00    -0.263 NA
ATOM     26  C   UNL     1      -4.329   3.723  25.333  0.00  0.00    -0.012 A 
ATOM     27  C   UNL     1      -3.535   3.831  26.470  0.00  0.00    +0.008 A 
ATOM     28  C   UNL     1      -3.960   4.452  24.214  0.00  0.00    +0.115 A 
ATOM     29  C   UNL     1      -2.414   4.653  26.454  0.00  0.00    +0.020 A 
ATOM     30  C   UNL     1      -2.132   5.341  25.284  0.00  0.00    +0.111 A 
ENDBRANCH  25  26
ENDBRANCH   4  25
ENDBRANCH  14  18
ENDBRANCH   9  14
TORSDOF 9
ENDMDL
MODEL 2
REMARK VINA RESULT:      -3.4      1.634      7.670
REMARK  Name = 38028516
REMARK  15 active torsions:
REMARK  status: ('A' for Active; 'I' for Inactive)
REMARK    1  A    between atoms: N_3  and  C_13
REMARK    2  A    between atoms: N_4  and  C_25
REMARK    3  A    between atoms: C_6  and  C_10
REMARK    4  A    between atoms: C_7  and  C_13
REMARK    5  A    between atoms: C_9  and  C_14
REMARK    6  A    between atoms: C_10  and  C_15
REMARK    7  A    between atoms: C_10  and  C_16
REMARK    8  A    between atoms: C_11  and  C_17
REMARK    9  A    between atoms: C_14  and  C_18
REMARK   10  A    between atoms: C_19  and  C_20
REMARK   11  A    between atoms: C_20  and  C_21
REMARK   12  A    between atoms: C_21  and  C_22
REMARK   13  A    between atoms: C_21  and  C_23
REMARK   14  A    between atoms: C_21  and  C_24
REMARK   15  A    between atoms: C_25  and  C_26
REMARK                            x       y       z     vdW  Elec       q    Type
REMARK                         _______ _______ _______ _____ _____    ______ ____
ROOT
ATOM      6  C   UNL     1      -2.831  -1.358  24.528  0.00  0.00    +0.000 C 
ATOM      7  C   UNL     1      -3.398  -0.549  25.721  0.00  0.00    +0.032 C 
ATOM      8  C   UNL     1      -1.316  -1.555  24.685  0.00  0.00    +0.012 C 
ATOM      9  C   UNL     1      -0.560  -0.216  24.770  0.00  0.00    +0.023 C 
ATOM     11  C   UNL     1      -1.222   0.744  25.738  0.00  0.00    -0.073 C 
ATOM     12  C   UNL     1      -2.487   0.572  26.161  0.00  0.00    -0.022 C 
ATOM     17  C   UNL     1      -0.382   1.884  26.243  0.00  0.00    +0.039 C 
ENDROOT
BRANCH   6  10
ATOM     10  C   UNL     1      -3.519  -2.720  24.386  0.00  0.00    -0.013 C 
ATOM     15  C   UNL     1      -4.739  -2.606  23.475  0.00  0.00    +0.007 C 
ATOM     16  C   UNL     1      -2.540  -3.758  23.850  0.00  0.00    +0.007 C 
ENDBRANCH   6  10
BRANCH   7  13
ATOM     13  C   UNL     1      -4.785   0.018  25.395  0.00  0.00    +0.112 C 
BRANCH  13   3
ATOM      2  O   UNL     1      -6.048   2.304  26.648  0.00  0.00    -0.276 OA
ATOM      3  N   UNL     1      -4.691   1.388  24.995  0.00  0.00    -0.315 N 
ATOM     19  C   UNL     1      -5.333   2.434  25.656  0.00  0.00    +0.214 C 
ATOM     31  H   UNL     1      -4.078   1.614  24.218  0.00  0.00    +0.149 HD
BRANCH  19  20
ATOM     20  C   UNL     1      -5.080   3.795  25.028  0.00  0.00    +0.102 C 
BRANCH  20  21
ATOM     21  C   UNL     1      -3.618   4.039  24.584  0.00  0.00    -0.029 C 
ATOM     22  C   UNL     1      -3.130   2.920  23.648  0.00  0.00    +0.011 C 
ATOM     23  C   UNL     1      -3.570   5.373  23.813  0.00  0.00    +0.011 C 
ATOM     24  C   UNL     1      -2.671   4.141  25.790  0.00  0.00    +0.011 C 
ENDBRANCH  20  21
ENDBRANCH  19  20
ENDBRANCH  13   3
ENDBRANCH   7  13
BRANCH   9  14
ATOM     14  C   UNL     1      -0.407   0.421  23.384  0.00  0.00    +0.103 C 
BRANCH  14  18
ATOM      1  O   UNL     1       1.632   1.688  23.683  0.00  0.00    -0.276 OA
ATOM      4  N   UNL     1       1.547   0.021  22.066  0.00  0.00    -0.311 N 
ATOM     18  C   UNL     1       1.026   0.801  23.088  0.00  0.00    +0.214 C 
ATOM     32  H   UNL     1       0.967  -0.693  21.635  0.00  0.00    +0.149 HD
BRANCH   4  25
ATOM     25  C   UNL     1       2.898   0.166  21.572  0.00  0.00    +0.141 C 
BRANCH  25  26
ATOM      5  N   UNL     1       4.886  -1.659  24.220  0.00  0.00    -0.263 NA
ATOM     26  C   UNL     1       3.918  -0.108  22.637  0.00  0.00    -0.012 A 
ATOM     27  C   UNL     1       4.817   0.873  23.040  0.00  0.00    +0.008 A 
ATOM     28  C   UNL     1       3.993  -1.346  23.254  0.00  0.00    +0.115 A 
ATOM     29  C   UNL     1       5.751   0.591  24.031  0.00  0.00    +0.020 A 
ATOM     30  C   UNL     1       5.744  -0.680  24.584  0.00  0.00    +0.111 A 
ENDBRANCH  25  26
ENDBRANCH   4  25
ENDBRANCH  14  18
ENDBRANCH   9  14
TORSDOF 9
ENDMDL
MODEL 3
REMARK VINA RESULT:      -2.9      1.827      7.031
REMARK  Name = 38028516
REMARK  15 active torsions:
REMARK  status: ('A' for Active; 'I' for Inactive)
REMARK    1  A    between atoms: N_3  and  C_13
REMARK    2  A    between atoms: N_4  and  C_25
REMARK    3  A    between atoms: C_6  and  C_10
REMARK    4  A    between atoms: C_7  and  C_13
REMARK    5  A    between atoms: C_9  and  C_14
REMARK    6  A    between atoms: C_10  and  C_15
REMARK    7  A    between atoms: C_10  and  C_16
REMARK    8  A    between atoms: C_11  and  C_17
REMARK    9  A    between atoms: C_14  and  C_18
REMARK   10  A    between atoms: C_19  and  C_20
REMARK   11  A    between atoms: C_20  and  C_21
REMARK   12  A    between atoms: C_21  and  C_22
REMARK   13  A    between atoms: C_21  and  C_23
REMARK   14  A    between atoms: C_21  and  C_24
REMARK   15  A    between atoms: C_25  and  C_26
REMARK                            x       y       z     vdW  Elec       q    Type
REMARK                         _______ _______ _______ _____ _____    ______ ____
ROOT
ATOM      6  C   UNL     1      -3.514   3.078  25.542  0.00  0.00    +0.000 C 
ATOM      7  C   UNL     1      -3.573   3.489  24.048  0.00  0.00    +0.032 C 
ATOM      8  C   UNL     1      -2.502   3.952  26.298  0.00  0.00    +0.012 C 
ATOM      9  C   UNL     1      -1.084   3.847  25.705  0.00  0.00    +0.023 C 
ATOM     11  C   UNL     1      -1.094   3.974  24.196  0.00  0.00    -0.073 C 
ATOM     12  C   UNL     1      -2.218   3.824  23.473  0.00  0.00    -0.022 C 
ATOM     17  C   UNL     1       0.212   4.324  23.537  0.00  0.00    +0.039 C 
ENDROOT
BRANCH   6  10
ATOM     10  C   UNL     1      -4.888   3.176  26.213  0.00  0.00    -0.013 C 
ATOM     15  C   UNL     1      -5.692   4.326  25.612  0.00  0.00    +0.007 C 
ATOM     16  C   UNL     1      -5.643   1.858  26.073  0.00  0.00    +0.007 C 
ENDBRANCH   6  10
BRANCH   7  13
ATOM     13  C   UNL     1      -4.232   2.395  23.200  0.00  0.00    +0.112 C 
BRANCH  13   3
ATOM      2  O   UNL     1      -5.043  -0.224  24.136  0.00  0.00    -0.276 OA
ATOM      3  N   UNL     1      -3.448   1.199  23.217  0.00  0.00    -0.315 N 
ATOM     19  C   UNL     1      -3.915  -0.027  23.686  0.00  0.00    +0.214 C 
ATOM     31  H   UNL     1      -2.517   1.238  22.814  0.00  0.00    +0.149 HD
BRANCH  19  20
ATOM     20  C   UNL     1      -2.885  -1.141  23.605  0.00  0.00    +0.102 C 
BRANCH  20  21
ATOM     21  C   UNL     1      -2.855  -2.085  24.831  0.00  0.00    -0.029 C 
ATOM     22  C   UNL     1      -3.720  -3.333  24.590  0.00  0.00    +0.011 C 
ATOM     23  C   UNL     1      -1.398  -2.537  25.051  0.00  0.00    +0.011 C 
ATOM     24  C   UNL     1      -3.340  -1.370  26.104  0.00  0.00    +0.011 C 
ENDBRANCH  20  21
ENDBRANCH  19  20
ENDBRANCH  13   3
ENDBRANCH   7  13
BRANCH   9  14
ATOM     14  C   UNL     1      -0.399   2.547  26.142  0.00  0.00    +0.103 C 
BRANCH  14  18
ATOM      1  O   UNL     1      -1.260   0.785  24.726  0.00  0.00    -0.276 OA
ATOM      4  N   UNL     1       0.900   1.571  24.389  0.00  0.00    -0.311 N 
ATOM     18  C   UNL     1      -0.333   1.534  25.021  0.00  0.00    +0.214 C 
ATOM     32  H   UNL     1       1.606   2.231  24.704  0.00  0.00    +0.149 HD
BRANCH   4  25
ATOM     25  C   UNL     1       1.245   0.710  23.280  0.00  0.00    +0.141 C 
BRANCH  25  26
ATOM      5  N   UNL     1       4.302  -1.460  23.772  0.00  0.00    -0.263 NA
ATOM     26  C   UNL     1       2.682   0.278  23.330  0.00  0.00    -0.012 A 
ATOM     27  C   UNL     1       3.707   1.160  23.005  0.00  0.00    +0.008 A 
ATOM     28  C   UNL     1       3.030  -1.009  23.704  0.00  0.00    +0.115 A 
ATOM     29  C   UNL     1       5.029   0.734  23.063  0.00  0.00    +0.020 A 
ATOM     30  C   UNL     1       5.271  -0.575  23.448  0.00  0.00    +0.111 A 
ENDBRANCH  25  26
ENDBRANCH   4  25
ENDBRANCH  14  18
ENDBRANCH   9  14
TORSDOF 9
ENDMDL
MODEL 4
REMARK VINA RESULT:      -2.7      1.656      7.343
REMARK  Name = 38028516
REMARK  15 active torsions:
REMARK  status: ('A' for Active; 'I' for Inactive)
REMARK    1  A    between atoms: N_3  and  C_13
REMARK    2  A    between atoms: N_4  and  C_25
REMARK    3  A    between atoms: C_6  and  C_10
REMARK    4  A    between atoms: C_7  and  C_13
REMARK    5  A    between atoms: C_9  and  C_14
REMARK    6  A    between atoms: C_10  and  C_15
REMARK    7  A    between atoms: C_10  and  C_16
REMARK    8  A    between atoms: C_11  and  C_17
REMARK    9  A    between atoms: C_14  and  C_18
REMARK   10  A    between atoms: C_19  and  C_20
REMARK   11  A    between atoms: C_20  and  C_21
REMARK   12  A    between atoms: C_21  and  C_22
REMARK   13  A    between atoms: C_21  and  C_23
REMARK   14  A    between atoms: C_21  and  C_24
REMARK   15  A    between atoms: C_25  and  C_26
REMARK                            x       y       z     vdW  Elec       q    Type
REMARK                         _______ _______ _______ _____ _____    ______ ____
ROOT
ATOM      6  C   UNL     1      -2.338   3.428  25.154  0.00  0.00    +0.000 C 
ATOM      7  C   UNL     1      -3.511   3.493  24.143  0.00  0.00    +0.032 C 
ATOM      8  C   UNL     1      -0.994   3.366  24.414  0.00  0.00    +0.012 C 
ATOM      9  C   UNL     1      -0.900   2.147  23.477  0.00  0.00    +0.023 C 
ATOM     11  C   UNL     1      -2.146   1.990  22.631  0.00  0.00    -0.073 C 
ATOM     12  C   UNL     1      -3.301   2.610  22.937  0.00  0.00    -0.022 C 
ATOM     17  C   UNL     1      -2.025   1.138  21.397  0.00  0.00    +0.039 C 
ENDROOT
BRANCH   6  10
ATOM     10  C   UNL     1      -2.348   4.621  26.114  0.00  0.00    -0.013 C 
ATOM     15  C   UNL     1      -2.156   5.924  25.343  0.00  0.00    +0.007 C 
ATOM     16  C   UNL     1      -3.648   4.652  26.911  0.00  0.00    +0.007 C 
ENDBRANCH   6  10
BRANCH   7  13
ATOM     13  C   UNL     1      -4.841   3.134  24.814  0.00  0.00    +0.112 C 
BRANCH  13   3
ATOM      2  O   UNL     1      -3.553   0.749  25.834  0.00  0.00    -0.276 OA
ATOM      3  N   UNL     1      -5.194   1.775  24.544  0.00  0.00    -0.315 N 
ATOM     19  C   UNL     1      -4.520   0.679  25.077  0.00  0.00    +0.214 C 
ATOM     31  H   UNL     1      -6.017   1.604  23.974  0.00  0.00    +0.149 HD
BRANCH  19  20
ATOM     20  C   UNL     1      -5.086  -0.659  24.630  0.00  0.00    +0.102 C 
BRANCH  20  21
ATOM     21  C   UNL     1      -4.026  -1.761  24.390  0.00  0.00    -0.029 C 
ATOM     22  C   UNL     1      -4.643  -2.975  23.675  0.00  0.00    +0.011 C 
ATOM     23  C   UNL     1      -2.923  -1.174  23.488  0.00  0.00    +0.011 C 
ATOM     24  C   UNL     1      -3.383  -2.221  25.708  0.00  0.00    +0.011 C 
ENDBRANCH  20  21
ENDBRANCH  19  20
ENDBRANCH  13   3
ENDBRANCH   7  13
BRANCH   9  14
ATOM     14  C   UNL     1      -0.607   0.866  24.266  0.00  0.00    +0.103 C 
BRANCH  14  18
ATOM      1  O   UNL     1       0.319  -1.268  23.600  0.00  0.00    -0.276 OA
ATOM      4  N   UNL     1       1.281   0.695  22.811  0.00  0.00    -0.311 N 
ATOM     18  C   UNL     1       0.360  -0.042  23.540  0.00  0.00    +0.214 C 
ATOM     32  H   UNL     1       1.233   1.710  22.821  0.00  0.00    +0.149 HD
BRANCH   4  25
ATOM     25  C   UNL     1       2.328   0.088  22.019  0.00  0.00    +0.141 C 
BRANCH  25  26
ATOM      5  N   UNL     1       4.933  -1.601  24.176  0.00  0.00    -0.263 NA
ATOM     26  C   UNL     1       3.581  -0.130  22.816  0.00  0.00    -0.012 A 
ATOM     27  C   UNL     1       4.530   0.878  22.951  0.00  0.00    +0.008 A 
ATOM     28  C   UNL     1       3.828  -1.340  23.443  0.00  0.00    +0.115 A 
ATOM     29  C   UNL     1       5.680   0.647  23.697  0.00  0.00    +0.020 A 
ATOM     30  C   UNL     1       5.833  -0.599  24.284  0.00  0.00    +0.111 A 
ENDBRANCH  25  26
ENDBRANCH   4  25
ENDBRANCH  14  18
ENDBRANCH   9  14
TORSDOF 9
ENDMDL
MODEL 5
REMARK VINA RESULT:      -2.6      1.883      6.831
REMARK  Name = 38028516
REMARK  15 active torsions:
REMARK  status: ('A' for Active; 'I' for Inactive)
REMARK    1  A    between atoms: N_3  and  C_13
REMARK    2  A    between atoms: N_4  and  C_25
REMARK    3  A    between atoms: C_6  and  C_10
REMARK    4  A    between atoms: C_7  and  C_13
REMARK    5  A    between atoms: C_9  and  C_14
REMARK    6  A    between atoms: C_10  and  C_15
REMARK    7  A    between atoms: C_10  and  C_16
REMARK    8  A    between atoms: C_11  and  C_17
REMARK    9  A    between atoms: C_14  and  C_18
REMARK   10  A    between atoms: C_19  and  C_20
REMARK   11  A    between atoms: C_20  and  C_21
REMARK   12  A    between atoms: C_21  and  C_22
REMARK   13  A    between atoms: C_21  and  C_23
REMARK   14  A    between atoms: C_21  and  C_24
REMARK   15  A    between atoms: C_25  and  C_26
REMARK                            x       y       z     vdW  Elec       q    Type
REMARK                         _______ _______ _______ _____ _____    ______ ____
ROOT
ATOM      6  C   UNL     1      -3.309   2.598  25.382  0.00  0.00    +0.000 C 
ATOM      7  C   UNL     1      -4.266   1.962  24.343  0.00  0.00    +0.032 C 
ATOM      8  C   UNL     1      -2.255   3.467  24.680  0.00  0.00    +0.012 C 
ATOM      9  C   UNL     1      -1.415   2.663  23.670  0.00  0.00    +0.023 C 
ATOM     11  C   UNL     1      -2.282   1.798  22.779  0.00  0.00    -0.073 C 
ATOM     12  C   UNL     1      -3.558   1.506  23.090  0.00  0.00    -0.022 C 
ATOM     17  C   UNL     1      -1.664   1.311  21.498  0.00  0.00    +0.039 C 
ENDROOT
BRANCH   6  10
ATOM     10  C   UNL     1      -4.068   3.436  26.416  0.00  0.00    -0.013 C 
ATOM     15  C   UNL     1      -3.211   4.610  26.882  0.00  0.00    +0.007 C 
ATOM     16  C   UNL     1      -5.389   3.929  25.834  0.00  0.00    +0.007 C 
ENDBRANCH   6  10
BRANCH   7  13
ATOM     13  C   UNL     1      -5.039   0.785  24.950  0.00  0.00    +0.112 C 
BRANCH  13   3
ATOM      2  O   UNL     1      -4.617  -1.779  23.671  0.00  0.00    -0.276 OA
ATOM      3  N   UNL     1      -4.143  -0.251  25.360  0.00  0.00    -0.315 N 
ATOM     19  C   UNL     1      -3.999  -1.462  24.686  0.00  0.00    +0.214 C 
ATOM     31  H   UNL     1      -3.541  -0.069  26.158  0.00  0.00    +0.149 HD
BRANCH  19  20
ATOM     20  C   UNL     1      -2.989  -2.399  25.329  0.00  0.00    +0.102 C 
BRANCH  20  21
ATOM     21  C   UNL     1      -1.513  -1.960  25.175  0.00  0.00    -0.029 C 
ATOM     22  C   UNL     1      -0.554  -3.105  25.544  0.00  0.00    +0.011 C 
ATOM     23  C   UNL     1      -1.277  -1.584  23.699  0.00  0.00    +0.011 C 
ATOM     24  C   UNL     1      -1.197  -0.733  26.046  0.00  0.00    +0.011 C 
ENDBRANCH  20  21
ENDBRANCH  19  20
ENDBRANCH  13   3
ENDBRANCH   7  13
BRANCH   9  14
ATOM     14  C   UNL     1      -0.351   1.822  24.384  0.00  0.00    +0.103 C 
BRANCH  14  18
ATOM      1  O   UNL     1       1.751   2.536  23.420  0.00  0.00    -0.276 OA
ATOM      4  N   UNL     1       0.946   0.404  22.963  0.00  0.00    -0.311 N 
ATOM     18  C   UNL     1       0.900   1.660  23.550  0.00  0.00    +0.214 C 
ATOM     32  H   UNL     1       0.194  -0.258  23.132  0.00  0.00    +0.149 HD
BRANCH   4  25
ATOM     25  C   UNL     1       2.030  -0.029  22.108  0.00  0.00    +0.141 C 
BRANCH  25  26
ATOM      5  N   UNL     1       4.747  -1.573  24.235  0.00  0.00    -0.263 NA
ATOM     26  C   UNL     1       3.315  -0.188  22.868  0.00  0.00    -0.012 A 
ATOM     27  C   UNL     1       4.244   0.845  22.927  0.00  0.00    +0.008 A 
ATOM     28  C   UNL     1       3.611  -1.365  23.533  0.00  0.00    +0.115 A 
ATOM     29  C   UNL     1       5.426   0.670  23.640  0.00  0.00    +0.020 A 
ATOM     30  C   UNL     1       5.628  -0.548  24.270  0.00  0.00    +0.111 A 
ENDBRANCH  25  26
ENDBRANCH   4  25
ENDBRANCH  14  18
ENDBRANCH   9  14
TORSDOF 9
ENDMDL
MODEL 6
REMARK VINA RESULT:      -2.4      1.662      4.524
REMARK  Name = 38028516
REMARK  15 active torsions:
REMARK  status: ('A' for Active; 'I' for Inactive)
REMARK    1  A    between atoms: N_3  and  C_13
REMARK    2  A    between atoms: N_4  and  C_25
REMARK    3  A    between atoms: C_6  and  C_10
REMARK    4  A    between atoms: C_7  and  C_13
REMARK    5  A    between atoms: C_9  and  C_14
REMARK    6  A    between atoms: C_10  and  C_15
REMARK    7  A    between atoms: C_10  and  C_16
REMARK    8  A    between atoms: C_11  and  C_17
REMARK    9  A    between atoms: C_14  and  C_18
REMARK   10  A    between atoms: C_19  and  C_20
REMARK   11  A    between atoms: C_20  and  C_21
REMARK   12  A    between atoms: C_21  and  C_22
REMARK   13  A    between atoms: C_21  and  C_23
REMARK   14  A    between atoms: C_21  and  C_24
REMARK   15  A    between atoms: C_25  and  C_26
REMARK                            x       y       z     vdW  Elec       q    Type
REMARK                         _______ _______ _______ _____ _____    ______ ____
ROOT
ATOM      6  C   UNL     1      -1.946   1.996  23.868  0.00  0.00    +0.000 C 
ATOM      7  C   UNL     1      -0.468   2.449  23.768  0.00  0.00    +0.032 C 
ATOM      8  C   UNL     1      -2.888   3.160  23.526  0.00  0.00    +0.012 C 
ATOM      9  C   UNL     1      -2.684   4.369  24.458  0.00  0.00    +0.023 C 
ATOM     11  C   UNL     1      -1.218   4.711  24.623  0.00  0.00    -0.073 C 
ATOM     12  C   UNL     1      -0.241   3.845  24.297  0.00  0.00    -0.022 C 
ATOM     17  C   UNL     1      -0.896   6.090  25.129  0.00  0.00    +0.039 C 
ENDROOT
BRANCH   6  10
ATOM     10  C   UNL     1      -2.238   0.804  22.951  0.00  0.00    -0.013 C 
ATOM     15  C   UNL     1      -2.244   1.247  21.490  0.00  0.00    +0.007 C 
ATOM     16  C   UNL     1      -1.215  -0.304  23.176  0.00  0.00    +0.007 C 
ENDBRANCH   6  10
BRANCH   7  13
ATOM     13  C   UNL     1       0.461   1.470  24.495  0.00  0.00    +0.112 C 
BRANCH  13   3
ATOM      2  O   UNL     1       1.718  -0.395  22.669  0.00  0.00    -0.276 OA
ATOM      3  N   UNL     1       1.786   1.538  23.962  0.00  0.00    -0.315 N 
ATOM     19  C   UNL     1       2.318   0.595  23.084  0.00  0.00    +0.214 C 
ATOM     31  H   UNL     1       2.350   2.350  24.196  0.00  0.00    +0.149 HD
BRANCH  19  20
ATOM     20  C   UNL     1       3.750   0.891  22.670  0.00  0.00    +0.102 C 
BRANCH  20  21
ATOM     21  C   UNL     1       4.815  -0.006  23.345  0.00  0.00    -0.029 C 
ATOM     22  C   UNL     1       5.997  -0.270  22.397  0.00  0.00    +0.011 C 
ATOM     23  C   UNL     1       5.345   0.735  24.588  0.00  0.00    +0.011 C 
ATOM     24  C   UNL     1       4.218  -1.348  23.797  0.00  0.00    +0.011 C 
ENDBRANCH  20  21
ENDBRANCH  19  20
ENDBRANCH  13   3
ENDBRANCH   7  13
BRANCH   9  14
ATOM     14  C   UNL     1      -3.349   4.134  25.819  0.00  0.00    +0.103 C 
BRANCH  14  18
ATOM      1  O   UNL     1      -5.720   3.651  25.796  0.00  0.00    -0.276 OA
ATOM      4  N   UNL     1      -4.196   1.921  25.510  0.00  0.00    -0.311 N 
ATOM     18  C   UNL     1      -4.565   3.242  25.712  0.00  0.00    +0.214 C 
ATOM     32  H   UNL     1      -3.211   1.678  25.450  0.00  0.00    +0.149 HD
BRANCH   4  25
ATOM     25  C   UNL     1      -5.153   0.845  25.372  0.00  0.00    +0.141 C 
BRANCH  25  26
ATOM      5  N   UNL     1      -2.916  -2.168  25.827  0.00  0.00    -0.263 NA
ATOM     26  C   UNL     1      -4.483  -0.473  25.113  0.00  0.00    -0.012 A 
ATOM     27  C   UNL     1      -4.772  -1.212  23.971  0.00  0.00    +0.008 A 
ATOM     28  C   UNL     1      -3.555  -0.990  26.001  0.00  0.00    +0.115 A 
ATOM     29  C   UNL     1      -4.135  -2.429  23.756  0.00  0.00    +0.020 A 
ATOM     30  C   UNL     1      -3.223  -2.859  24.707  0.00  0.00    +0.111 A 
ENDBRANCH  25  26
ENDBRANCH   4  25
ENDBRANCH  14  18
ENDBRANCH   9  14
TORSDOF 9
ENDMDL
MODEL 7
REMARK VINA RESULT:      -2.4      1.775      6.926
REMARK  Name = 38028516
REMARK  15 active torsions:
REMARK  status: ('A' for Active; 'I' for Inactive)
REMARK    1  A    between atoms: N_3  and  C_13
REMARK    2  A    between atoms: N_4  and  C_25
REMARK    3  A    between atoms: C_6  and  C_10
REMARK    4  A    between atoms: C_7  and  C_13
REMARK    5  A    between atoms: C_9  and  C_14
REMARK    6  A    between atoms: C_10  and  C_15
REMARK    7  A    between atoms: C_10  and  C_16
REMARK    8  A    between atoms: C_11  and  C_17
REMARK    9  A    between atoms: C_14  and  C_18
REMARK   10  A    between atoms: C_19  and  C_20
REMARK   11  A    between atoms: C_20  and  C_21
REMARK   12  A    between atoms: C_21  and  C_22
REMARK   13  A    between atoms: C_21  and  C_23
REMARK   14  A    between atoms: C_21  and  C_24
REMARK   15  A    between atoms: C_25  and  C_26
REMARK                            x       y       z     vdW  Elec       q    Type
REMARK                         _______ _______ _______ _____ _____    ______ ____
ROOT
ATOM      6  C   UNL     1      -3.233   0.858  23.561  0.00  0.00    +0.000 C 
ATOM      7  C   UNL     1      -4.518   0.357  24.267  0.00  0.00    +0.032 C 
ATOM      8  C   UNL     1      -2.346  -0.329  23.155  0.00  0.00    +0.012 C 
ATOM      9  C   UNL     1      -1.935  -1.190  24.365  0.00  0.00    +0.023 C 
ATOM     11  C   UNL     1      -3.116  -1.502  25.260  0.00  0.00    -0.073 C 
ATOM     12  C   UNL     1      -4.267  -0.808  25.193  0.00  0.00    -0.022 C 
ATOM     17  C   UNL     1      -2.962  -2.661  26.206  0.00  0.00    +0.039 C 
ENDROOT
BRANCH   6  10
ATOM     10  C   UNL     1      -3.556   1.710  22.329  0.00  0.00    -0.013 C 
ATOM     15  C   UNL     1      -3.940   3.126  22.748  0.00  0.00    +0.007 C 
ATOM     16  C   UNL     1      -2.369   1.733  21.371  0.00  0.00    +0.007 C 
ENDBRANCH   6  10
BRANCH   7  13
ATOM     13  C   UNL     1      -5.200   1.490  25.043  0.00  0.00    +0.112 C 
BRANCH  13   3
ATOM      2  O   UNL     1      -5.415   4.356  25.398  0.00  0.00    -0.276 OA
ATOM      3  N   UNL     1      -4.228   2.368  25.616  0.00  0.00    -0.315 N 
ATOM     19  C   UNL     1      -4.410   3.743  25.752  0.00  0.00    +0.214 C 
ATOM     31  H   UNL     1      -3.380   1.954  25.995  0.00  0.00    +0.149 HD
BRANCH  19  20
ATOM     20  C   UNL     1      -3.225   4.453  26.385  0.00  0.00    +0.102 C 
BRANCH  20  21
ATOM     21  C   UNL     1      -1.875   4.225  25.664  0.00  0.00    -0.029 C 
ATOM     22  C   UNL     1      -2.067   3.411  24.373  0.00  0.00    +0.011 C 
ATOM     23  C   UNL     1      -1.295   5.603  25.287  0.00  0.00    +0.011 C 
ATOM     24  C   UNL     1      -0.865   3.505  26.572  0.00  0.00    +0.011 C 
ENDBRANCH  20  21
ENDBRANCH  19  20
ENDBRANCH  13   3
ENDBRANCH   7  13
BRANCH   9  14
ATOM     14  C   UNL     1      -0.806  -0.523  25.158  0.00  0.00    +0.103 C 
BRANCH  14  18
ATOM      1  O   UNL     1       0.364   1.431  24.342  0.00  0.00    -0.276 OA
ATOM      4  N   UNL     1       0.756  -0.635  23.351  0.00  0.00    -0.311 N 
ATOM     18  C   UNL     1       0.156   0.223  24.261  0.00  0.00    +0.214 C 
ATOM     32  H   UNL     1       0.521  -1.623  23.363  0.00  0.00    +0.149 HD
BRANCH   4  25
ATOM     25  C   UNL     1       1.720  -0.194  22.368  0.00  0.00    +0.141 C 
BRANCH  25  26
ATOM      5  N   UNL     1       4.895  -1.410  24.021  0.00  0.00    -0.263 NA
ATOM     26  C   UNL     1       3.119  -0.204  22.910  0.00  0.00    -0.012 A 
ATOM     27  C   UNL     1       3.929   0.924  22.825  0.00  0.00    +0.008 A 
ATOM     28  C   UNL     1       3.645  -1.335  23.512  0.00  0.00    +0.115 A 
ATOM     29  C   UNL     1       5.221   0.886  23.338  0.00  0.00    +0.020 A 
ATOM     30  C   UNL     1       5.652  -0.295  23.920  0.00  0.00    +0.111 A 
ENDBRANCH  25  26
ENDBRANCH   4  25
ENDBRANCH  14  18
ENDBRANCH   9  14
TORSDOF 9
ENDMDL
MODEL 8
REMARK VINA RESULT:      -2.3      1.747      4.734
REMARK  Name = 38028516
REMARK  15 active torsions:
REMARK  status: ('A' for Active; 'I' for Inactive)
REMARK    1  A    between atoms: N_3  and  C_13
REMARK    2  A    between atoms: N_4  and  C_25
REMARK    3  A    between atoms: C_6  and  C_10
REMARK    4  A    between atoms: C_7  and  C_13
REMARK    5  A    between atoms: C_9  and  C_14
REMARK    6  A    between atoms: C_10  and  C_15
REMARK    7  A    between atoms: C_10  and  C_16
REMARK    8  A    between atoms: C_11  and  C_17
REMARK    9  A    between atoms: C_14  and  C_18
REMARK   10  A    between atoms: C_19  and  C_20
REMARK   11  A    between atoms: C_20  and  C_21
REMARK   12  A    between atoms: C_21  and  C_22
REMARK   13  A    between atoms: C_21  and  C_23
REMARK   14  A    between atoms: C_21  and  C_24
REMARK   15  A    between atoms: C_25  and  C_26
REMARK                            x       y       z     vdW  Elec       q    Type
REMARK                         _______ _______ _______ _____ _____    ______ ____
ROOT
ATOM      6  C   UNL     1      -2.740   2.288  23.994  0.00  0.00    +0.000 C 
ATOM      7  C   UNL     1      -1.501   2.919  24.678  0.00  0.00    +0.032 C 
ATOM      8  C   UNL     1      -3.861   3.328  23.851  0.00  0.00    +0.012 C 
ATOM      9  C   UNL     1      -4.296   3.906  25.211  0.00  0.00    +0.023 C 
ATOM     11  C   UNL     1      -3.106   4.306  26.059  0.00  0.00    -0.073 C 
ATOM     12  C   UNL     1      -1.862   3.865  25.798  0.00  0.00    -0.022 C 
ATOM     17  C   UNL     1      -3.370   5.262  27.190  0.00  0.00    +0.039 C 
ENDROOT
BRANCH   6  10
ATOM     10  C   UNL     1      -2.394   1.705  22.620  0.00  0.00    -0.013 C 
ATOM     15  C   UNL     1      -3.065   0.347  22.435  0.00  0.00    +0.007 C 
ATOM     16  C   UNL     1      -2.811   2.668  21.513  0.00  0.00    +0.007 C 
ENDBRANCH   6  10
BRANCH   7  13
ATOM     13  C   UNL     1      -0.552   1.838  25.209  0.00  0.00    +0.112 C 
BRANCH  13   3
ATOM      2  O   UNL     1       0.701   0.221  23.159  0.00  0.00    -0.276 OA
ATOM      3  N   UNL     1       0.758   1.998  24.658  0.00  0.00    -0.315 N 
ATOM     19  C   UNL     1       1.288   1.173  23.669  0.00  0.00    +0.214 C 
ATOM     31  H   UNL     1       1.309   2.793  24.970  0.00  0.00    +0.149 HD
BRANCH  19  20
ATOM     20  C   UNL     1       2.703   1.548  23.259  0.00  0.00    +0.102 C 
BRANCH  20  21
ATOM     21  C   UNL     1       3.612   0.348  22.901  0.00  0.00    -0.029 C 
ATOM     22  C   UNL     1       3.062  -0.959  23.497  0.00  0.00    +0.011 C 
ATOM     23  C   UNL     1       3.638   0.209  21.366  0.00  0.00    +0.011 C 
ATOM     24  C   UNL     1       5.052   0.564  23.393  0.00  0.00    +0.011 C 
ENDBRANCH  20  21
ENDBRANCH  19  20
ENDBRANCH  13   3
ENDBRANCH   7  13
BRANCH   9  14
ATOM     14  C   UNL     1      -5.202   2.925  25.964  0.00  0.00    +0.103 C 
BRANCH  14  18
ATOM      1  O   UNL     1      -6.258   1.581  24.252  0.00  0.00    -0.276 OA
ATOM      4  N   UNL     1      -4.652   0.623  25.632  0.00  0.00    -0.311 N 
ATOM     18  C   UNL     1      -5.451   1.660  25.174  0.00  0.00    +0.214 C 
ATOM     32  H   UNL     1      -4.009   0.787  26.401  0.00  0.00    +0.149 HD
BRANCH   4  25
ATOM     25  C   UNL     1      -4.680  -0.706  25.062  0.00  0.00    +0.141 C 
BRANCH  25  26
ATOM      5  N   UNL     1      -1.018  -1.306  25.783  0.00  0.00    -0.263 NA
ATOM     26  C   UNL     1      -3.319  -1.338  25.045  0.00  0.00    -0.012 A 
ATOM     27  C   UNL     1      -3.074  -2.493  24.310  0.00  0.00    +0.008 A 
ATOM     28  C   UNL     1      -2.266  -0.789  25.758  0.00  0.00    +0.115 A 
ATOM     29  C   UNL     1      -1.802  -3.055  24.310  0.00  0.00    +0.020 A 
ATOM     30  C   UNL     1      -0.818  -2.429  25.058  0.00  0.00    +0.111 A 
ENDBRANCH  25  26
ENDBRANCH   4  25
ENDBRANCH  14  18
ENDBRANCH   9  14
TORSDOF 9
ENDMDL
MODEL 9
REMARK VINA RESULT:      -0.6      1.779      6.376
REMARK  Name = 38028516
REMARK  15 active torsions:
REMARK  status: ('A' for Active; 'I' for Inactive)
REMARK    1  A    between atoms: N_3  and  C_13
REMARK    2  A    between atoms: N_4  and  C_25
REMARK    3  A    between atoms: C_6  and  C_10
REMARK    4  A    between atoms: C_7  and  C_13
REMARK    5  A    between atoms: C_9  and  C_14
REMARK    6  A    between atoms: C_10  and  C_15
REMARK    7  A    between atoms: C_10  and  C_16
REMARK    8  A    between atoms: C_11  and  C_17
REMARK    9  A    between atoms: C_14  and  C_18
REMARK   10  A    between atoms: C_19  and  C_20
REMARK   11  A    between atoms: C_20  and  C_21
REMARK   12  A    between atoms: C_21  and  C_22
REMARK   13  A    between atoms: C_21  and  C_23
REMARK   14  A    between atoms: C_21  and  C_24
REMARK   15  A    between atoms: C_25  and  C_26
REMARK                            x       y       z     vdW  Elec       q    Type
REMARK                         _______ _______ _______ _____ _____    ______ ____
ROOT
ATOM      6  C   UNL     1      -3.393   1.434  23.563  0.00  0.00    +0.000 C 
ATOM      7  C   UNL     1      -4.521   1.463  24.625  0.00  0.00    +0.032 C 
ATOM      8  C   UNL     1      -3.130  -0.007  23.099  0.00  0.00    +0.012 C 
ATOM      9  C   UNL     1      -2.729  -0.931  24.264  0.00  0.00    +0.023 C 
ATOM     11  C   UNL     1      -3.645  -0.761  25.458  0.00  0.00    -0.073 C 
ATOM     12  C   UNL     1      -4.449   0.310  25.596  0.00  0.00    -0.022 C 
ATOM     17  C   UNL     1      -3.651  -1.872  26.472  0.00  0.00    +0.039 C 
ENDROOT
BRANCH   6  10
ATOM     10  C   UNL     1      -3.725   2.316  22.356  0.00  0.00    -0.013 C 
ATOM     15  C   UNL     1      -4.103   3.722  22.813  0.00  0.00    +0.007 C 
ATOM     16  C   UNL     1      -2.546   2.361  21.389  0.00  0.00    +0.007 C 
ENDBRANCH   6  10
BRANCH   7  13
ATOM     13  C   UNL     1      -4.517   2.785  25.400  0.00  0.00    +0.112 C 
BRANCH  13   3
ATOM      2  O   UNL     1      -2.364   4.612  24.752  0.00  0.00    -0.276 OA
ATOM      3  N   UNL     1      -3.284   2.956  26.104  0.00  0.00    -0.315 N 
ATOM     19  C   UNL     1      -2.295   3.862  25.725  0.00  0.00    +0.214 C 
ATOM     31  H   UNL     1      -3.148   2.424  26.958  0.00  0.00    +0.149 HD
BRANCH  19  20
ATOM     20  C   UNL     1      -1.076   3.846  26.633  0.00  0.00    +0.102 C 
BRANCH  20  21
ATOM     21  C   UNL     1      -0.064   2.714  26.335  0.00  0.00    -0.029 C 
ATOM     22  C   UNL     1       1.138   2.780  27.292  0.00  0.00    +0.011 C 
ATOM     23  C   UNL     1      -0.780   1.365  26.544  0.00  0.00    +0.011 C 
ATOM     24  C   UNL     1       0.440   2.776  24.883  0.00  0.00    +0.011 C 
ENDBRANCH  20  21
ENDBRANCH  19  20
ENDBRANCH  13   3
ENDBRANCH   7  13
BRANCH   9  14
ATOM     14  C   UNL     1      -1.264  -0.714  24.661  0.00  0.00    +0.103 C 
BRANCH  14  18
ATOM      1  O   UNL     1      -0.341  -2.126  22.928  0.00  0.00    -0.276 OA
ATOM      4  N   UNL     1       0.577  -0.024  23.302  0.00  0.00    -0.311 N 
ATOM     18  C   UNL     1      -0.313  -1.061  23.538  0.00  0.00    +0.214 C 
ATOM     32  H   UNL     1       0.519   0.824  23.859  0.00  0.00    +0.149 HD
BRANCH   4  25
ATOM     25  C   UNL     1       1.603  -0.080  22.284  0.00  0.00    +0.141 C 
BRANCH  25  26
ATOM      5  N   UNL     1       5.064   1.003  23.351  0.00  0.00    -0.263 NA
ATOM     26  C   UNL     1       2.981  -0.127  22.878  0.00  0.00    -0.012 A 
ATOM     27  C   UNL     1       3.462  -1.283  23.482  0.00  0.00    +0.008 A 
ATOM     28  C   UNL     1       3.814   0.979  22.838  0.00  0.00    +0.115 A 
ATOM     29  C   UNL     1       4.744  -1.297  24.022  0.00  0.00    +0.020 A 
ATOM     30  C   UNL     1       5.497  -0.138  23.932  0.00  0.00    +0.111 A 
ENDBRANCH  25  26
ENDBRANCH   4  25
ENDBRANCH  14  18
ENDBRANCH   9  14
TORSDOF 9
ENDMDL
