MODEL 1
REMARK VINA RESULT:      -5.6      0.000      0.000
REMARK  Name = 25389034
REMARK  6 active torsions:
REMARK  status: ('A' for Active; 'I' for Inactive)
REMARK    1  A    between atoms: N_4  and  C_18
REMARK    2  A    between atoms: N_5  and  C_15
REMARK    3  A    between atoms: C_8  and  C_14
REMARK    4  A    between atoms: C_9  and  C_15
REMARK    5  A    between atoms: C_17  and  C_20
REMARK    6  A    between atoms: C_19  and  C_21
REMARK                            x       y       z     vdW  Elec       q    Type
REMARK                         _______ _______ _______ _____ _____    ______ ____
ROOT
ATOM      3  N   UNL     1      -5.885 -10.114   9.187  0.00  0.00    -0.297 NA
ATOM      7  C   UNL     1      -4.351  -8.881  10.893  0.00  0.00    +0.002 C 
ATOM      8  C   UNL     1      -4.897 -10.199  11.507  0.00  0.00    +0.055 C 
ATOM      9  C   UNL     1      -6.292  -8.688   9.299  0.00  0.00    +0.074 C 
ATOM     10  C   UNL     1      -5.534  -7.995  10.451  0.00  0.00    +0.024 C 
ATOM     11  C   UNL     1      -3.576  -9.273   9.615  0.00  0.00    +0.019 C 
ATOM     12  C   UNL     1      -5.953 -10.769  10.517  0.00  0.00    +0.094 C 
ATOM     13  C   UNL     1      -4.476 -10.149   8.726  0.00  0.00    +0.085 C 
ENDROOT
BRANCH   8  14
ATOM      4  N   UNL     1      -4.609 -10.400  14.021  0.00  0.00    -0.270 N 
ATOM      6  N   UNL     1      -5.251 -10.324  15.199  0.00  0.00    -0.171 NA
ATOM     14  C   UNL     1      -5.408 -10.166  12.940  0.00  0.00    +0.044 A 
ATOM     16  C   UNL     1      -6.662  -9.923  13.447  0.00  0.00    +0.053 A 
ATOM     17  C   UNL     1      -6.505 -10.034  14.842  0.00  0.00    +0.093 A 
ATOM     18  C   UNL     1      -3.198 -10.707  14.005  0.00  0.00    +0.172 C 
BRANCH  17  20
ATOM      1  F   UNL     1     -10.470  -9.393  18.700  0.00  0.00    -0.205 F 
ATOM     20  C   UNL     1      -7.531  -9.867  15.839  0.00  0.00    +0.002 A 
ATOM     22  C   UNL     1      -8.749  -9.282  15.496  0.00  0.00    +0.013 A 
ATOM     23  C   UNL     1      -7.304 -10.293  17.148  0.00  0.00    +0.013 A 
ATOM     24  C   UNL     1      -9.741  -9.121  16.462  0.00  0.00    +0.039 A 
ATOM     25  C   UNL     1      -8.298 -10.132  18.115  0.00  0.00    +0.039 A 
ATOM     26  C   UNL     1      -9.516  -9.546  17.772  0.00  0.00    +0.123 A 
ENDBRANCH  17  20
ENDBRANCH   8  14
BRANCH   9  15
ATOM     15  C   UNL     1      -7.807  -8.524   9.433  0.00  0.00    +0.123 C 
BRANCH  15   5
ATOM      2  O   UNL     1     -10.507  -7.457   9.366  0.00  0.00    -0.276 OA
ATOM      5  N   UNL     1      -8.241  -7.292   8.851  0.00  0.00    -0.314 N 
ATOM     19  C   UNL     1      -9.563  -6.854   8.864  0.00  0.00    +0.210 C 
ATOM     21  C   UNL     1      -9.738  -5.513   8.205  0.00  0.00    +0.109 C 
ATOM     27  H   UNL     1      -7.545  -6.723   8.377  0.00  0.00    +0.149 HD
ENDBRANCH  15   5
ENDBRANCH   9  15
TORSDOF 4
ENDMDL
MODEL 2
REMARK VINA RESULT:      -5.0      1.603      2.285
REMARK  Name = 25389034
REMARK  6 active torsions:
REMARK  status: ('A' for Active; 'I' for Inactive)
REMARK    1  A    between atoms: N_4  and  C_18
REMARK    2  A    between atoms: N_5  and  C_15
REMARK    3  A    between atoms: C_8  and  C_14
REMARK    4  A    between atoms: C_9  and  C_15
REMARK    5  A    between atoms: C_17  and  C_20
REMARK    6  A    between atoms: C_19  and  C_21
REMARK                            x       y       z     vdW  Elec       q    Type
REMARK                         _______ _______ _______ _____ _____    ______ ____
ROOT
ATOM      3  N   UNL     1      -6.152 -10.080   8.676  0.00  0.00    -0.297 NA
ATOM      7  C   UNL     1      -4.710  -8.890  10.488  0.00  0.00    +0.002 C 
ATOM      8  C   UNL     1      -5.312 -10.207  11.052  0.00  0.00    +0.055 C 
ATOM      9  C   UNL     1      -6.545  -8.651   8.781  0.00  0.00    +0.074 C 
ATOM     10  C   UNL     1      -5.851  -7.981   9.985  0.00  0.00    +0.024 C 
ATOM     11  C   UNL     1      -3.863  -9.279   9.257  0.00  0.00    +0.019 C 
ATOM     12  C   UNL     1      -6.312 -10.749   9.992  0.00  0.00    +0.094 C 
ATOM     13  C   UNL     1      -4.719 -10.131   8.304  0.00  0.00    +0.085 C 
ENDROOT
BRANCH   8  14
ATOM      4  N   UNL     1      -7.246 -10.034  12.686  0.00  0.00    -0.270 N 
ATOM      6  N   UNL     1      -7.572 -10.037  13.990  0.00  0.00    -0.171 NA
ATOM     14  C   UNL     1      -5.910 -10.182  12.451  0.00  0.00    +0.044 A 
ATOM     16  C   UNL     1      -5.322 -10.286  13.687  0.00  0.00    +0.053 A 
ATOM     17  C   UNL     1      -6.392 -10.191  14.597  0.00  0.00    +0.093 A 
ATOM     18  C   UNL     1      -8.289  -9.881  11.698  0.00  0.00    +0.172 C 
BRANCH  17  20
ATOM      1  F   UNL     1      -6.073 -10.392  20.153  0.00  0.00    -0.205 F 
ATOM     20  C   UNL     1      -6.309 -10.243  16.034  0.00  0.00    +0.002 A 
ATOM     22  C   UNL     1      -5.131 -10.664  16.649  0.00  0.00    +0.013 A 
ATOM     23  C   UNL     1      -7.408  -9.874  16.809  0.00  0.00    +0.013 A 
ATOM     24  C   UNL     1      -5.051 -10.714  18.040  0.00  0.00    +0.039 A 
ATOM     25  C   UNL     1      -7.328  -9.924  18.201  0.00  0.00    +0.039 A 
ATOM     26  C   UNL     1      -6.149 -10.344  18.817  0.00  0.00    +0.123 A 
ENDBRANCH  17  20
ENDBRANCH   8  14
BRANCH   9  15
ATOM     15  C   UNL     1      -8.064  -8.465   8.822  0.00  0.00    +0.123 C 
BRANCH  15   5
ATOM      2  O   UNL     1     -10.578  -7.148   9.435  0.00  0.00    -0.276 OA
ATOM      5  N   UNL     1      -8.420  -7.106   8.557  0.00  0.00    -0.314 N 
ATOM     19  C   UNL     1      -9.655  -6.552   8.887  0.00  0.00    +0.210 C 
ATOM     21  C   UNL     1      -9.757  -5.096   8.520  0.00  0.00    +0.109 C 
ATOM     27  H   UNL     1      -7.739  -6.525   8.076  0.00  0.00    +0.149 HD
ENDBRANCH  15   5
ENDBRANCH   9  15
TORSDOF 4
ENDMDL
MODEL 3
REMARK VINA RESULT:      -3.0     26.005     28.575
REMARK  Name = 25389034
REMARK  6 active torsions:
REMARK  status: ('A' for Active; 'I' for Inactive)
REMARK    1  A    between atoms: N_4  and  C_18
REMARK    2  A    between atoms: N_5  and  C_15
REMARK    3  A    between atoms: C_8  and  C_14
REMARK    4  A    between atoms: C_9  and  C_15
REMARK    5  A    between atoms: C_17  and  C_20
REMARK    6  A    between atoms: C_19  and  C_21
REMARK                            x       y       z     vdW  Elec       q    Type
REMARK                         _______ _______ _______ _____ _____    ______ ____
ROOT
ATOM      3  N   UNL     1      15.286  -8.650  25.444  0.00  0.00    -0.297 NA
ATOM      7  C   UNL     1      16.307  -9.546  27.665  0.00  0.00    +0.002 C 
ATOM      8  C   UNL     1      15.371  -8.338  27.946  0.00  0.00    +0.055 C 
ATOM      9  C   UNL     1      16.759  -8.790  25.306  0.00  0.00    +0.074 C 
ATOM     10  C   UNL     1      17.405  -9.119  26.668  0.00  0.00    +0.024 C 
ATOM     11  C   UNL     1      15.450 -10.621  26.963  0.00  0.00    +0.019 C 
ATOM     12  C   UNL     1      14.964  -7.738  26.570  0.00  0.00    +0.094 C 
ATOM     13  C   UNL     1      14.731  -9.988  25.759  0.00  0.00    +0.085 C 
ENDROOT
BRANCH   8  14
ATOM      4  N   UNL     1      16.618  -7.554  30.012  0.00  0.00    -0.270 N 
ATOM      6  N   UNL     1      16.930  -6.475  30.750  0.00  0.00    -0.171 NA
ATOM     14  C   UNL     1      15.846  -7.273  28.923  0.00  0.00    +0.044 A 
ATOM     16  C   UNL     1      15.637  -5.916  28.951  0.00  0.00    +0.053 A 
ATOM     17  C   UNL     1      16.328  -5.477  30.097  0.00  0.00    +0.093 A 
ATOM     18  C   UNL     1      17.103  -8.852  30.420  0.00  0.00    +0.172 C 
BRANCH  17  20
ATOM      1  F   UNL     1      16.692  -0.243  31.965  0.00  0.00    -0.205 F 
ATOM     20  C   UNL     1      16.423  -4.123  30.580  0.00  0.00    +0.002 A 
ATOM     22  C   UNL     1      17.105  -3.163  29.834  0.00  0.00    +0.013 A 
ATOM     23  C   UNL     1      15.832  -3.774  31.794  0.00  0.00    +0.013 A 
ATOM     24  C   UNL     1      17.196  -1.852  30.301  0.00  0.00    +0.039 A 
ATOM     25  C   UNL     1      15.923  -2.463  32.262  0.00  0.00    +0.039 A 
ATOM     26  C   UNL     1      16.606  -1.502  31.516  0.00  0.00    +0.123 A 
ENDBRANCH  17  20
ENDBRANCH   8  14
BRANCH   9  15
ATOM     15  C   UNL     1      17.401  -7.565  24.651  0.00  0.00    +0.123 C 
BRANCH  15   5
ATOM      2  O   UNL     1      17.247  -4.747  23.965  0.00  0.00    -0.276 OA
ATOM      5  N   UNL     1      17.405  -6.450  25.548  0.00  0.00    -0.314 N 
ATOM     19  C   UNL     1      17.327  -5.123  25.131  0.00  0.00    +0.210 C 
ATOM     21  C   UNL     1      17.325  -4.152  26.280  0.00  0.00    +0.109 C 
ATOM     27  H   UNL     1      17.500  -6.643  26.541  0.00  0.00    +0.149 HD
ENDBRANCH  15   5
ENDBRANCH   9  15
TORSDOF 4
ENDMDL
MODEL 4
REMARK VINA RESULT:      -2.2     15.596     17.964
REMARK  Name = 25389034
REMARK  6 active torsions:
REMARK  status: ('A' for Active; 'I' for Inactive)
REMARK    1  A    between atoms: N_4  and  C_18
REMARK    2  A    between atoms: N_5  and  C_15
REMARK    3  A    between atoms: C_8  and  C_14
REMARK    4  A    between atoms: C_9  and  C_15
REMARK    5  A    between atoms: C_17  and  C_20
REMARK    6  A    between atoms: C_19  and  C_21
REMARK                            x       y       z     vdW  Elec       q    Type
REMARK                         _______ _______ _______ _____ _____    ______ ____
ROOT
ATOM      3  N   UNL     1      -5.294   2.353  26.395  0.00  0.00    -0.297 NA
ATOM      7  C   UNL     1      -4.941   1.797  23.876  0.00  0.00    +0.002 C 
ATOM      8  C   UNL     1      -4.264   0.721  24.770  0.00  0.00    +0.055 C 
ATOM      9  C   UNL     1      -4.785   3.551  25.676  0.00  0.00    +0.074 C 
ATOM     10  C   UNL     1      -4.375   3.187  24.234  0.00  0.00    +0.024 C 
ATOM     11  C   UNL     1      -6.439   1.807  24.249  0.00  0.00    +0.019 C 
ATOM     12  C   UNL     1      -4.342   1.225  26.240  0.00  0.00    +0.094 C 
ATOM     13  C   UNL     1      -6.581   1.963  25.773  0.00  0.00    +0.085 C 
ENDROOT
BRANCH   8  14
ATOM      4  N   UNL     1      -2.465  -1.049  24.504  0.00  0.00    -0.270 N 
ATOM      6  N   UNL     1      -1.194  -1.259  24.122  0.00  0.00    -0.171 NA
ATOM     14  C   UNL     1      -2.867   0.250  24.395  0.00  0.00    +0.044 A 
ATOM     16  C   UNL     1      -1.782   0.938  23.909  0.00  0.00    +0.053 A 
ATOM     17  C   UNL     1      -0.782  -0.041  23.760  0.00  0.00    +0.093 A 
ATOM     18  C   UNL     1      -3.254  -2.164  24.974  0.00  0.00    +0.172 C 
BRANCH  17  20
ATOM      1  F   UNL     1       4.408   0.756  21.904  0.00  0.00    -0.205 F 
ATOM     20  C   UNL     1       0.561   0.165  23.280  0.00  0.00    +0.002 A 
ATOM     22  C   UNL     1       1.047  -0.600  22.221  0.00  0.00    +0.013 A 
ATOM     23  C   UNL     1       1.373   1.129  23.875  0.00  0.00    +0.013 A 
ATOM     24  C   UNL     1       2.346  -0.401  21.756  0.00  0.00    +0.039 A 
ATOM     25  C   UNL     1       2.673   1.329  23.410  0.00  0.00    +0.039 A 
ATOM     26  C   UNL     1       3.160   0.564  22.351  0.00  0.00    +0.123 A 
ENDBRANCH  17  20
ENDBRANCH   8  14
BRANCH   9  15
ATOM     15  C   UNL     1      -3.652   4.248  26.433  0.00  0.00    +0.123 C 
BRANCH  15   5
ATOM      2  O   UNL     1      -1.041   2.981  26.329  0.00  0.00    -0.276 OA
ATOM      5  N   UNL     1      -2.568   4.562  25.554  0.00  0.00    -0.314 N 
ATOM     19  C   UNL     1      -1.343   3.900  25.572  0.00  0.00    +0.210 C 
ATOM     21  C   UNL     1      -0.390   4.412  24.526  0.00  0.00    +0.109 C 
ATOM     27  H   UNL     1      -2.697   5.331  24.903  0.00  0.00    +0.149 HD
ENDBRANCH  15   5
ENDBRANCH   9  15
TORSDOF 4
ENDMDL
