MODEL 1
REMARK VINA RESULT:      -5.6      0.000      0.000
REMARK  Name = 51137363
REMARK  5 active torsions:
REMARK  status: ('A' for Active; 'I' for Inactive)
REMARK    1  A    between atoms: N_3  and  C_11
REMARK    2  A    between atoms: C_7  and  C_12
REMARK    3  A    between atoms: C_11  and  C_13
REMARK    4  A    between atoms: C_14  and  C_15
REMARK    5  A    between atoms: C_15  and  C_18
REMARK                            x       y       z     vdW  Elec       q    Type
REMARK                         _______ _______ _______ _____ _____    ______ ____
ROOT
ATOM      2  O   UNL     1      -1.853   2.895  24.884  0.00  0.00    -0.424 OA
ATOM      4  N   UNL     1      -0.189   4.372  25.119  0.00  0.00    -0.112 NA
ATOM      5  N   UNL     1      -1.378   5.075  25.048  0.00  0.00    -0.112 NA
ATOM     12  C   UNL     1      -0.514   3.105  25.019  0.00  0.00    +0.222 A 
ATOM     14  C   UNL     1      -2.321   4.173  24.912  0.00  0.00    +0.222 A 
ENDROOT
BRANCH  12   7
ATOM      3  N   UNL     1       0.731   0.509  23.126  0.00  0.00    -0.297 NA
ATOM      7  C   UNL     1       0.371   1.879  25.034  0.00  0.00    +0.092 C 
ATOM      8  C   UNL     1      -0.429   0.570  25.128  0.00  0.00    +0.029 C 
ATOM      9  C   UNL     1       1.256   1.709  23.785  0.00  0.00    +0.097 C 
ATOM     10  C   UNL     1       0.309  -0.383  24.203  0.00  0.00    +0.085 C 
BRANCH   3  11
ATOM     11  C   UNL     1       1.703  -0.110  22.236  0.00  0.00    +0.122 C 
BRANCH  11  13
ATOM      1  F   UNL     1       3.574   2.016  22.319  0.00  0.00    -0.205 F 
ATOM     13  C   UNL     1       3.057  -0.232  22.882  0.00  0.00    +0.002 A 
ATOM     16  C   UNL     1       3.930   0.855  22.887  0.00  0.00    +0.128 A 
ATOM     17  C   UNL     1       3.437  -1.435  23.476  0.00  0.00    +0.008 A 
ATOM     22  C   UNL     1       5.184   0.740  23.486  0.00  0.00    +0.038 A 
ATOM     23  C   UNL     1       4.692  -1.551  24.075  0.00  0.00    +0.000 A 
ATOM     24  C   UNL     1       5.566  -0.464  24.081  0.00  0.00    +0.003 A 
ENDBRANCH  11  13
ENDBRANCH   3  11
ENDBRANCH  12   7
BRANCH  14  15
ATOM     15  C   UNL     1      -3.774   4.349  24.791  0.00  0.00    +0.135 C 
BRANCH  15  18
ATOM      6  N   UNL     1      -6.157   1.722  25.839  0.00  0.00    -0.360 N 
ATOM     18  C   UNL     1      -4.594   3.092  25.060  0.00  0.00    -0.013 A 
ATOM     19  C   UNL     1      -4.344   1.790  24.542  0.00  0.00    +0.003 A 
ATOM     20  C   UNL     1      -5.340   0.950  25.046  0.00  0.00    +0.047 A 
ATOM     21  C   UNL     1      -5.715   3.018  25.854  0.00  0.00    +0.087 A 
ATOM     25  C   UNL     1      -3.364   1.244  23.689  0.00  0.00    +0.010 A 
ATOM     26  C   UNL     1      -5.403  -0.414  24.739  0.00  0.00    +0.026 A 
ATOM     27  C   UNL     1      -3.415  -0.118  23.373  0.00  0.00    +0.001 A 
ATOM     28  C   UNL     1      -4.420  -0.933  23.892  0.00  0.00    +0.002 A 
ATOM     29  H   UNL     1      -6.968   1.381  26.339  0.00  0.00    +0.165 HD
ENDBRANCH  15  18
ENDBRANCH  14  15
TORSDOF 5
ENDMDL
MODEL 2
REMARK VINA RESULT:      -5.3      2.444      5.167
REMARK  Name = 51137363
REMARK  5 active torsions:
REMARK  status: ('A' for Active; 'I' for Inactive)
REMARK    1  A    between atoms: N_3  and  C_11
REMARK    2  A    between atoms: C_7  and  C_12
REMARK    3  A    between atoms: C_11  and  C_13
REMARK    4  A    between atoms: C_14  and  C_15
REMARK    5  A    between atoms: C_15  and  C_18
REMARK                            x       y       z     vdW  Elec       q    Type
REMARK                         _______ _______ _______ _____ _____    ______ ____
ROOT
ATOM      2  O   UNL     1      -2.620  -0.849  24.663  0.00  0.00    -0.424 OA
ATOM      4  N   UNL     1      -1.766  -2.902  24.422  0.00  0.00    -0.112 NA
ATOM      5  N   UNL     1      -3.145  -3.009  24.420  0.00  0.00    -0.112 NA
ATOM     12  C   UNL     1      -1.505  -1.624  24.566  0.00  0.00    +0.222 A 
ATOM     14  C   UNL     1      -3.600  -1.787  24.563  0.00  0.00    +0.222 A 
ENDROOT
BRANCH  12   7
ATOM      3  N   UNL     1       0.107   1.390  24.133  0.00  0.00    -0.297 NA
ATOM      7  C   UNL     1      -0.171  -0.915  24.637  0.00  0.00    +0.092 C 
ATOM      8  C   UNL     1       0.471  -0.720  23.254  0.00  0.00    +0.029 C 
ATOM      9  C   UNL     1      -0.224   0.497  25.248  0.00  0.00    +0.097 C 
ATOM     10  C   UNL     1       1.085   0.668  23.323  0.00  0.00    +0.085 C 
BRANCH   3  11
ATOM     11  C   UNL     1       0.599   2.685  24.582  0.00  0.00    +0.122 C 
BRANCH  11  13
ATOM      1  F   UNL     1       0.205   5.350  23.707  0.00  0.00    -0.205 F 
ATOM     13  C   UNL     1      -0.513   3.562  25.092  0.00  0.00    +0.002 A 
ATOM     16  C   UNL     1      -0.649   4.866  24.619  0.00  0.00    +0.128 A 
ATOM     17  C   UNL     1      -1.408   3.066  26.040  0.00  0.00    +0.008 A 
ATOM     22  C   UNL     1      -1.681   5.676  25.093  0.00  0.00    +0.038 A 
ATOM     23  C   UNL     1      -2.440   3.876  26.516  0.00  0.00    +0.000 A 
ATOM     24  C   UNL     1      -2.577   5.181  26.042  0.00  0.00    +0.003 A 
ENDBRANCH  11  13
ENDBRANCH   3  11
ENDBRANCH  12   7
BRANCH  14  15
ATOM     15  C   UNL     1      -4.987  -1.306  24.625  0.00  0.00    +0.135 C 
BRANCH  15  18
ATOM      6  N   UNL     1      -5.838   2.233  25.275  0.00  0.00    -0.360 N 
ATOM     18  C   UNL     1      -5.133   0.210  24.697  0.00  0.00    -0.013 A 
ATOM     19  C   UNL     1      -4.392   1.169  23.953  0.00  0.00    +0.003 A 
ATOM     20  C   UNL     1      -4.854   2.431  24.335  0.00  0.00    +0.047 A 
ATOM     21  C   UNL     1      -6.015   0.894  25.501  0.00  0.00    +0.087 A 
ATOM     25  C   UNL     1      -3.369   1.085  22.988  0.00  0.00    +0.010 A 
ATOM     26  C   UNL     1      -4.342   3.617  23.797  0.00  0.00    +0.026 A 
ATOM     27  C   UNL     1      -2.846   2.263  22.441  0.00  0.00    +0.001 A 
ATOM     28  C   UNL     1      -3.328   3.509  22.842  0.00  0.00    +0.002 A 
ATOM     29  H   UNL     1      -6.357   2.971  25.734  0.00  0.00    +0.165 HD
ENDBRANCH  15  18
ENDBRANCH  14  15
TORSDOF 5
ENDMDL
MODEL 3
REMARK VINA RESULT:      -3.7      1.870      3.726
REMARK  Name = 51137363
REMARK  5 active torsions:
REMARK  status: ('A' for Active; 'I' for Inactive)
REMARK    1  A    between atoms: N_3  and  C_11
REMARK    2  A    between atoms: C_7  and  C_12
REMARK    3  A    between atoms: C_11  and  C_13
REMARK    4  A    between atoms: C_14  and  C_15
REMARK    5  A    between atoms: C_15  and  C_18
REMARK                            x       y       z     vdW  Elec       q    Type
REMARK                         _______ _______ _______ _____ _____    ______ ____
ROOT
ATOM      2  O   UNL     1      -3.491   1.741  25.286  0.00  0.00    -0.424 OA
ATOM      4  N   UNL     1      -4.417   3.716  24.788  0.00  0.00    -0.112 NA
ATOM      5  N   UNL     1      -5.397   2.746  24.687  0.00  0.00    -0.112 NA
ATOM     12  C   UNL     1      -3.321   3.084  25.140  0.00  0.00    +0.222 A 
ATOM     14  C   UNL     1      -4.812   1.611  24.986  0.00  0.00    +0.222 A 
ENDROOT
BRANCH  12   7
ATOM      3  N   UNL     1       0.049   2.374  25.032  0.00  0.00    -0.297 NA
ATOM      7  C   UNL     1      -1.935   3.630  25.399  0.00  0.00    +0.092 C 
ATOM      8  C   UNL     1      -1.339   3.130  26.724  0.00  0.00    +0.029 C 
ATOM      9  C   UNL     1      -0.888   3.259  24.333  0.00  0.00    +0.097 C 
ATOM     10  C   UNL     1       0.125   2.879  26.401  0.00  0.00    +0.085 C 
BRANCH   3  11
ATOM     11  C   UNL     1       1.351   2.315  24.385  0.00  0.00    +0.122 C 
BRANCH  11  13
ATOM      1  F   UNL     1       3.747   1.588  23.059  0.00  0.00    -0.205 F 
ATOM     13  C   UNL     1       1.428   1.198  23.379  0.00  0.00    +0.002 A 
ATOM     16  C   UNL     1       2.640   0.893  22.762  0.00  0.00    +0.128 A 
ATOM     17  C   UNL     1       0.282   0.467  23.064  0.00  0.00    +0.008 A 
ATOM     22  C   UNL     1       2.708  -0.143  21.831  0.00  0.00    +0.038 A 
ATOM     23  C   UNL     1       0.349  -0.569  22.132  0.00  0.00    +0.000 A 
ATOM     24  C   UNL     1       1.562  -0.874  21.515  0.00  0.00    +0.003 A 
ENDBRANCH  11  13
ENDBRANCH   3  11
ENDBRANCH  12   7
BRANCH  14  15
ATOM     15  C   UNL     1      -5.373   0.254  25.042  0.00  0.00    +0.135 C 
BRANCH  15  18
ATOM      6  N   UNL     1      -3.588  -2.643  23.596  0.00  0.00    -0.360 N 
ATOM     18  C   UNL     1      -4.417  -0.851  24.610  0.00  0.00    -0.013 A 
ATOM     19  C   UNL     1      -3.076  -1.032  25.051  0.00  0.00    +0.003 A 
ATOM     20  C   UNL     1      -2.579  -2.163  24.399  0.00  0.00    +0.047 A 
ATOM     21  C   UNL     1      -4.703  -1.857  23.715  0.00  0.00    +0.087 A 
ATOM     25  C   UNL     1      -2.235  -0.340  25.944  0.00  0.00    +0.010 A 
ATOM     26  C   UNL     1      -1.278  -2.639  24.598  0.00  0.00    +0.026 A 
ATOM     27  C   UNL     1      -0.931  -0.803  26.153  0.00  0.00    +0.001 A 
ATOM     28  C   UNL     1      -0.462  -1.936  25.489  0.00  0.00    +0.002 A 
ATOM     29  H   UNL     1      -3.516  -3.459  23.002  0.00  0.00    +0.165 HD
ENDBRANCH  15  18
ENDBRANCH  14  15
TORSDOF 5
ENDMDL
MODEL 4
REMARK VINA RESULT:      -3.7      1.682      2.665
REMARK  Name = 51137363
REMARK  5 active torsions:
REMARK  status: ('A' for Active; 'I' for Inactive)
REMARK    1  A    between atoms: N_3  and  C_11
REMARK    2  A    between atoms: C_7  and  C_12
REMARK    3  A    between atoms: C_11  and  C_13
REMARK    4  A    between atoms: C_14  and  C_15
REMARK    5  A    between atoms: C_15  and  C_18
REMARK                            x       y       z     vdW  Elec       q    Type
REMARK                         _______ _______ _______ _____ _____    ______ ____
ROOT
ATOM      2  O   UNL     1      -2.726   1.735  24.606  0.00  0.00    -0.424 OA
ATOM      4  N   UNL     1      -2.807   3.887  25.215  0.00  0.00    -0.112 NA
ATOM      5  N   UNL     1      -4.043   3.323  25.474  0.00  0.00    -0.112 NA
ATOM     12  C   UNL     1      -2.071   2.924  24.710  0.00  0.00    +0.222 A 
ATOM     14  C   UNL     1      -3.949   2.068  25.104  0.00  0.00    +0.222 A 
ENDROOT
BRANCH  12   7
ATOM      3  N   UNL     1       0.553   1.016  23.550  0.00  0.00    -0.297 NA
ATOM      7  C   UNL     1      -0.634   2.955  24.240  0.00  0.00    +0.092 C 
ATOM      8  C   UNL     1       0.354   2.491  25.322  0.00  0.00    +0.029 C 
ATOM      9  C   UNL     1      -0.334   2.059  23.025  0.00  0.00    +0.097 C 
ATOM     10  C   UNL     1       1.381   1.671  24.559  0.00  0.00    +0.085 C 
BRANCH   3  11
ATOM     11  C   UNL     1       1.343   0.378  22.507  0.00  0.00    +0.122 C 
BRANCH  11  13
ATOM      1  F   UNL     1       3.478   2.241  22.490  0.00  0.00    -0.205 F 
ATOM     13  C   UNL     1       2.732   0.042  22.982  0.00  0.00    +0.002 A 
ATOM     16  C   UNL     1       3.737   1.007  22.946  0.00  0.00    +0.128 A 
ATOM     17  C   UNL     1       3.011  -1.239  23.459  0.00  0.00    +0.008 A 
ATOM     22  C   UNL     1       5.022   0.693  23.386  0.00  0.00    +0.038 A 
ATOM     23  C   UNL     1       4.297  -1.554  23.899  0.00  0.00    +0.000 A 
ATOM     24  C   UNL     1       5.303  -0.588  23.864  0.00  0.00    +0.003 A 
ENDBRANCH  11  13
ENDBRANCH   3  11
ENDBRANCH  12   7
BRANCH  14  15
ATOM     15  C   UNL     1      -4.956   0.999  25.154  0.00  0.00    +0.135 C 
BRANCH  15  18
ATOM      6  N   UNL     1      -4.384  -2.385  23.778  0.00  0.00    -0.360 N 
ATOM     18  C   UNL     1      -4.458  -0.369  24.704  0.00  0.00    -0.013 A 
ATOM     19  C   UNL     1      -3.172  -0.927  24.953  0.00  0.00    +0.003 A 
ATOM     20  C   UNL     1      -3.152  -2.192  24.361  0.00  0.00    +0.047 A 
ATOM     21  C   UNL     1      -5.180  -1.290  23.980  0.00  0.00    +0.087 A 
ATOM     25  C   UNL     1      -2.020  -0.475  25.626  0.00  0.00    +0.010 A 
ATOM     26  C   UNL     1      -2.033  -3.031  24.410  0.00  0.00    +0.026 A 
ATOM     27  C   UNL     1      -0.893  -1.303  25.684  0.00  0.00    +0.001 A 
ATOM     28  C   UNL     1      -0.903  -2.561  25.084  0.00  0.00    +0.002 A 
ATOM     29  H   UNL     1      -4.661  -3.217  23.274  0.00  0.00    +0.165 HD
ENDBRANCH  15  18
ENDBRANCH  14  15
TORSDOF 5
ENDMDL
MODEL 5
REMARK VINA RESULT:      -3.4      1.815      3.312
REMARK  Name = 51137363
REMARK  5 active torsions:
REMARK  status: ('A' for Active; 'I' for Inactive)
REMARK    1  A    between atoms: N_3  and  C_11
REMARK    2  A    between atoms: C_7  and  C_12
REMARK    3  A    between atoms: C_11  and  C_13
REMARK    4  A    between atoms: C_14  and  C_15
REMARK    5  A    between atoms: C_15  and  C_18
REMARK                            x       y       z     vdW  Elec       q    Type
REMARK                         _______ _______ _______ _____ _____    ______ ____
ROOT
ATOM      2  O   UNL     1      -2.957   0.093  24.663  0.00  0.00    -0.424 OA
ATOM      4  N   UNL     1      -2.772  -2.132  24.807  0.00  0.00    -0.112 NA
ATOM      5  N   UNL     1      -4.111  -1.823  24.651  0.00  0.00    -0.112 NA
ATOM     12  C   UNL     1      -2.136  -0.983  24.808  0.00  0.00    +0.222 A 
ATOM     14  C   UNL     1      -4.171  -0.515  24.572  0.00  0.00    +0.222 A 
ENDROOT
BRANCH  12   7
ATOM      3  N   UNL     1       0.846  -0.704  23.104  0.00  0.00    -0.297 NA
ATOM      7  C   UNL     1      -0.656  -0.701  24.945  0.00  0.00    +0.092 C 
ATOM      8  C   UNL     1       0.196  -1.979  24.923  0.00  0.00    +0.029 C 
ATOM      9  C   UNL     1      -0.065   0.185  23.833  0.00  0.00    +0.097 C 
ATOM     10  C   UNL     1       1.420  -1.594  24.108  0.00  0.00    +0.085 C 
BRANCH   3  11
ATOM     11  C   UNL     1       1.860   0.027  22.358  0.00  0.00    +0.122 C 
BRANCH  11  13
ATOM      1  F   UNL     1       3.717   2.152  22.605  0.00  0.00    -0.205 F 
ATOM     13  C   UNL     1       3.230  -0.143  22.960  0.00  0.00    +0.002 A 
ATOM     16  C   UNL     1       4.095   0.946  23.051  0.00  0.00    +0.128 A 
ATOM     17  C   UNL     1       3.632  -1.394  23.428  0.00  0.00    +0.008 A 
ATOM     22  C   UNL     1       5.363   0.786  23.609  0.00  0.00    +0.038 A 
ATOM     23  C   UNL     1       4.901  -1.555  23.986  0.00  0.00    +0.000 A 
ATOM     24  C   UNL     1       5.766  -0.465  24.077  0.00  0.00    +0.003 A 
ENDBRANCH  11  13
ENDBRANCH   3  11
ENDBRANCH  12   7
BRANCH  14  15
ATOM     15  C   UNL     1      -5.338   0.360  24.399  0.00  0.00    +0.135 C 
BRANCH  15  18
ATOM      6  N   UNL     1      -5.705   3.548  26.236  0.00  0.00    -0.360 N 
ATOM     18  C   UNL     1      -5.219   1.724  25.069  0.00  0.00    -0.013 A 
ATOM     19  C   UNL     1      -4.084   2.582  25.047  0.00  0.00    +0.003 A 
ATOM     20  C   UNL     1      -4.416   3.719  25.787  0.00  0.00    +0.047 A 
ATOM     21  C   UNL     1      -6.200   2.345  25.807  0.00  0.00    +0.087 A 
ATOM     25  C   UNL     1      -2.802   2.500  24.467  0.00  0.00    +0.010 A 
ATOM     26  C   UNL     1      -3.526   4.783  25.976  0.00  0.00    +0.026 A 
ATOM     27  C   UNL     1      -1.902   3.556  24.648  0.00  0.00    +0.001 A 
ATOM     28  C   UNL     1      -2.261   4.679  25.391  0.00  0.00    +0.002 A 
ATOM     29  H   UNL     1      -6.214   4.215  26.801  0.00  0.00    +0.165 HD
ENDBRANCH  15  18
ENDBRANCH  14  15
TORSDOF 5
ENDMDL
MODEL 6
REMARK VINA RESULT:      -3.4      2.235      4.101
REMARK  Name = 51137363
REMARK  5 active torsions:
REMARK  status: ('A' for Active; 'I' for Inactive)
REMARK    1  A    between atoms: N_3  and  C_11
REMARK    2  A    between atoms: C_7  and  C_12
REMARK    3  A    between atoms: C_11  and  C_13
REMARK    4  A    between atoms: C_14  and  C_15
REMARK    5  A    between atoms: C_15  and  C_18
REMARK                            x       y       z     vdW  Elec       q    Type
REMARK                         _______ _______ _______ _____ _____    ______ ____
ROOT
ATOM      2  O   UNL     1      -1.512   2.949  24.929  0.00  0.00    -0.424 OA
ATOM      4  N   UNL     1      -0.087   4.359  23.936  0.00  0.00    -0.112 NA
ATOM      5  N   UNL     1      -0.837   5.080  24.847  0.00  0.00    -0.112 NA
ATOM     12  C   UNL     1      -0.515   3.121  24.018  0.00  0.00    +0.222 A 
ATOM     14  C   UNL     1      -1.654   4.217  25.403  0.00  0.00    +0.222 A 
ENDROOT
BRANCH  12   7
ATOM      3  N   UNL     1       0.407  -0.187  24.309  0.00  0.00    -0.297 NA
ATOM      7  C   UNL     1      -0.064   1.893  23.259  0.00  0.00    +0.092 C 
ATOM      8  C   UNL     1       1.450   1.653  23.366  0.00  0.00    +0.029 C 
ATOM      9  C   UNL     1      -0.705   0.574  23.729  0.00  0.00    +0.097 C 
ATOM     10  C   UNL     1       1.578   0.144  23.500  0.00  0.00    +0.085 C 
BRANCH   3  11
ATOM     11  C   UNL     1       0.143  -1.617  24.351  0.00  0.00    +0.122 C 
BRANCH  11  13
ATOM      1  F   UNL     1      -1.051  -0.682  26.744  0.00  0.00    -0.205 F 
ATOM     13  C   UNL     1      -1.284  -1.914  24.728  0.00  0.00    +0.002 A 
ATOM     16  C   UNL     1      -1.809  -1.422  25.922  0.00  0.00    +0.128 A 
ATOM     17  C   UNL     1      -2.081  -2.681  23.879  0.00  0.00    +0.008 A 
ATOM     22  C   UNL     1      -3.131  -1.698  26.269  0.00  0.00    +0.038 A 
ATOM     23  C   UNL     1      -3.404  -2.958  24.226  0.00  0.00    +0.000 A 
ATOM     24  C   UNL     1      -3.930  -2.466  25.421  0.00  0.00    +0.003 A 
ENDBRANCH  11  13
ENDBRANCH   3  11
ENDBRANCH  12   7
BRANCH  14  15
ATOM     15  C   UNL     1      -2.673   4.426  26.441  0.00  0.00    +0.135 C 
BRANCH  15  18
ATOM      6  N   UNL     1      -6.275   4.109  25.667  0.00  0.00    -0.360 N 
ATOM     18  C   UNL     1      -4.088   4.029  26.036  0.00  0.00    -0.013 A 
ATOM     19  C   UNL     1      -4.495   2.776  25.498  0.00  0.00    +0.003 A 
ATOM     20  C   UNL     1      -5.871   2.853  25.275  0.00  0.00    +0.047 A 
ATOM     21  C   UNL     1      -5.204   4.828  26.128  0.00  0.00    +0.087 A 
ATOM     25  C   UNL     1      -3.822   1.580  25.178  0.00  0.00    +0.010 A 
ATOM     26  C   UNL     1      -6.612   1.790  24.747  0.00  0.00    +0.026 A 
ATOM     27  C   UNL     1      -4.549   0.508  24.649  0.00  0.00    +0.001 A 
ATOM     28  C   UNL     1      -5.923   0.614  24.438  0.00  0.00    +0.002 A 
ATOM     29  H   UNL     1      -7.225   4.452  25.620  0.00  0.00    +0.165 HD
ENDBRANCH  15  18
ENDBRANCH  14  15
TORSDOF 5
ENDMDL
MODEL 7
REMARK VINA RESULT:      -2.7      2.342      6.365
REMARK  Name = 51137363
REMARK  5 active torsions:
REMARK  status: ('A' for Active; 'I' for Inactive)
REMARK    1  A    between atoms: N_3  and  C_11
REMARK    2  A    between atoms: C_7  and  C_12
REMARK    3  A    between atoms: C_11  and  C_13
REMARK    4  A    between atoms: C_14  and  C_15
REMARK    5  A    between atoms: C_15  and  C_18
REMARK                            x       y       z     vdW  Elec       q    Type
REMARK                         _______ _______ _______ _____ _____    ______ ____
ROOT
ATOM      2  O   UNL     1      -1.686   3.166  24.815  0.00  0.00    -0.424 OA
ATOM      4  N   UNL     1      -2.320   5.174  25.570  0.00  0.00    -0.112 NA
ATOM      5  N   UNL     1      -1.059   5.304  25.016  0.00  0.00    -0.112 NA
ATOM     12  C   UNL     1      -2.646   3.910  25.431  0.00  0.00    +0.222 A 
ATOM     14  C   UNL     1      -0.730   4.108  24.588  0.00  0.00    +0.222 A 
ENDROOT
BRANCH  12   7
ATOM      3  N   UNL     1      -4.715   1.239  24.756  0.00  0.00    -0.297 NA
ATOM      7  C   UNL     1      -3.907   3.188  25.848  0.00  0.00    +0.092 C 
ATOM      8  C   UNL     1      -5.104   3.513  24.942  0.00  0.00    +0.029 C 
ATOM      9  C   UNL     1      -3.806   1.652  25.830  0.00  0.00    +0.097 C 
ATOM     10  C   UNL     1      -5.827   2.185  24.792  0.00  0.00    +0.085 C 
BRANCH   3  11
ATOM     11  C   UNL     1      -5.151  -0.143  24.895  0.00  0.00    +0.122 C 
BRANCH  11  13
ATOM      1  F   UNL     1      -5.101  -2.466  23.274  0.00  0.00    -0.205 F 
ATOM     13  C   UNL     1      -3.992  -1.103  24.870  0.00  0.00    +0.002 A 
ATOM     16  C   UNL     1      -4.033  -2.228  24.048  0.00  0.00    +0.128 A 
ATOM     17  C   UNL     1      -2.875  -0.864  25.670  0.00  0.00    +0.008 A 
ATOM     22  C   UNL     1      -2.957  -3.116  24.026  0.00  0.00    +0.038 A 
ATOM     23  C   UNL     1      -1.799  -1.752  25.650  0.00  0.00    +0.000 A 
ATOM     24  C   UNL     1      -1.839  -2.877  24.827  0.00  0.00    +0.003 A 
ENDBRANCH  11  13
ENDBRANCH   3  11
ENDBRANCH  12   7
BRANCH  14  15
ATOM     15  C   UNL     1       0.495   3.659  23.914  0.00  0.00    +0.135 C 
BRANCH  15  18
ATOM      6  N   UNL     1       0.136  -0.017  23.742  0.00  0.00    -0.360 N 
ATOM     18  C   UNL     1       0.626   2.148  23.767  0.00  0.00    -0.013 A 
ATOM     19  C   UNL     1       1.796   1.431  23.392  0.00  0.00    +0.003 A 
ATOM     20  C   UNL     1       1.462   0.075  23.384  0.00  0.00    +0.047 A 
ATOM     21  C   UNL     1      -0.378   1.230  23.975  0.00  0.00    +0.087 A 
ATOM     25  C   UNL     1       3.113   1.806  23.058  0.00  0.00    +0.010 A 
ATOM     26  C   UNL     1       2.382  -0.928  23.057  0.00  0.00    +0.026 A 
ATOM     27  C   UNL     1       4.044   0.815  22.729  0.00  0.00    +0.001 A 
ATOM     28  C   UNL     1       3.681  -0.531  22.730  0.00  0.00    +0.002 A 
ATOM     29  H   UNL     1      -0.383  -0.882  23.821  0.00  0.00    +0.165 HD
ENDBRANCH  15  18
ENDBRANCH  14  15
TORSDOF 5
ENDMDL
MODEL 8
REMARK VINA RESULT:      -2.6      2.733      6.573
REMARK  Name = 51137363
REMARK  5 active torsions:
REMARK  status: ('A' for Active; 'I' for Inactive)
REMARK    1  A    between atoms: N_3  and  C_11
REMARK    2  A    between atoms: C_7  and  C_12
REMARK    3  A    between atoms: C_11  and  C_13
REMARK    4  A    between atoms: C_14  and  C_15
REMARK    5  A    between atoms: C_15  and  C_18
REMARK                            x       y       z     vdW  Elec       q    Type
REMARK                         _______ _______ _______ _____ _____    ______ ____
ROOT
ATOM      2  O   UNL     1      -0.290   1.324  24.410  0.00  0.00    -0.424 OA
ATOM      4  N   UNL     1       1.416   2.747  24.143  0.00  0.00    -0.112 NA
ATOM      5  N   UNL     1       1.746   1.560  23.514  0.00  0.00    -0.112 NA
ATOM     12  C   UNL     1       0.220   2.563  24.652  0.00  0.00    +0.222 A 
ATOM     14  C   UNL     1       0.722   0.761  23.696  0.00  0.00    +0.222 A 
ENDROOT
BRANCH  12   7
ATOM      3  N   UNL     1      -2.629   4.501  24.586  0.00  0.00    -0.297 NA
ATOM      7  C   UNL     1      -0.646   3.515  25.447  0.00  0.00    +0.092 C 
ATOM      8  C   UNL     1      -0.417   4.985  25.065  0.00  0.00    +0.029 C 
ATOM      9  C   UNL     1      -2.161   3.298  25.282  0.00  0.00    +0.097 C 
ATOM     10  C   UNL     1      -1.808   5.597  25.093  0.00  0.00    +0.085 C 
BRANCH   3  11
ATOM     11  C   UNL     1      -4.053   4.736  24.774  0.00  0.00    +0.122 C 
BRANCH  11  13
ATOM      1  F   UNL     1      -4.173   2.527  23.004  0.00  0.00    -0.205 F 
ATOM     13  C   UNL     1      -4.795   3.466  25.094  0.00  0.00    +0.002 A 
ATOM     16  C   UNL     1      -4.813   2.416  24.177  0.00  0.00    +0.128 A 
ATOM     17  C   UNL     1      -5.463   3.340  26.312  0.00  0.00    +0.008 A 
ATOM     22  C   UNL     1      -5.500   1.240  24.475  0.00  0.00    +0.038 A 
ATOM     23  C   UNL     1      -6.152   2.164  26.611  0.00  0.00    +0.000 A 
ATOM     24  C   UNL     1      -6.170   1.113  25.694  0.00  0.00    +0.003 A 
ENDBRANCH  11  13
ENDBRANCH   3  11
ENDBRANCH  12   7
BRANCH  14  15
ATOM     15  C   UNL     1       0.523  -0.622  23.243  0.00  0.00    +0.135 C 
BRANCH  15  18
ATOM      6  N   UNL     1      -1.083  -2.865  25.706  0.00  0.00    -0.360 N 
ATOM     18  C   UNL     1      -0.386  -1.462  24.134  0.00  0.00    -0.013 A 
ATOM     19  C   UNL     1      -1.806  -1.528  24.074  0.00  0.00    +0.003 A 
ATOM     20  C   UNL     1      -2.217  -2.415  25.071  0.00  0.00    +0.047 A 
ATOM     21  C   UNL     1       0.030  -2.295  25.148  0.00  0.00    +0.087 A 
ATOM     25  C   UNL     1      -2.784  -0.916  23.265  0.00  0.00    +0.010 A 
ATOM     26  C   UNL     1      -3.563  -2.723  25.300  0.00  0.00    +0.026 A 
ATOM     27  C   UNL     1      -4.133  -1.213  23.482  0.00  0.00    +0.001 A 
ATOM     28  C   UNL     1      -4.515  -2.104  24.485  0.00  0.00    +0.002 A 
ATOM     29  H   UNL     1      -1.072  -3.523  26.475  0.00  0.00    +0.165 HD
ENDBRANCH  15  18
ENDBRANCH  14  15
TORSDOF 5
ENDMDL
MODEL 9
REMARK VINA RESULT:      -2.4      3.000      5.540
REMARK  Name = 51137363
REMARK  5 active torsions:
REMARK  status: ('A' for Active; 'I' for Inactive)
REMARK    1  A    between atoms: N_3  and  C_11
REMARK    2  A    between atoms: C_7  and  C_12
REMARK    3  A    between atoms: C_11  and  C_13
REMARK    4  A    between atoms: C_14  and  C_15
REMARK    5  A    between atoms: C_15  and  C_18
REMARK                            x       y       z     vdW  Elec       q    Type
REMARK                         _______ _______ _______ _____ _____    ______ ____
ROOT
ATOM      2  O   UNL     1      -3.529   3.169  25.602  0.00  0.00    -0.424 OA
ATOM      4  N   UNL     1      -5.329   4.427  26.029  0.00  0.00    -0.112 NA
ATOM      5  N   UNL     1      -4.231   5.265  25.946  0.00  0.00    -0.112 NA
ATOM     12  C   UNL     1      -4.872   3.214  25.822  0.00  0.00    +0.222 A 
ATOM     14  C   UNL     1      -3.205   4.487  25.696  0.00  0.00    +0.222 A 
ENDROOT
BRANCH  12   7
ATOM      3  N   UNL     1      -4.940   0.051  24.458  0.00  0.00    -0.297 NA
ATOM      7  C   UNL     1      -5.614   1.897  25.793  0.00  0.00    +0.092 C 
ATOM      8  C   UNL     1      -6.511   1.748  24.555  0.00  0.00    +0.029 C 
ATOM      9  C   UNL     1      -4.711   0.650  25.777  0.00  0.00    +0.097 C 
ATOM     10  C   UNL     1      -6.348   0.291  24.152  0.00  0.00    +0.085 C 
BRANCH   3  11
ATOM     11  C   UNL     1      -4.594  -1.363  24.418  0.00  0.00    +0.122 C 
BRANCH  11  13
ATOM      1  F   UNL     1      -3.018  -3.477  23.384  0.00  0.00    -0.205 F 
ATOM     13  C   UNL     1      -3.165  -1.602  24.831  0.00  0.00    +0.002 A 
ATOM     16  C   UNL     1      -2.447  -2.663  24.281  0.00  0.00    +0.128 A 
ATOM     17  C   UNL     1      -2.561  -0.759  25.763  0.00  0.00    +0.008 A 
ATOM     22  C   UNL     1      -1.124  -2.882  24.665  0.00  0.00    +0.038 A 
ATOM     23  C   UNL     1      -1.238  -0.978  26.148  0.00  0.00    +0.000 A 
ATOM     24  C   UNL     1      -0.519  -2.039  25.598  0.00  0.00    +0.003 A 
ENDBRANCH  11  13
ENDBRANCH   3  11
ENDBRANCH  12   7
BRANCH  14  15
ATOM     15  C   UNL     1      -1.790   4.836  25.506  0.00  0.00    +0.135 C 
BRANCH  15  18
ATOM      6  N   UNL     1       0.823   2.220  25.560  0.00  0.00    -0.360 N 
ATOM     18  C   UNL     1      -0.860   3.645  25.307  0.00  0.00    -0.013 A 
ATOM     19  C   UNL     1      -0.994   2.619  24.330  0.00  0.00    +0.003 A 
ATOM     20  C   UNL     1       0.074   1.739  24.511  0.00  0.00    +0.047 A 
ATOM     21  C   UNL     1       0.267   3.373  26.048  0.00  0.00    +0.087 A 
ATOM     25  C   UNL     1      -1.926   2.355  23.306  0.00  0.00    +0.010 A 
ATOM     26  C   UNL     1       0.259   0.602  23.715  0.00  0.00    +0.026 A 
ATOM     27  C   UNL     1      -1.754   1.222  22.503  0.00  0.00    +0.001 A 
ATOM     28  C   UNL     1      -0.677   0.360  22.706  0.00  0.00    +0.002 A 
ATOM     29  H   UNL     1       1.663   1.786  25.919  0.00  0.00    +0.165 HD
ENDBRANCH  15  18
ENDBRANCH  14  15
TORSDOF 5
ENDMDL
MODEL 10
REMARK VINA RESULT:      -1.8      2.890      6.728
REMARK  Name = 51137363
REMARK  5 active torsions:
REMARK  status: ('A' for Active; 'I' for Inactive)
REMARK    1  A    between atoms: N_3  and  C_11
REMARK    2  A    between atoms: C_7  and  C_12
REMARK    3  A    between atoms: C_11  and  C_13
REMARK    4  A    between atoms: C_14  and  C_15
REMARK    5  A    between atoms: C_15  and  C_18
REMARK                            x       y       z     vdW  Elec       q    Type
REMARK                         _______ _______ _______ _____ _____    ______ ____
ROOT
ATOM      2  O   UNL     1      -3.024  -0.661  24.259  0.00  0.00    -0.424 OA
ATOM      4  N   UNL     1      -4.767  -2.057  24.134  0.00  0.00    -0.112 NA
ATOM      5  N   UNL     1      -3.610  -2.813  24.086  0.00  0.00    -0.112 NA
ATOM     12  C   UNL     1      -4.377  -0.808  24.235  0.00  0.00    +0.222 A 
ATOM     14  C   UNL     1      -2.619  -1.957  24.162  0.00  0.00    +0.222 A 
ENDROOT
BRANCH  12   7
ATOM      3  N   UNL     1      -4.469   2.414  25.454  0.00  0.00    -0.297 NA
ATOM      7  C   UNL     1      -5.203   0.456  24.326  0.00  0.00    +0.092 C 
ATOM      8  C   UNL     1      -5.902   0.610  25.686  0.00  0.00    +0.029 C 
ATOM      9  C   UNL     1      -4.407   1.760  24.143  0.00  0.00    +0.097 C 
ATOM     10  C   UNL     1      -5.788   2.094  25.994  0.00  0.00    +0.085 C 
BRANCH   3  11
ATOM     11  C   UNL     1      -4.229   3.847  25.376  0.00  0.00    +0.122 C 
BRANCH  11  13
ATOM      1  F   UNL     1      -2.590   5.950  26.333  0.00  0.00    -0.205 F 
ATOM     13  C   UNL     1      -2.872   4.159  24.802  0.00  0.00    +0.002 A 
ATOM     16  C   UNL     1      -2.117   5.209  25.321  0.00  0.00    +0.128 A 
ATOM     17  C   UNL     1      -2.371   3.393  23.750  0.00  0.00    +0.008 A 
ATOM     22  C   UNL     1      -0.861   5.495  24.788  0.00  0.00    +0.038 A 
ATOM     23  C   UNL     1      -1.114   3.679  23.215  0.00  0.00    +0.000 A 
ATOM     24  C   UNL     1      -0.358   4.730  23.735  0.00  0.00    +0.003 A 
ENDBRANCH  11  13
ENDBRANCH   3  11
ENDBRANCH  12   7
BRANCH  14  15
ATOM     15  C   UNL     1      -1.170  -2.200  24.160  0.00  0.00    +0.135 C 
BRANCH  15  18
ATOM      6  N   UNL     1       1.174   0.546  23.360  0.00  0.00    -0.360 N 
ATOM     18  C   UNL     1      -0.312  -0.943  24.067  0.00  0.00    -0.013 A 
ATOM     19  C   UNL     1      -0.330   0.163  24.961  0.00  0.00    +0.003 A 
ATOM     20  C   UNL     1       0.612   1.083  24.495  0.00  0.00    +0.047 A 
ATOM     21  C   UNL     1       0.623  -0.679  23.092  0.00  0.00    +0.087 A 
ATOM     25  C   UNL     1      -1.060   0.472  26.127  0.00  0.00    +0.010 A 
ATOM     26  C   UNL     1       0.862   2.300  25.139  0.00  0.00    +0.026 A 
ATOM     27  C   UNL     1      -0.821   1.685  26.781  0.00  0.00    +0.001 A 
ATOM     28  C   UNL     1       0.127   2.584  26.293  0.00  0.00    +0.002 A 
ATOM     29  H   UNL     1       1.892   0.991  22.804  0.00  0.00    +0.165 HD
ENDBRANCH  15  18
ENDBRANCH  14  15
TORSDOF 5
ENDMDL
