MODEL 1
REMARK VINA RESULT:       2.8      0.000      0.000
REMARK  Name = 40780078
REMARK  8 active torsions:
REMARK  status: ('A' for Active; 'I' for Inactive)
REMARK    1  A    between atoms: O_5  and  C_19
REMARK    2  A    between atoms: O_5  and  C_24
REMARK    3  A    between atoms: N_8  and  C_22
REMARK    4  A    between atoms: N_10  and  C_28
REMARK    5  A    between atoms: C_12  and  C_18
REMARK    6  A    between atoms: C_13  and  C_19
REMARK    7  A    between atoms: C_21  and  C_23
REMARK    8  A    between atoms: C_31  and  C_34
REMARK                            x       y       z     vdW  Elec       q    Type
REMARK                         _______ _______ _______ _____ _____    ______ ____
ROOT
ATOM      7  N   UNL     1      -2.100   5.288  25.792  0.00  0.00    -0.296 NA
ATOM     11  C   UNL     1      -3.092   4.263  23.613  0.00  0.00    +0.002 C 
ATOM     12  C   UNL     1      -3.870   3.751  24.857  0.00  0.00    +0.055 C 
ATOM     13  C   UNL     1      -1.012   4.711  24.960  0.00  0.00    +0.095 C 
ATOM     14  C   UNL     1      -1.596   3.920  23.769  0.00  0.00    +0.026 C 
ATOM     15  C   UNL     1      -3.209   5.803  23.618  0.00  0.00    +0.019 C 
ATOM     16  C   UNL     1      -3.100   4.239  26.118  0.00  0.00    +0.094 C 
ATOM     17  C   UNL     1      -2.774   6.339  24.994  0.00  0.00    +0.085 C 
ENDROOT
BRANCH  12  18
ATOM      8  N   UNL     1      -5.367   1.803  25.492  0.00  0.00    -0.270 N 
ATOM      9  N   UNL     1      -5.483   0.464  25.458  0.00  0.00    -0.171 NA
ATOM     18  C   UNL     1      -4.216   2.271  24.930  0.00  0.00    +0.044 A 
ATOM     20  C   UNL     1      -3.531   1.161  24.496  0.00  0.00    +0.053 A 
ATOM     21  C   UNL     1      -4.359   0.079  24.848  0.00  0.00    +0.100 A 
ATOM     22  C   UNL     1      -6.421   2.586  26.093  0.00  0.00    +0.172 C 
BRANCH  21  23
ATOM      1  S   UNL     1      -3.015  -2.282  25.568  0.00  0.00    -0.095 S 
ATOM     23  C   UNL     1      -4.064  -1.343  24.592  0.00  0.00    +0.039 A 
ATOM     25  C   UNL     1      -4.591  -2.072  23.550  0.00  0.00    +0.018 A 
ATOM     26  C   UNL     1      -4.128  -3.420  23.551  0.00  0.00    +0.008 A 
ATOM     27  C   UNL     1      -3.265  -3.669  24.595  0.00  0.00    +0.046 A 
ENDBRANCH  21  23
ENDBRANCH  12  18
BRANCH  13  19
ATOM     19  C   UNL     1      -0.034   3.866  25.780  0.00  0.00    +0.252 C 
BRANCH  19   5
ATOM      5  O   UNL     1      -0.659   2.637  26.092  0.00  0.00    -0.449 OA
BRANCH   5  24
ATOM      6  O   UNL     1      -0.555   0.382  25.722  0.00  0.00    -0.226 OA
ATOM     10  N   UNL     1       0.784   1.890  24.533  0.00  0.00    -0.251 N 
ATOM     24  C   UNL     1      -0.169   1.515  25.460  0.00  0.00    +0.405 C 
ATOM     35  H   UNL     1       0.971   2.887  24.459  0.00  0.00    +0.158 HD
BRANCH  10  28
ATOM     28  C   UNL     1       1.534   1.059  23.670  0.00  0.00    +0.037 A 
ATOM     29  C   UNL     1       2.912   0.937  23.844  0.00  0.00    +0.035 A 
ATOM     30  C   UNL     1       0.896   0.361  22.645  0.00  0.00    +0.023 A 
ATOM     31  C   UNL     1       3.653   0.116  22.994  0.00  0.00    +0.057 A 
ATOM     32  C   UNL     1       1.637  -0.459  21.794  0.00  0.00    +0.002 A 
ATOM     33  C   UNL     1       3.015  -0.582  21.968  0.00  0.00    +0.012 A 
BRANCH  31  34
ATOM      2  F   UNL     1       5.474  -1.150  23.852  0.00  0.00    -0.166 F 
ATOM      3  F   UNL     1       5.824  -0.057  22.004  0.00  0.00    -0.166 F 
ATOM      4  F   UNL     1       5.683   1.015  23.885  0.00  0.00    -0.166 F 
ATOM     34  C   UNL     1       5.127  -0.015  23.178  0.00  0.00    +0.417 C 
ENDBRANCH  31  34
ENDBRANCH  10  28
ENDBRANCH   5  24
ENDBRANCH  19   5
ENDBRANCH  13  19
TORSDOF 7
ENDMDL
MODEL 2
REMARK VINA RESULT:       3.4      3.324      6.002
REMARK  Name = 40780078
REMARK  8 active torsions:
REMARK  status: ('A' for Active; 'I' for Inactive)
REMARK    1  A    between atoms: O_5  and  C_19
REMARK    2  A    between atoms: O_5  and  C_24
REMARK    3  A    between atoms: N_8  and  C_22
REMARK    4  A    between atoms: N_10  and  C_28
REMARK    5  A    between atoms: C_12  and  C_18
REMARK    6  A    between atoms: C_13  and  C_19
REMARK    7  A    between atoms: C_21  and  C_23
REMARK    8  A    between atoms: C_31  and  C_34
REMARK                            x       y       z     vdW  Elec       q    Type
REMARK                         _______ _______ _______ _____ _____    ______ ____
ROOT
ATOM      7  N   UNL     1      -4.465   3.415  24.042  0.00  0.00    -0.296 NA
ATOM     11  C   UNL     1      -2.617   5.099  24.768  0.00  0.00    +0.002 C 
ATOM     12  C   UNL     1      -1.986   3.731  24.388  0.00  0.00    +0.055 C 
ATOM     13  C   UNL     1      -4.832   4.045  25.337  0.00  0.00    +0.095 C 
ATOM     14  C   UNL     1      -3.660   4.888  25.885  0.00  0.00    +0.026 C 
ATOM     15  C   UNL     1      -3.379   5.599  23.523  0.00  0.00    +0.019 C 
ATOM     16  C   UNL     1      -3.154   2.729  24.165  0.00  0.00    +0.094 C 
ATOM     17  C   UNL     1      -4.330   4.493  23.034  0.00  0.00    +0.085 C 
ENDROOT
BRANCH  12  18
ATOM      8  N   UNL     1       0.028   2.263  24.866  0.00  0.00    -0.270 N 
ATOM      9  N   UNL     1       0.896   1.883  25.820  0.00  0.00    -0.171 NA
ATOM     18  C   UNL     1      -0.903   3.162  25.295  0.00  0.00    +0.044 A 
ATOM     20  C   UNL     1      -0.626   3.387  26.621  0.00  0.00    +0.053 A 
ATOM     21  C   UNL     1       0.491   2.573  26.889  0.00  0.00    +0.100 A 
ATOM     22  C   UNL     1       0.156   1.711  23.537  0.00  0.00    +0.172 C 
BRANCH  21  23
ATOM      1  S   UNL     1       2.871   2.613  28.383  0.00  0.00    -0.095 S 
ATOM     23  C   UNL     1       1.176   2.461  28.189  0.00  0.00    +0.039 A 
ATOM     25  C   UNL     1       0.539   2.222  29.387  0.00  0.00    +0.018 A 
ATOM     26  C   UNL     1       1.454   2.163  30.478  0.00  0.00    +0.008 A 
ATOM     27  C   UNL     1       2.755   2.359  30.072  0.00  0.00    +0.046 A 
ENDBRANCH  21  23
ENDBRANCH  12  18
BRANCH  13  19
ATOM     19  C   UNL     1      -5.329   3.025  26.363  0.00  0.00    +0.252 C 
BRANCH  19   5
ATOM      5  O   UNL     1      -6.358   2.258  25.769  0.00  0.00    -0.449 OA
BRANCH   5  24
ATOM      6  O   UNL     1      -6.602   0.749  24.067  0.00  0.00    -0.226 OA
ATOM     10  N   UNL     1      -4.791   0.656  25.547  0.00  0.00    -0.251 N 
ATOM     24  C   UNL     1      -5.966   1.164  25.029  0.00  0.00    +0.405 C 
ATOM     35  H   UNL     1      -4.411   1.141  26.357  0.00  0.00    +0.158 HD
BRANCH  10  28
ATOM     28  C   UNL     1      -4.049  -0.458  25.094  0.00  0.00    +0.037 A 
ATOM     29  C   UNL     1      -2.700  -0.578  25.424  0.00  0.00    +0.035 A 
ATOM     30  C   UNL     1      -4.667  -1.437  24.315  0.00  0.00    +0.023 A 
ATOM     31  C   UNL     1      -1.967  -1.677  24.976  0.00  0.00    +0.057 A 
ATOM     32  C   UNL     1      -3.934  -2.536  23.867  0.00  0.00    +0.002 A 
ATOM     33  C   UNL     1      -2.584  -2.657  24.197  0.00  0.00    +0.012 A 
BRANCH  31  34
ATOM      2  F   UNL     1      -0.220  -1.225  26.525  0.00  0.00    -0.166 F 
ATOM      3  F   UNL     1      -0.099  -3.101  25.432  0.00  0.00    -0.166 F 
ATOM      4  F   UNL     1       0.315  -1.229  24.417  0.00  0.00    -0.166 F 
ATOM     34  C   UNL     1      -0.524  -1.807  25.328  0.00  0.00    +0.417 C 
ENDBRANCH  31  34
ENDBRANCH  10  28
ENDBRANCH   5  24
ENDBRANCH  19   5
ENDBRANCH  13  19
TORSDOF 7
ENDMDL
MODEL 3
REMARK VINA RESULT:       3.6      2.780      5.284
REMARK  Name = 40780078
REMARK  8 active torsions:
REMARK  status: ('A' for Active; 'I' for Inactive)
REMARK    1  A    between atoms: O_5  and  C_19
REMARK    2  A    between atoms: O_5  and  C_24
REMARK    3  A    between atoms: N_8  and  C_22
REMARK    4  A    between atoms: N_10  and  C_28
REMARK    5  A    between atoms: C_12  and  C_18
REMARK    6  A    between atoms: C_13  and  C_19
REMARK    7  A    between atoms: C_21  and  C_23
REMARK    8  A    between atoms: C_31  and  C_34
REMARK                            x       y       z     vdW  Elec       q    Type
REMARK                         _______ _______ _______ _____ _____    ______ ____
ROOT
ATOM      7  N   UNL     1      -4.031   4.910  24.919  0.00  0.00    -0.296 NA
ATOM     11  C   UNL     1      -2.880   3.535  26.808  0.00  0.00    +0.002 C 
ATOM     12  C   UNL     1      -1.829   4.019  25.771  0.00  0.00    +0.055 C 
ATOM     13  C   UNL     1      -4.748   3.624  25.121  0.00  0.00    +0.095 C 
ATOM     14  C   UNL     1      -3.966   2.709  26.087  0.00  0.00    +0.026 C 
ATOM     15  C   UNL     1      -3.568   4.799  27.367  0.00  0.00    +0.019 C 
ATOM     16  C   UNL     1      -2.608   4.650  24.581  0.00  0.00    +0.094 C 
ATOM     17  C   UNL     1      -4.073   5.661  26.196  0.00  0.00    +0.085 C 
ENDROOT
BRANCH  12  18
ATOM      8  N   UNL     1       0.085   2.399  26.162  0.00  0.00    -0.270 N 
ATOM      9  N   UNL     1       0.946   1.565  25.553  0.00  0.00    -0.171 NA
ATOM     18  C   UNL     1      -0.769   3.029  25.306  0.00  0.00    +0.044 A 
ATOM     20  C   UNL     1      -0.446   2.577  24.050  0.00  0.00    +0.053 A 
ATOM     21  C   UNL     1       0.616   1.678  24.264  0.00  0.00    +0.100 A 
ATOM     22  C   UNL     1       0.141   2.543  27.598  0.00  0.00    +0.172 C 
BRANCH  21  23
ATOM      1  S   UNL     1       3.012   1.002  22.959  0.00  0.00    -0.095 S 
ATOM     23  C   UNL     1       1.320   0.919  23.214  0.00  0.00    +0.039 A 
ATOM     25  C   UNL     1       0.705   0.066  22.325  0.00  0.00    +0.018 A 
ATOM     26  C   UNL     1       1.634  -0.529  21.423  0.00  0.00    +0.008 A 
ATOM     27  C   UNL     1       2.924  -0.106  21.656  0.00  0.00    +0.046 A 
ENDBRANCH  21  23
ENDBRANCH  12  18
BRANCH  13  19
ATOM     19  C   UNL     1      -5.068   2.920  23.801  0.00  0.00    +0.252 C 
BRANCH  19   5
ATOM      5  O   UNL     1      -3.901   2.917  23.002  0.00  0.00    -0.449 OA
BRANCH   5  24
ATOM      6  O   UNL     1      -2.401   1.503  22.011  0.00  0.00    -0.226 OA
ATOM     10  N   UNL     1      -3.657   0.857  23.878  0.00  0.00    -0.251 N 
ATOM     24  C   UNL     1      -3.233   1.717  22.885  0.00  0.00    +0.405 C 
ATOM     35  H   UNL     1      -4.362   1.220  24.516  0.00  0.00    +0.158 HD
BRANCH  10  28
ATOM     28  C   UNL     1      -3.233  -0.469  24.122  0.00  0.00    +0.037 A 
ATOM     29  C   UNL     1      -1.962  -0.710  24.642  0.00  0.00    +0.035 A 
ATOM     30  C   UNL     1      -4.086  -1.536  23.841  0.00  0.00    +0.023 A 
ATOM     31  C   UNL     1      -1.543  -2.018  24.882  0.00  0.00    +0.057 A 
ATOM     32  C   UNL     1      -3.667  -2.844  24.080  0.00  0.00    +0.002 A 
ATOM     33  C   UNL     1      -2.396  -3.087  24.601  0.00  0.00    +0.012 A 
BRANCH  31  34
ATOM      2  F   UNL     1       0.813  -1.830  24.621  0.00  0.00    -0.166 F 
ATOM      3  F   UNL     1       0.037  -1.681  26.647  0.00  0.00    -0.166 F 
ATOM      4  F   UNL     1       0.079  -3.603  25.643  0.00  0.00    -0.166 F 
ATOM     34  C   UNL     1      -0.184  -2.278  25.438  0.00  0.00    +0.417 C 
ENDBRANCH  31  34
ENDBRANCH  10  28
ENDBRANCH   5  24
ENDBRANCH  19   5
ENDBRANCH  13  19
TORSDOF 7
ENDMDL
MODEL 4
REMARK VINA RESULT:       3.7      3.050      5.283
REMARK  Name = 40780078
REMARK  8 active torsions:
REMARK  status: ('A' for Active; 'I' for Inactive)
REMARK    1  A    between atoms: O_5  and  C_19
REMARK    2  A    between atoms: O_5  and  C_24
REMARK    3  A    between atoms: N_8  and  C_22
REMARK    4  A    between atoms: N_10  and  C_28
REMARK    5  A    between atoms: C_12  and  C_18
REMARK    6  A    between atoms: C_13  and  C_19
REMARK    7  A    between atoms: C_21  and  C_23
REMARK    8  A    between atoms: C_31  and  C_34
REMARK                            x       y       z     vdW  Elec       q    Type
REMARK                         _______ _______ _______ _____ _____    ______ ____
ROOT
ATOM      7  N   UNL     1      -4.543   2.398  23.756  0.00  0.00    -0.296 NA
ATOM     11  C   UNL     1      -3.765   4.210  25.457  0.00  0.00    +0.002 C 
ATOM     12  C   UNL     1      -2.546   3.625  24.692  0.00  0.00    +0.055 C 
ATOM     13  C   UNL     1      -5.135   2.128  25.093  0.00  0.00    +0.095 C 
ATOM     14  C   UNL     1      -4.526   3.065  26.158  0.00  0.00    +0.026 C 
ATOM     15  C   UNL     1      -4.715   4.803  24.395  0.00  0.00    +0.019 C 
ATOM     16  C   UNL     1      -3.062   2.421  23.852  0.00  0.00    +0.094 C 
ATOM     17  C   UNL     1      -4.999   3.739  23.319  0.00  0.00    +0.085 C 
ENDROOT
BRANCH  12  18
ATOM      8  N   UNL     1      -0.093   3.013  24.903  0.00  0.00    -0.270 N 
ATOM      9  N   UNL     1       0.886   2.729  25.780  0.00  0.00    -0.171 NA
ATOM     18  C   UNL     1      -1.296   3.279  25.488  0.00  0.00    +0.044 A 
ATOM     20  C   UNL     1      -1.090   3.162  26.841  0.00  0.00    +0.053 A 
ATOM     21  C   UNL     1       0.270   2.822  26.961  0.00  0.00    +0.100 A 
ATOM     22  C   UNL     1       0.206   3.011  23.490  0.00  0.00    +0.172 C 
BRANCH  21  23
ATOM      1  S   UNL     1       2.687   2.682  28.389  0.00  0.00    -0.095 S 
ATOM     23  C   UNL     1       0.984   2.585  28.229  0.00  0.00    +0.039 A 
ATOM     25  C   UNL     1       0.372   2.261  29.419  0.00  0.00    +0.018 A 
ATOM     26  C   UNL     1       1.312   2.090  30.476  0.00  0.00    +0.008 A 
ATOM     27  C   UNL     1       2.607   2.290  30.054  0.00  0.00    +0.046 A 
ENDBRANCH  21  23
ENDBRANCH  12  18
BRANCH  13  19
ATOM     19  C   UNL     1      -5.020   0.656  25.495  0.00  0.00    +0.252 C 
BRANCH  19   5
ATOM      5  O   UNL     1      -4.981  -0.127  24.318  0.00  0.00    -0.449 OA
BRANCH   5  24
ATOM      6  O   UNL     1      -4.033  -2.140  23.789  0.00  0.00    -0.226 OA
ATOM     10  N   UNL     1      -2.751  -0.334  24.548  0.00  0.00    -0.251 N 
ATOM     24  C   UNL     1      -3.912  -0.985  24.181  0.00  0.00    +0.405 C 
ATOM     35  H   UNL     1      -2.854   0.632  24.849  0.00  0.00    +0.158 HD
BRANCH  10  28
ATOM     28  C   UNL     1      -1.432  -0.844  24.558  0.00  0.00    +0.037 A 
ATOM     29  C   UNL     1      -0.459  -0.278  23.737  0.00  0.00    +0.035 A 
ATOM     30  C   UNL     1      -1.106  -1.915  25.390  0.00  0.00    +0.023 A 
ATOM     31  C   UNL     1       0.842  -0.780  23.747  0.00  0.00    +0.057 A 
ATOM     32  C   UNL     1       0.194  -2.419  25.400  0.00  0.00    +0.002 A 
ATOM     33  C   UNL     1       1.169  -1.852  24.579  0.00  0.00    +0.012 A 
BRANCH  31  34
ATOM      2  F   UNL     1       2.136   1.131  23.174  0.00  0.00    -0.166 F 
ATOM      3  F   UNL     1       3.093  -0.808  22.937  0.00  0.00    -0.166 F 
ATOM      4  F   UNL     1       1.553  -0.184  21.542  0.00  0.00    -0.166 F 
ATOM     34  C   UNL     1       1.884  -0.175  22.868  0.00  0.00    +0.417 C 
ENDBRANCH  31  34
ENDBRANCH  10  28
ENDBRANCH   5  24
ENDBRANCH  19   5
ENDBRANCH  13  19
TORSDOF 7
ENDMDL
MODEL 5
REMARK VINA RESULT:       3.8      1.904      5.112
REMARK  Name = 40780078
REMARK  8 active torsions:
REMARK  status: ('A' for Active; 'I' for Inactive)
REMARK    1  A    between atoms: O_5  and  C_19
REMARK    2  A    between atoms: O_5  and  C_24
REMARK    3  A    between atoms: N_8  and  C_22
REMARK    4  A    between atoms: N_10  and  C_28
REMARK    5  A    between atoms: C_12  and  C_18
REMARK    6  A    between atoms: C_13  and  C_19
REMARK    7  A    between atoms: C_21  and  C_23
REMARK    8  A    between atoms: C_31  and  C_34
REMARK                            x       y       z     vdW  Elec       q    Type
REMARK                         _______ _______ _______ _____ _____    ______ ____
ROOT
ATOM      7  N   UNL     1      -2.717  -2.431  23.691  0.00  0.00    -0.296 NA
ATOM     11  C   UNL     1      -4.713  -1.247  24.871  0.00  0.00    +0.002 C 
ATOM     12  C   UNL     1      -4.086  -0.314  23.798  0.00  0.00    +0.055 C 
ATOM     13  C   UNL     1      -2.569  -2.534  25.166  0.00  0.00    +0.095 C 
ATOM     14  C   UNL     1      -3.626  -1.666  25.882  0.00  0.00    +0.026 C 
ATOM     15  C   UNL     1      -5.169  -2.526  24.136  0.00  0.00    +0.019 C 
ATOM     16  C   UNL     1      -2.789  -1.004  23.287  0.00  0.00    +0.094 C 
ATOM     17  C   UNL     1      -3.993  -3.084  23.314  0.00  0.00    +0.085 C 
ENDROOT
BRANCH  12  18
ATOM      8  N   UNL     1      -4.848   1.962  24.622  0.00  0.00    -0.270 N 
ATOM      9  N   UNL     1      -4.442   3.217  24.883  0.00  0.00    -0.171 NA
ATOM     18  C   UNL     1      -3.857   1.147  24.161  0.00  0.00    +0.044 A 
ATOM     20  C   UNL     1      -2.723   1.921  24.118  0.00  0.00    +0.053 A 
ATOM     21  C   UNL     1      -3.143   3.184  24.574  0.00  0.00    +0.100 A 
ATOM     22  C   UNL     1      -6.232   1.609  24.843  0.00  0.00    +0.172 C 
BRANCH  21  23
ATOM      1  S   UNL     1      -0.572   4.316  24.653  0.00  0.00    -0.095 S 
ATOM     23  C   UNL     1      -2.283   4.373  24.714  0.00  0.00    +0.039 A 
ATOM     25  C   UNL     1      -2.750   5.654  24.908  0.00  0.00    +0.018 A 
ATOM     26  C   UNL     1      -1.690   6.602  25.008  0.00  0.00    +0.008 A 
ATOM     27  C   UNL     1      -0.454   6.008  24.887  0.00  0.00    +0.046 A 
ENDBRANCH  21  23
ENDBRANCH  12  18
BRANCH  13  19
ATOM     19  C   UNL     1      -1.150  -2.208  25.636  0.00  0.00    +0.252 C 
BRANCH  19   5
ATOM      5  O   UNL     1      -1.089  -0.830  25.949  0.00  0.00    -0.449 OA
BRANCH   5  24
ATOM      6  O   UNL     1      -0.079   1.140  25.377  0.00  0.00    -0.226 OA
ATOM     10  N   UNL     1       0.546  -0.894  24.403  0.00  0.00    -0.251 N 
ATOM     24  C   UNL     1      -0.181  -0.073  25.242  0.00  0.00    +0.405 C 
ATOM     35  H   UNL     1       0.314  -1.885  24.432  0.00  0.00    +0.158 HD
BRANCH  10  28
ATOM     28  C   UNL     1       1.575  -0.530  23.505  0.00  0.00    +0.037 A 
ATOM     29  C   UNL     1       2.892  -0.436  23.955  0.00  0.00    +0.035 A 
ATOM     30  C   UNL     1       1.273  -0.265  22.170  0.00  0.00    +0.023 A 
ATOM     31  C   UNL     1       3.907  -0.077  23.070  0.00  0.00    +0.057 A 
ATOM     32  C   UNL     1       2.289   0.094  21.284  0.00  0.00    +0.002 A 
ATOM     33  C   UNL     1       3.606   0.189  21.733  0.00  0.00    +0.012 A 
BRANCH  31  34
ATOM      2  F   UNL     1       5.654   1.294  23.921  0.00  0.00    -0.166 F 
ATOM      3  F   UNL     1       5.582  -0.758  24.636  0.00  0.00    -0.166 F 
ATOM      4  F   UNL     1       6.240  -0.341  22.612  0.00  0.00    -0.166 F 
ATOM     34  C   UNL     1       5.316   0.025  23.549  0.00  0.00    +0.417 C 
ENDBRANCH  31  34
ENDBRANCH  10  28
ENDBRANCH   5  24
ENDBRANCH  19   5
ENDBRANCH  13  19
TORSDOF 7
ENDMDL
MODEL 6
REMARK VINA RESULT:       3.9      2.832      5.609
REMARK  Name = 40780078
REMARK  8 active torsions:
REMARK  status: ('A' for Active; 'I' for Inactive)
REMARK    1  A    between atoms: O_5  and  C_19
REMARK    2  A    between atoms: O_5  and  C_24
REMARK    3  A    between atoms: N_8  and  C_22
REMARK    4  A    between atoms: N_10  and  C_28
REMARK    5  A    between atoms: C_12  and  C_18
REMARK    6  A    between atoms: C_13  and  C_19
REMARK    7  A    between atoms: C_21  and  C_23
REMARK    8  A    between atoms: C_31  and  C_34
REMARK                            x       y       z     vdW  Elec       q    Type
REMARK                         _______ _______ _______ _____ _____    ______ ____
ROOT
ATOM      7  N   UNL     1      -3.998   4.915  25.095  0.00  0.00    -0.296 NA
ATOM     11  C   UNL     1      -2.408   3.370  26.462  0.00  0.00    +0.002 C 
ATOM     12  C   UNL     1      -1.686   3.908  25.195  0.00  0.00    +0.055 C 
ATOM     13  C   UNL     1      -4.682   3.635  25.413  0.00  0.00    +0.095 C 
ATOM     14  C   UNL     1      -3.693   2.628  26.040  0.00  0.00    +0.026 C 
ATOM     15  C   UNL     1      -2.842   4.603  27.283  0.00  0.00    +0.019 C 
ATOM     16  C   UNL     1      -2.750   4.648  24.335  0.00  0.00    +0.094 C 
ATOM     17  C   UNL     1      -3.629   5.565  26.375  0.00  0.00    +0.085 C 
ENDROOT
BRANCH  12  18
ATOM      8  N   UNL     1      -1.373   2.199  23.346  0.00  0.00    -0.270 N 
ATOM      9  N   UNL     1      -0.475   1.397  22.746  0.00  0.00    -0.171 NA
ATOM     18  C   UNL     1      -0.856   2.933  24.372  0.00  0.00    +0.044 A 
ATOM     20  C   UNL     1       0.472   2.588  24.450  0.00  0.00    +0.053 A 
ATOM     21  C   UNL     1       0.648   1.639  23.425  0.00  0.00    +0.100 A 
ATOM     22  C   UNL     1      -2.737   2.210  22.870  0.00  0.00    +0.172 C 
BRANCH  21  23
ATOM      1  S   UNL     1       1.999  -0.539  22.273  0.00  0.00    -0.095 S 
ATOM     23  C   UNL     1       1.915   0.960  23.096  0.00  0.00    +0.039 A 
ATOM     25  C   UNL     1       3.164   1.448  23.410  0.00  0.00    +0.018 A 
ATOM     26  C   UNL     1       4.205   0.580  22.969  0.00  0.00    +0.008 A 
ATOM     27  C   UNL     1       3.710  -0.538  22.335  0.00  0.00    +0.046 A 
ENDBRANCH  21  23
ENDBRANCH  12  18
BRANCH  13  19
ATOM     19  C   UNL     1      -5.407   3.043  24.203  0.00  0.00    +0.252 C 
BRANCH  19   5
ATOM      5  O   UNL     1      -6.254   2.004  24.652  0.00  0.00    -0.449 OA
BRANCH   5  24
ATOM      6  O   UNL     1      -5.832   0.490  26.314  0.00  0.00    -0.226 OA
ATOM     10  N   UNL     1      -4.816   0.328  24.211  0.00  0.00    -0.251 N 
ATOM     24  C   UNL     1      -5.640   0.884  25.170  0.00  0.00    +0.405 C 
ATOM     35  H   UNL     1      -4.789   0.804  23.312  0.00  0.00    +0.158 HD
BRANCH  10  28
ATOM     28  C   UNL     1      -4.004  -0.824  24.323  0.00  0.00    +0.037 A 
ATOM     29  C   UNL     1      -2.717  -0.722  24.848  0.00  0.00    +0.035 A 
ATOM     30  C   UNL     1      -4.491  -2.063  23.906  0.00  0.00    +0.023 A 
ATOM     31  C   UNL     1      -1.916  -1.858  24.959  0.00  0.00    +0.057 A 
ATOM     32  C   UNL     1      -3.690  -3.199  24.015  0.00  0.00    +0.002 A 
ATOM     33  C   UNL     1      -2.402  -3.097  24.542  0.00  0.00    +0.012 A 
BRANCH  31  34
ATOM      2  F   UNL     1      -0.501  -1.043  26.688  0.00  0.00    -0.166 F 
ATOM      3  F   UNL     1       0.033  -2.957  25.804  0.00  0.00    -0.166 F 
ATOM      4  F   UNL     1       0.345  -1.125  24.686  0.00  0.00    -0.166 F 
ATOM     34  C   UNL     1      -0.539  -1.750  25.521  0.00  0.00    +0.417 C 
ENDBRANCH  31  34
ENDBRANCH  10  28
ENDBRANCH   5  24
ENDBRANCH  19   5
ENDBRANCH  13  19
TORSDOF 7
ENDMDL
MODEL 7
REMARK VINA RESULT:       4.5      2.407      5.138
REMARK  Name = 40780078
REMARK  8 active torsions:
REMARK  status: ('A' for Active; 'I' for Inactive)
REMARK    1  A    between atoms: O_5  and  C_19
REMARK    2  A    between atoms: O_5  and  C_24
REMARK    3  A    between atoms: N_8  and  C_22
REMARK    4  A    between atoms: N_10  and  C_28
REMARK    5  A    between atoms: C_12  and  C_18
REMARK    6  A    between atoms: C_13  and  C_19
REMARK    7  A    between atoms: C_21  and  C_23
REMARK    8  A    between atoms: C_31  and  C_34
REMARK                            x       y       z     vdW  Elec       q    Type
REMARK                         _______ _______ _______ _____ _____    ______ ____
ROOT
ATOM      7  N   UNL     1      -3.545  -0.227  23.481  0.00  0.00    -0.296 NA
ATOM     11  C   UNL     1      -3.887   1.117  25.686  0.00  0.00    +0.002 C 
ATOM     12  C   UNL     1      -2.776   1.770  24.818  0.00  0.00    +0.055 C 
ATOM     13  C   UNL     1      -3.521  -1.148  24.648  0.00  0.00    +0.095 C 
ATOM     14  C   UNL     1      -3.514  -0.353  25.971  0.00  0.00    +0.026 C 
ATOM     15  C   UNL     1      -5.170   1.102  24.828  0.00  0.00    +0.019 C 
ATOM     16  C   UNL     1      -2.491   0.807  23.629  0.00  0.00    +0.094 C 
ATOM     17  C   UNL     1      -4.862   0.453  23.467  0.00  0.00    +0.085 C 
ENDROOT
BRANCH  12  18
ATOM      8  N   UNL     1      -0.613   3.092  24.938  0.00  0.00    -0.270 N 
ATOM      9  N   UNL     1       0.452   3.368  25.711  0.00  0.00    -0.171 NA
ATOM     18  C   UNL     1      -1.498   2.227  25.509  0.00  0.00    +0.044 A 
ATOM     20  C   UNL     1      -0.978   1.915  26.741  0.00  0.00    +0.053 A 
ATOM     21  C   UNL     1       0.222   2.647  26.811  0.00  0.00    +0.100 A 
ATOM     22  C   UNL     1      -0.716   3.708  23.635  0.00  0.00    +0.172 C 
BRANCH  21  23
ATOM      1  S   UNL     1       0.744   2.094  29.516  0.00  0.00    -0.095 S 
ATOM     23  C   UNL     1       1.158   2.651  27.950  0.00  0.00    +0.039 A 
ATOM     25  C   UNL     1       2.459   3.099  27.888  0.00  0.00    +0.018 A 
ATOM     26  C   UNL     1       3.125   2.983  29.143  0.00  0.00    +0.008 A 
ATOM     27  C   UNL     1       2.308   2.452  30.115  0.00  0.00    +0.046 A 
ENDBRANCH  21  23
ENDBRANCH  12  18
BRANCH  13  19
ATOM     19  C   UNL     1      -2.365  -2.148  24.578  0.00  0.00    +0.252 C 
BRANCH  19   5
ATOM      5  O   UNL     1      -1.347  -1.717  25.460  0.00  0.00    -0.449 OA
BRANCH   5  24
ATOM      6  O   UNL     1       0.782  -2.551  25.408  0.00  0.00    -0.226 OA
ATOM     10  N   UNL     1       0.106  -0.806  24.001  0.00  0.00    -0.251 N 
ATOM     24  C   UNL     1      -0.055  -1.762  24.985  0.00  0.00    +0.405 C 
ATOM     35  H   UNL     1      -0.713  -0.241  23.787  0.00  0.00    +0.158 HD
BRANCH  10  28
ATOM     28  C   UNL     1       1.269  -0.513  23.254  0.00  0.00    +0.037 A 
ATOM     29  C   UNL     1       2.516  -0.507  23.877  0.00  0.00    +0.035 A 
ATOM     30  C   UNL     1       1.169  -0.228  21.892  0.00  0.00    +0.023 A 
ATOM     31  C   UNL     1       3.664  -0.218  23.140  0.00  0.00    +0.057 A 
ATOM     32  C   UNL     1       2.316   0.062  21.155  0.00  0.00    +0.002 A 
ATOM     33  C   UNL     1       3.564   0.067  21.778  0.00  0.00    +0.012 A 
BRANCH  31  34
ATOM      2  F   UNL     1       5.189  -1.295  24.613  0.00  0.00    -0.166 F 
ATOM      3  F   UNL     1       6.047  -0.217  22.931  0.00  0.00    -0.166 F 
ATOM      4  F   UNL     1       5.206   0.880  24.602  0.00  0.00    -0.166 F 
ATOM     34  C   UNL     1       4.998  -0.211  23.806  0.00  0.00    +0.417 C 
ENDBRANCH  31  34
ENDBRANCH  10  28
ENDBRANCH   5  24
ENDBRANCH  19   5
ENDBRANCH  13  19
TORSDOF 7
ENDMDL
MODEL 8
REMARK VINA RESULT:       5.2      3.219      7.169
REMARK  Name = 40780078
REMARK  8 active torsions:
REMARK  status: ('A' for Active; 'I' for Inactive)
REMARK    1  A    between atoms: O_5  and  C_19
REMARK    2  A    between atoms: O_5  and  C_24
REMARK    3  A    between atoms: N_8  and  C_22
REMARK    4  A    between atoms: N_10  and  C_28
REMARK    5  A    between atoms: C_12  and  C_18
REMARK    6  A    between atoms: C_13  and  C_19
REMARK    7  A    between atoms: C_21  and  C_23
REMARK    8  A    between atoms: C_31  and  C_34
REMARK                            x       y       z     vdW  Elec       q    Type
REMARK                         _______ _______ _______ _____ _____    ______ ____
ROOT
ATOM      7  N   UNL     1      -3.771  -1.306  25.758  0.00  0.00    -0.296 NA
ATOM     11  C   UNL     1      -2.008  -2.914  24.715  0.00  0.00    +0.002 C 
ATOM     12  C   UNL     1      -1.310  -1.670  25.331  0.00  0.00    +0.055 C 
ATOM     13  C   UNL     1      -4.171  -1.670  24.374  0.00  0.00    +0.095 C 
ATOM     14  C   UNL     1      -3.043  -2.453  23.668  0.00  0.00    +0.026 C 
ATOM     15  C   UNL     1      -2.790  -3.597  25.858  0.00  0.00    +0.019 C 
ATOM     16  C   UNL     1      -2.428  -0.671  25.747  0.00  0.00    +0.094 C 
ATOM     17  C   UNL     1      -3.685  -2.555  26.552  0.00  0.00    +0.085 C 
ENDROOT
BRANCH  12  18
ATOM      8  N   UNL     1      -0.445  -0.055  23.575  0.00  0.00    -0.270 N 
ATOM      9  N   UNL     1       0.667   0.416  22.984  0.00  0.00    -0.171 NA
ATOM     18  C   UNL     1      -0.204  -0.996  24.532  0.00  0.00    +0.044 A 
ATOM     20  C   UNL     1       1.161  -1.153  24.569  0.00  0.00    +0.053 A 
ATOM     21  C   UNL     1       1.643  -0.258  23.596  0.00  0.00    +0.100 A 
ATOM     22  C   UNL     1      -1.732   0.456  23.164  0.00  0.00    +0.172 C 
BRANCH  21  23
ATOM      1  S   UNL     1       4.318  -1.106  23.741  0.00  0.00    -0.095 S 
ATOM     23  C   UNL     1       3.062  -0.050  23.252  0.00  0.00    +0.039 A 
ATOM     25  C   UNL     1       3.536   1.007  22.507  0.00  0.00    +0.018 A 
ATOM     26  C   UNL     1       4.950   0.949  22.335  0.00  0.00    +0.008 A 
ATOM     27  C   UNL     1       5.501  -0.150  22.955  0.00  0.00    +0.046 A 
ENDBRANCH  21  23
ENDBRANCH  12  18
BRANCH  13  19
ATOM     19  C   UNL     1      -4.621  -0.457  23.558  0.00  0.00    +0.252 C 
BRANCH  19   5
ATOM      5  O   UNL     1      -5.754   0.110  24.186  0.00  0.00    -0.449 OA
BRANCH   5  24
ATOM      6  O   UNL     1      -6.488   1.937  25.348  0.00  0.00    -0.226 OA
ATOM     10  N   UNL     1      -4.273   1.750  24.617  0.00  0.00    -0.251 N 
ATOM     24  C   UNL     1      -5.582   1.341  24.779  0.00  0.00    +0.405 C 
ATOM     35  H   UNL     1      -3.663   1.112  24.110  0.00  0.00    +0.158 HD
BRANCH  10  28
ATOM     28  C   UNL     1      -3.672   2.947  25.068  0.00  0.00    +0.037 A 
ATOM     29  C   UNL     1      -2.356   3.244  24.714  0.00  0.00    +0.035 A 
ATOM     30  C   UNL     1      -4.396   3.832  25.867  0.00  0.00    +0.023 A 
ATOM     31  C   UNL     1      -1.764   4.425  25.158  0.00  0.00    +0.057 A 
ATOM     32  C   UNL     1      -3.803   5.013  26.312  0.00  0.00    +0.002 A 
ATOM     33  C   UNL     1      -2.487   5.310  25.958  0.00  0.00    +0.012 A 
BRANCH  31  34
ATOM      2  F   UNL     1       0.557   4.094  25.560  0.00  0.00    -0.166 F 
ATOM      3  F   UNL     1      -0.045   4.407  23.494  0.00  0.00    -0.166 F 
ATOM      4  F   UNL     1      -0.049   6.071  24.886  0.00  0.00    -0.166 F 
ATOM     34  C   UNL     1      -0.356   4.743  24.781  0.00  0.00    +0.417 C 
ENDBRANCH  31  34
ENDBRANCH  10  28
ENDBRANCH   5  24
ENDBRANCH  19   5
ENDBRANCH  13  19
TORSDOF 7
ENDMDL
MODEL 9
REMARK VINA RESULT:       6.2      3.724      5.973
REMARK  Name = 40780078
REMARK  8 active torsions:
REMARK  status: ('A' for Active; 'I' for Inactive)
REMARK    1  A    between atoms: O_5  and  C_19
REMARK    2  A    between atoms: O_5  and  C_24
REMARK    3  A    between atoms: N_8  and  C_22
REMARK    4  A    between atoms: N_10  and  C_28
REMARK    5  A    between atoms: C_12  and  C_18
REMARK    6  A    between atoms: C_13  and  C_19
REMARK    7  A    between atoms: C_21  and  C_23
REMARK    8  A    between atoms: C_31  and  C_34
REMARK                            x       y       z     vdW  Elec       q    Type
REMARK                         _______ _______ _______ _____ _____    ______ ____
ROOT
ATOM      7  N   UNL     1      -3.787   5.061  24.806  0.00  0.00    -0.296 NA
ATOM     11  C   UNL     1      -2.797   3.563  26.692  0.00  0.00    +0.002 C 
ATOM     12  C   UNL     1      -1.666   4.085  25.763  0.00  0.00    +0.055 C 
ATOM     13  C   UNL     1      -4.535   3.779  24.882  0.00  0.00    +0.095 C 
ATOM     14  C   UNL     1      -3.838   2.797  25.849  0.00  0.00    +0.026 C 
ATOM     15  C   UNL     1      -3.506   4.805  27.271  0.00  0.00    +0.019 C 
ATOM     16  C   UNL     1      -2.348   4.795  24.558  0.00  0.00    +0.094 C 
ATOM     17  C   UNL     1      -3.912   5.740  26.118  0.00  0.00    +0.085 C 
ENDROOT
BRANCH  12  18
ATOM      8  N   UNL     1       0.256   2.484  26.193  0.00  0.00    -0.270 N 
ATOM      9  N   UNL     1       1.136   1.657  25.602  0.00  0.00    -0.171 NA
ATOM     18  C   UNL     1      -0.589   3.104  25.320  0.00  0.00    +0.044 A 
ATOM     20  C   UNL     1      -0.238   2.651  24.071  0.00  0.00    +0.053 A 
ATOM     21  C   UNL     1       0.828   1.763  24.307  0.00  0.00    +0.100 A 
ATOM     22  C   UNL     1       0.285   2.634  27.629  0.00  0.00    +0.172 C 
BRANCH  21  23
ATOM      1  S   UNL     1       3.225   1.220  22.944  0.00  0.00    -0.095 S 
ATOM     23  C   UNL     1       1.558   1.008  23.272  0.00  0.00    +0.039 A 
ATOM     25  C   UNL     1       0.988   0.055  22.456  0.00  0.00    +0.018 A 
ATOM     26  C   UNL     1       1.933  -0.509  21.551  0.00  0.00    +0.008 A 
ATOM     27  C   UNL     1       3.188   0.035  21.708  0.00  0.00    +0.046 A 
ENDBRANCH  21  23
ENDBRANCH  12  18
BRANCH  13  19
ATOM     19  C   UNL     1      -4.767   3.155  23.505  0.00  0.00    +0.252 C 
BRANCH  19   5
ATOM      5  O   UNL     1      -3.531   3.112  22.820  0.00  0.00    -0.449 OA
BRANCH   5  24
ATOM      6  O   UNL     1      -2.251   1.527  21.779  0.00  0.00    -0.226 OA
ATOM     10  N   UNL     1      -3.128   1.192  23.924  0.00  0.00    -0.251 N 
ATOM     24  C   UNL     1      -2.901   1.889  22.754  0.00  0.00    +0.405 C 
ATOM     35  H   UNL     1      -3.698   1.663  24.623  0.00  0.00    +0.158 HD
BRANCH  10  28
ATOM     28  C   UNL     1      -2.668  -0.098  24.272  0.00  0.00    +0.037 A 
ATOM     29  C   UNL     1      -3.429  -1.221  23.950  0.00  0.00    +0.035 A 
ATOM     30  C   UNL     1      -1.452  -0.248  24.940  0.00  0.00    +0.023 A 
ATOM     31  C   UNL     1      -2.975  -2.494  24.294  0.00  0.00    +0.057 A 
ATOM     32  C   UNL     1      -0.999  -1.521  25.284  0.00  0.00    +0.002 A 
ATOM     33  C   UNL     1      -1.760  -2.645  24.962  0.00  0.00    +0.012 A 
BRANCH  31  34
ATOM      2  F   UNL     1      -4.140  -4.425  25.049  0.00  0.00    -0.166 F 
ATOM      3  F   UNL     1      -4.962  -3.400  23.316  0.00  0.00    -0.166 F 
ATOM      4  F   UNL     1      -3.147  -4.571  23.119  0.00  0.00    -0.166 F 
ATOM     34  C   UNL     1      -3.789  -3.696  23.950  0.00  0.00    +0.417 C 
ENDBRANCH  31  34
ENDBRANCH  10  28
ENDBRANCH   5  24
ENDBRANCH  19   5
ENDBRANCH  13  19
TORSDOF 7
ENDMDL
