MODEL 1
REMARK VINA RESULT:       4.7      0.000      0.000
REMARK  Name = 11912880
REMARK  3 active torsions:
REMARK  status: ('A' for Active; 'I' for Inactive)
REMARK    1  A    between atoms: N_6  and  C_13
REMARK    2  A    between atoms: N_7  and  C_14
REMARK    3  A    between atoms: C_23  and  C_26
REMARK                            x       y       z     vdW  Elec       q    Type
REMARK                         _______ _______ _______ _____ _____    ______ ____
ROOT
ATOM      2  O   UNL     1      -0.945   3.197  23.053  0.00  0.00    -0.370 OA
ATOM      3  O   UNL     1      -0.508   4.556  25.828  0.00  0.00    -0.370 OA
ATOM     11  C   UNL     1      -0.944   3.245  25.432  0.00  0.00    +0.171 C 
ATOM     12  C   UNL     1      -1.799   3.410  24.190  0.00  0.00    +0.171 C 
ATOM     13  C   UNL     1       0.232   2.420  24.961  0.00  0.00    +0.131 C 
ATOM     14  C   UNL     1      -2.252   4.849  24.243  0.00  0.00    +0.130 C 
ATOM     15  C   UNL     1       0.369   2.846  23.510  0.00  0.00    +0.185 C 
ATOM     16  C   UNL     1      -1.105   5.534  24.964  0.00  0.00    +0.185 C 
ENDROOT
BRANCH  13   6
ATOM      4  O   UNL     1      -1.923   1.271  26.359  0.00  0.00    -0.253 OA
ATOM      5  O   UNL     1      -2.054  -3.576  25.461  0.00  0.00    -0.377 OA
ATOM      6  N   UNL     1      -0.045   1.005  25.068  0.00  0.00    -0.292 N 
ATOM      8  N   UNL     1      -1.268  -0.882  25.799  0.00  0.00    -0.281 N 
ATOM     17  C   UNL     1      -1.134   0.517  25.780  0.00  0.00    +0.303 C 
ATOM     19  C   UNL     1      -2.283  -1.490  26.661  0.00  0.00    +0.137 C 
ATOM     20  C   UNL     1      -0.376  -1.846  25.138  0.00  0.00    +0.137 C 
ATOM     21  C   UNL     1      -3.003  -2.621  25.944  0.00  0.00    +0.179 C 
ATOM     22  C   UNL     1      -1.177  -2.979  24.504  0.00  0.00    +0.179 C 
ATOM     30  H   UNL     1       0.680   0.377  24.748  0.00  0.00    +0.151 HD
ENDBRANCH  13   6
BRANCH  14   7
ATOM      7  N   UNL     1      -3.468   4.957  25.020  0.00  0.00    -0.306 N 
ATOM      9  N   UNL     1      -4.032   2.708  24.653  0.00  0.00    -0.214 NA
ATOM     10  N   UNL     1      -5.450   4.141  25.975  0.00  0.00    -0.223 NA
ATOM     18  C   UNL     1      -4.343   3.904  25.222  0.00  0.00    +0.216 A 
ATOM     23  C   UNL     1      -4.907   1.704  24.871  0.00  0.00    +0.083 A 
ATOM     24  C   UNL     1      -6.281   3.093  26.152  0.00  0.00    +0.116 A 
ATOM     25  C   UNL     1      -6.058   1.840  25.619  0.00  0.00    +0.049 A 
ATOM     31  H   UNL     1      -3.683   5.828  25.491  0.00  0.00    +0.149 HD
BRANCH  23  26
ATOM      1  S   UNL     1      -3.269   0.417  23.120  0.00  0.00    -0.095 S 
ATOM     26  C   UNL     1      -4.553   0.453  24.256  0.00  0.00    +0.038 A 
ATOM     27  C   UNL     1      -5.106  -0.798  24.441  0.00  0.00    +0.017 A 
ATOM     28  C   UNL     1      -4.470  -1.792  23.643  0.00  0.00    +0.008 A 
ATOM     29  C   UNL     1      -3.453  -1.267  22.876  0.00  0.00    +0.046 A 
ENDBRANCH  23  26
ENDBRANCH  14   7
TORSDOF 3
ENDMDL
MODEL 2
REMARK VINA RESULT:       4.8      2.456      5.419
REMARK  Name = 11912880
REMARK  3 active torsions:
REMARK  status: ('A' for Active; 'I' for Inactive)
REMARK    1  A    between atoms: N_6  and  C_13
REMARK    2  A    between atoms: N_7  and  C_14
REMARK    3  A    between atoms: C_23  and  C_26
REMARK                            x       y       z     vdW  Elec       q    Type
REMARK                         _______ _______ _______ _____ _____    ______ ____
ROOT
ATOM      2  O   UNL     1      -1.581  -1.414  26.032  0.00  0.00    -0.370 OA
ATOM      3  O   UNL     1      -3.645  -2.771  24.126  0.00  0.00    -0.370 OA
ATOM     11  C   UNL     1      -2.602  -1.805  23.919  0.00  0.00    +0.171 C 
ATOM     12  C   UNL     1      -2.579  -0.899  25.134  0.00  0.00    +0.171 C 
ATOM     13  C   UNL     1      -1.249  -2.480  23.938  0.00  0.00    +0.131 C 
ATOM     14  C   UNL     1      -3.955  -1.053  25.735  0.00  0.00    +0.130 C 
ATOM     15  C   UNL     1      -0.938  -2.543  25.423  0.00  0.00    +0.185 C 
ATOM     16  C   UNL     1      -4.329  -2.473  25.351  0.00  0.00    +0.185 C 
ENDROOT
BRANCH  13   6
ATOM      4  O   UNL     1       0.125  -0.250  24.968  0.00  0.00    -0.253 OA
ATOM      5  O   UNL     1       3.603   1.147  21.764  0.00  0.00    -0.377 OA
ATOM      6  N   UNL     1      -0.263  -1.697  23.229  0.00  0.00    -0.292 N 
ATOM      8  N   UNL     1       1.301   0.061  22.994  0.00  0.00    -0.281 N 
ATOM     17  C   UNL     1       0.372  -0.605  23.811  0.00  0.00    +0.303 C 
ATOM     19  C   UNL     1       1.890   1.317  23.461  0.00  0.00    +0.137 C 
ATOM     20  C   UNL     1       1.652  -0.296  21.612  0.00  0.00    +0.137 C 
ATOM     21  C   UNL     1       3.380   1.368  23.159  0.00  0.00    +0.179 C 
ATOM     22  C   UNL     1       3.153  -0.153  21.380  0.00  0.00    +0.179 C 
ATOM     30  H   UNL     1      -0.178  -1.868  22.236  0.00  0.00    +0.151 HD
ENDBRANCH  13   6
BRANCH  14   7
ATOM      7  N   UNL     1      -4.869  -0.111  25.127  0.00  0.00    -0.306 N 
ATOM      9  N   UNL     1      -3.282   1.618  25.155  0.00  0.00    -0.214 NA
ATOM     10  N   UNL     1      -5.493   1.981  24.267  0.00  0.00    -0.223 NA
ATOM     18  C   UNL     1      -4.538   1.201  24.841  0.00  0.00    +0.216 A 
ATOM     23  C   UNL     1      -2.994   2.903  24.863  0.00  0.00    +0.083 A 
ATOM     24  C   UNL     1      -5.137   3.255  24.001  0.00  0.00    +0.116 A 
ATOM     25  C   UNL     1      -3.890   3.776  24.280  0.00  0.00    +0.049 A 
ATOM     31  H   UNL     1      -5.790  -0.425  24.841  0.00  0.00    +0.149 HD
BRANCH  23  26
ATOM      1  S   UNL     1      -0.687   2.273  26.163  0.00  0.00    -0.095 S 
ATOM     26  C   UNL     1      -1.659   3.314  25.208  0.00  0.00    +0.038 A 
ATOM     27  C   UNL     1      -0.991   4.476  24.877  0.00  0.00    +0.017 A 
ATOM     28  C   UNL     1       0.329   4.509  25.413  0.00  0.00    +0.008 A 
ATOM     29  C   UNL     1       0.623   3.373  26.135  0.00  0.00    +0.046 A 
ENDBRANCH  23  26
ENDBRANCH  14   7
TORSDOF 3
ENDMDL
MODEL 3
REMARK VINA RESULT:       6.2      3.307      5.951
REMARK  Name = 11912880
REMARK  3 active torsions:
REMARK  status: ('A' for Active; 'I' for Inactive)
REMARK    1  A    between atoms: N_6  and  C_13
REMARK    2  A    between atoms: N_7  and  C_14
REMARK    3  A    between atoms: C_23  and  C_26
REMARK                            x       y       z     vdW  Elec       q    Type
REMARK                         _______ _______ _______ _____ _____    ______ ____
ROOT
ATOM      2  O   UNL     1      -1.307  -1.285  26.142  0.00  0.00    -0.370 OA
ATOM      3  O   UNL     1      -2.873  -1.141  23.448  0.00  0.00    -0.370 OA
ATOM     11  C   UNL     1      -1.530  -0.798  23.824  0.00  0.00    +0.171 C 
ATOM     12  C   UNL     1      -1.588  -0.216  25.223  0.00  0.00    +0.171 C 
ATOM     13  C   UNL     1      -0.693  -2.048  23.981  0.00  0.00    +0.131 C 
ATOM     14  C   UNL     1      -3.019   0.242  25.373  0.00  0.00    +0.130 C 
ATOM     15  C   UNL     1      -1.014  -2.478  25.401  0.00  0.00    +0.185 C 
ATOM     16  C   UNL     1      -3.775  -0.731  24.486  0.00  0.00    +0.185 C 
ENDROOT
BRANCH  13   6
ATOM      4  O   UNL     1       0.390   0.086  22.501  0.00  0.00    -0.253 OA
ATOM      5  O   UNL     1       5.259   0.291  23.254  0.00  0.00    -0.377 OA
ATOM      6  N   UNL     1       0.714  -1.758  23.827  0.00  0.00    -0.292 N 
ATOM      8  N   UNL     1       2.565  -0.532  23.013  0.00  0.00    -0.281 N 
ATOM     17  C   UNL     1       1.169  -0.680  23.076  0.00  0.00    +0.303 C 
ATOM     19  C   UNL     1       3.137   0.469  22.110  0.00  0.00    +0.137 C 
ATOM     20  C   UNL     1       3.558  -1.397  23.666  0.00  0.00    +0.137 C 
ATOM     21  C   UNL     1       4.280   1.218  22.777  0.00  0.00    +0.179 C 
ATOM     22  C   UNL     1       4.700  -0.569  24.248  0.00  0.00    +0.179 C 
ATOM     30  H   UNL     1       1.360  -2.468  24.145  0.00  0.00    +0.151 HD
ENDBRANCH  13   6
BRANCH  14   7
ATOM      7  N   UNL     1      -3.161   1.591  24.871  0.00  0.00    -0.306 N 
ATOM      9  N   UNL     1      -1.330   2.367  26.117  0.00  0.00    -0.214 NA
ATOM     10  N   UNL     1      -2.576   3.856  24.689  0.00  0.00    -0.223 NA
ATOM     18  C   UNL     1      -2.331   2.636  25.237  0.00  0.00    +0.216 A 
ATOM     23  C   UNL     1      -0.540   3.408  26.451  0.00  0.00    +0.083 A 
ATOM     24  C   UNL     1      -1.746   4.851  25.066  0.00  0.00    +0.116 A 
ATOM     25  C   UNL     1      -0.702   4.684  25.952  0.00  0.00    +0.049 A 
ATOM     31  H   UNL     1      -3.871   1.792  24.175  0.00  0.00    +0.149 HD
BRANCH  23  26
ATOM      1  S   UNL     1       0.091   2.640  28.985  0.00  0.00    -0.095 S 
ATOM     26  C   UNL     1       0.509   3.093  27.385  0.00  0.00    +0.038 A 
ATOM     27  C   UNL     1       1.876   3.094  27.195  0.00  0.00    +0.017 A 
ATOM     28  C   UNL     1       2.584   2.719  28.373  0.00  0.00    +0.008 A 
ATOM     29  C   UNL     1       1.734   2.446  29.422  0.00  0.00    +0.046 A 
ENDBRANCH  23  26
ENDBRANCH  14   7
TORSDOF 3
ENDMDL
MODEL 4
REMARK VINA RESULT:       6.7      2.113      4.255
REMARK  Name = 11912880
REMARK  3 active torsions:
REMARK  status: ('A' for Active; 'I' for Inactive)
REMARK    1  A    between atoms: N_6  and  C_13
REMARK    2  A    between atoms: N_7  and  C_14
REMARK    3  A    between atoms: C_23  and  C_26
REMARK                            x       y       z     vdW  Elec       q    Type
REMARK                         _______ _______ _______ _____ _____    ______ ____
ROOT
ATOM      2  O   UNL     1      -4.848   2.531  27.003  0.00  0.00    -0.370 OA
ATOM      3  O   UNL     1      -5.766   4.427  24.703  0.00  0.00    -0.370 OA
ATOM     11  C   UNL     1      -4.980   3.225  24.732  0.00  0.00    +0.171 C 
ATOM     12  C   UNL     1      -4.138   3.267  25.993  0.00  0.00    +0.171 C 
ATOM     13  C   UNL     1      -5.871   2.019  24.924  0.00  0.00    +0.131 C 
ATOM     14  C   UNL     1      -4.085   4.732  26.353  0.00  0.00    +0.130 C 
ATOM     15  C   UNL     1      -6.043   1.979  26.432  0.00  0.00    +0.185 C 
ATOM     16  C   UNL     1      -5.406   5.255  25.819  0.00  0.00    +0.185 C 
ENDROOT
BRANCH  13   6
ATOM      4  O   UNL     1      -4.625   0.062  26.517  0.00  0.00    -0.253 OA
ATOM      5  O   UNL     1      -3.375  -3.785  23.697  0.00  0.00    -0.377 OA
ATOM      6  N   UNL     1      -5.235   0.816  24.438  0.00  0.00    -0.292 N 
ATOM      8  N   UNL     1      -4.055  -1.220  24.671  0.00  0.00    -0.281 N 
ATOM     17  C   UNL     1      -4.639  -0.104  25.294  0.00  0.00    +0.303 C 
ATOM     19  C   UNL     1      -3.261  -2.151  25.474  0.00  0.00    +0.137 C 
ATOM     20  C   UNL     1      -4.030  -1.492  23.227  0.00  0.00    +0.137 C 
ATOM     21  C   UNL     1      -3.566  -3.593  25.101  0.00  0.00    +0.179 C 
ATOM     22  C   UNL     1      -4.278  -2.971  22.948  0.00  0.00    +0.179 C 
ATOM     30  H   UNL     1      -5.089   0.753  23.439  0.00  0.00    +0.151 HD
ENDBRANCH  13   6
BRANCH  14   7
ATOM      7  N   UNL     1      -2.981   5.370  25.669  0.00  0.00    -0.306 N 
ATOM      9  N   UNL     1      -1.839   3.339  25.385  0.00  0.00    -0.214 NA
ATOM     10  N   UNL     1      -0.910   5.407  24.567  0.00  0.00    -0.223 NA
ATOM     18  C   UNL     1      -1.877   4.685  25.193  0.00  0.00    +0.216 A 
ATOM     23  C   UNL     1      -0.749   2.703  24.908  0.00  0.00    +0.083 A 
ATOM     24  C   UNL     1       0.152   4.707  24.114  0.00  0.00    +0.116 A 
ATOM     25  C   UNL     1       0.287   3.342  24.258  0.00  0.00    +0.049 A 
ATOM     31  H   UNL     1      -3.023   6.364  25.474  0.00  0.00    +0.149 HD
BRANCH  23  26
ATOM      1  S   UNL     1      -0.220   0.247  23.861  0.00  0.00    -0.095 S 
ATOM     26  C   UNL     1      -0.737   1.281  25.127  0.00  0.00    +0.038 A 
ATOM     27  C   UNL     1      -1.092   0.569  26.255  0.00  0.00    +0.017 A 
ATOM     28  C   UNL     1      -0.937  -0.835  26.076  0.00  0.00    +0.008 A 
ATOM     29  C   UNL     1      -0.471  -1.149  24.818  0.00  0.00    +0.046 A 
ENDBRANCH  23  26
ENDBRANCH  14   7
TORSDOF 3
ENDMDL
MODEL 5
REMARK VINA RESULT:       7.0      2.548      4.861
REMARK  Name = 11912880
REMARK  3 active torsions:
REMARK  status: ('A' for Active; 'I' for Inactive)
REMARK    1  A    between atoms: N_6  and  C_13
REMARK    2  A    between atoms: N_7  and  C_14
REMARK    3  A    between atoms: C_23  and  C_26
REMARK                            x       y       z     vdW  Elec       q    Type
REMARK                         _______ _______ _______ _____ _____    ______ ____
ROOT
ATOM      2  O   UNL     1      -0.437  -0.865  24.415  0.00  0.00    -0.370 OA
ATOM      3  O   UNL     1      -2.276   1.221  23.000  0.00  0.00    -0.370 OA
ATOM     11  C   UNL     1      -1.576   1.217  24.255  0.00  0.00    +0.171 C 
ATOM     12  C   UNL     1      -1.646  -0.193  24.806  0.00  0.00    +0.171 C 
ATOM     13  C   UNL     1      -0.099   1.453  24.034  0.00  0.00    +0.131 C 
ATOM     14  C   UNL     1      -2.836  -0.804  24.106  0.00  0.00    +0.130 C 
ATOM     15  C   UNL     1       0.408   0.058  23.712  0.00  0.00    +0.185 C 
ATOM     16  C   UNL     1      -2.850  -0.074  22.775  0.00  0.00    +0.185 C 
ENDROOT
BRANCH  13   6
ATOM      4  O   UNL     1      -1.162   1.346  26.637  0.00  0.00    -0.253 OA
ATOM      5  O   UNL     1       2.215   2.960  29.847  0.00  0.00    -0.377 OA
ATOM      6  N   UNL     1       0.531   1.978  25.224  0.00  0.00    -0.292 N 
ATOM      8  N   UNL     1       0.669   2.448  27.537  0.00  0.00    -0.281 N 
ATOM     17  C   UNL     1      -0.062   1.885  26.477  0.00  0.00    +0.303 C 
ATOM     19  C   UNL     1       0.048   2.548  28.859  0.00  0.00    +0.137 C 
ATOM     20  C   UNL     1       1.980   3.105  27.432  0.00  0.00    +0.137 C 
ATOM     21  C   UNL     1       1.031   2.166  29.955  0.00  0.00    +0.179 C 
ATOM     22  C   UNL     1       2.875   2.718  28.604  0.00  0.00    +0.179 C 
ATOM     30  H   UNL     1       1.342   2.567  25.084  0.00  0.00    +0.151 HD
ENDBRANCH  13   6
BRANCH  14   7
ATOM      7  N   UNL     1      -4.045  -0.521  24.847  0.00  0.00    -0.306 N 
ATOM      9  N   UNL     1      -3.583   1.778  24.938  0.00  0.00    -0.214 NA
ATOM     10  N   UNL     1      -5.578   0.875  25.945  0.00  0.00    -0.223 NA
ATOM     18  C   UNL     1      -4.413   0.749  25.256  0.00  0.00    +0.216 A 
ATOM     23  C   UNL     1      -3.973   3.002  25.352  0.00  0.00    +0.083 A 
ATOM     24  C   UNL     1      -5.907   2.127  26.328  0.00  0.00    +0.116 A 
ATOM     25  C   UNL     1      -5.135   3.238  26.057  0.00  0.00    +0.049 A 
ATOM     31  H   UNL     1      -4.697  -1.273  25.043  0.00  0.00    +0.149 HD
BRANCH  23  26
ATOM      1  S   UNL     1      -3.378   4.985  23.585  0.00  0.00    -0.095 S 
ATOM     26  C   UNL     1      -3.074   4.070  25.003  0.00  0.00    +0.038 A 
ATOM     27  C   UNL     1      -1.941   4.507  25.659  0.00  0.00    +0.017 A 
ATOM     28  C   UNL     1      -1.320   5.602  24.991  0.00  0.00    +0.008 A 
ATOM     29  C   UNL     1      -1.999   5.962  23.848  0.00  0.00    +0.046 A 
ENDBRANCH  23  26
ENDBRANCH  14   7
TORSDOF 3
ENDMDL
MODEL 6
REMARK VINA RESULT:       7.1      2.016      4.337
REMARK  Name = 11912880
REMARK  3 active torsions:
REMARK  status: ('A' for Active; 'I' for Inactive)
REMARK    1  A    between atoms: N_6  and  C_13
REMARK    2  A    between atoms: N_7  and  C_14
REMARK    3  A    between atoms: C_23  and  C_26
REMARK                            x       y       z     vdW  Elec       q    Type
REMARK                         _______ _______ _______ _____ _____    ______ ____
ROOT
ATOM      2  O   UNL     1      -4.967   2.507  27.169  0.00  0.00    -0.370 OA
ATOM      3  O   UNL     1      -5.775   4.198  24.675  0.00  0.00    -0.370 OA
ATOM     11  C   UNL     1      -5.063   2.960  24.836  0.00  0.00    +0.171 C 
ATOM     12  C   UNL     1      -4.217   3.086  26.088  0.00  0.00    +0.171 C 
ATOM     13  C   UNL     1      -6.026   1.838  25.154  0.00  0.00    +0.131 C 
ATOM     14  C   UNL     1      -4.074   4.576  26.288  0.00  0.00    +0.130 C 
ATOM     15  C   UNL     1      -6.196   1.971  26.657  0.00  0.00    +0.185 C 
ATOM     16  C   UNL     1      -5.362   5.117  25.697  0.00  0.00    +0.185 C 
ENDROOT
BRANCH  13   6
ATOM      4  O   UNL     1      -3.660   1.426  23.686  0.00  0.00    -0.253 OA
ATOM      5  O   UNL     1      -2.564  -3.382  23.675  0.00  0.00    -0.377 OA
ATOM      6  N   UNL     1      -5.466   0.553  24.802  0.00  0.00    -0.292 N 
ATOM      8  N   UNL     1      -3.874  -0.880  23.800  0.00  0.00    -0.281 N 
ATOM     17  C   UNL     1      -4.289   0.435  24.071  0.00  0.00    +0.303 C 
ATOM     19  C   UNL     1      -2.744  -1.101  22.897  0.00  0.00    +0.137 C 
ATOM     20  C   UNL     1      -4.562  -2.110  24.221  0.00  0.00    +0.137 C 
ATOM     21  C   UNL     1      -1.821  -2.185  23.430  0.00  0.00    +0.179 C 
ATOM     22  C   UNL     1      -3.558  -3.164  24.676  0.00  0.00    +0.179 C 
ATOM     30  H   UNL     1      -6.053  -0.255  24.960  0.00  0.00    +0.151 HD
ENDBRANCH  13   6
BRANCH  14   7
ATOM      7  N   UNL     1      -2.935   5.067  25.544  0.00  0.00    -0.306 N 
ATOM      9  N   UNL     1      -1.901   2.960  25.519  0.00  0.00    -0.214 NA
ATOM     10  N   UNL     1      -0.861   4.863  24.467  0.00  0.00    -0.223 NA
ATOM     18  C   UNL     1      -1.867   4.273  25.165  0.00  0.00    +0.216 A 
ATOM     23  C   UNL     1      -0.844   2.216  25.134  0.00  0.00    +0.083 A 
ATOM     24  C   UNL     1       0.164   4.060  24.113  0.00  0.00    +0.116 A 
ATOM     25  C   UNL     1       0.227   2.716  24.422  0.00  0.00    +0.049 A 
ATOM     31  H   UNL     1      -2.924   6.031  25.230  0.00  0.00    +0.149 HD
BRANCH  23  26
ATOM      1  S   UNL     1       0.129  -0.298  24.756  0.00  0.00    -0.095 S 
ATOM     26  C   UNL     1      -0.907   0.832  25.523  0.00  0.00    +0.038 A 
ATOM     27  C   UNL     1      -1.711   0.228  26.469  0.00  0.00    +0.017 A 
ATOM     28  C   UNL     1      -1.472  -1.173  26.563  0.00  0.00    +0.008 A 
ATOM     29  C   UNL     1      -0.496  -1.591  25.686  0.00  0.00    +0.046 A 
ENDBRANCH  23  26
ENDBRANCH  14   7
TORSDOF 3
ENDMDL
MODEL 7
REMARK VINA RESULT:       7.1      2.751      5.075
REMARK  Name = 11912880
REMARK  3 active torsions:
REMARK  status: ('A' for Active; 'I' for Inactive)
REMARK    1  A    between atoms: N_6  and  C_13
REMARK    2  A    between atoms: N_7  and  C_14
REMARK    3  A    between atoms: C_23  and  C_26
REMARK                            x       y       z     vdW  Elec       q    Type
REMARK                         _______ _______ _______ _____ _____    ______ ____
ROOT
ATOM      2  O   UNL     1      -2.217   3.400  24.255  0.00  0.00    -0.370 OA
ATOM      3  O   UNL     1      -5.008   3.415  25.650  0.00  0.00    -0.370 OA
ATOM     11  C   UNL     1      -3.728   2.874  26.016  0.00  0.00    +0.171 C 
ATOM     12  C   UNL     1      -3.077   2.358  24.747  0.00  0.00    +0.171 C 
ATOM     13  C   UNL     1      -2.804   3.978  26.480  0.00  0.00    +0.131 C 
ATOM     14  C   UNL     1      -4.233   2.142  23.801  0.00  0.00    +0.130 C 
ATOM     15  C   UNL     1      -2.243   4.504  25.172  0.00  0.00    +0.185 C 
ATOM     16  C   UNL     1      -5.233   3.192  24.251  0.00  0.00    +0.185 C 
ENDROOT
BRANCH  13   6
ATOM      4  O   UNL     1      -0.099   3.691  25.759  0.00  0.00    -0.253 OA
ATOM      5  O   UNL     1       2.515   2.366  29.725  0.00  0.00    -0.377 OA
ATOM      6  N   UNL     1      -1.756   3.460  27.330  0.00  0.00    -0.292 N 
ATOM      8  N   UNL     1       0.464   2.822  27.834  0.00  0.00    -0.281 N 
ATOM     17  C   UNL     1      -0.440   3.350  26.897  0.00  0.00    +0.303 C 
ATOM     19  C   UNL     1       1.831   2.512  27.411  0.00  0.00    +0.137 C 
ATOM     20  C   UNL     1       0.141   2.393  29.202  0.00  0.00    +0.137 C 
ATOM     21  C   UNL     1       2.840   2.950  28.461  0.00  0.00    +0.179 C 
ATOM     22  C   UNL     1       1.237   2.815  30.176  0.00  0.00    +0.179 C 
ATOM     30  H   UNL     1      -2.048   3.021  28.193  0.00  0.00    +0.151 HD
ENDBRANCH  13   6
BRANCH  14   7
ATOM      7  N   UNL     1      -4.781   0.816  23.985  0.00  0.00    -0.306 N 
ATOM      9  N   UNL     1      -2.656  -0.180  24.013  0.00  0.00    -0.214 NA
ATOM     10  N   UNL     1      -4.651  -1.510  24.262  0.00  0.00    -0.223 NA
ATOM     18  C   UNL     1      -4.006  -0.325  24.090  0.00  0.00    +0.216 A 
ATOM     23  C   UNL     1      -1.932  -1.313  24.120  0.00  0.00    +0.083 A 
ATOM     24  C   UNL     1      -3.865  -2.603  24.362  0.00  0.00    +0.116 A 
ATOM     25  C   UNL     1      -2.487  -2.564  24.297  0.00  0.00    +0.049 A 
ATOM     31  H   UNL     1      -5.783   0.702  24.096  0.00  0.00    +0.149 HD
BRANCH  23  26
ATOM      1  S   UNL     1       0.108   0.171  23.098  0.00  0.00    -0.095 S 
ATOM     26  C   UNL     1      -0.508  -1.127  24.033  0.00  0.00    +0.038 A 
ATOM     27  C   UNL     1       0.505  -1.864  24.614  0.00  0.00    +0.017 A 
ATOM     28  C   UNL     1       1.795  -1.356  24.287  0.00  0.00    +0.008 A 
ATOM     29  C   UNL     1       1.724  -0.251  23.468  0.00  0.00    +0.046 A 
ENDBRANCH  23  26
ENDBRANCH  14   7
TORSDOF 3
ENDMDL
MODEL 8
REMARK VINA RESULT:       7.2      2.177      3.400
REMARK  Name = 11912880
REMARK  3 active torsions:
REMARK  status: ('A' for Active; 'I' for Inactive)
REMARK    1  A    between atoms: N_6  and  C_13
REMARK    2  A    between atoms: N_7  and  C_14
REMARK    3  A    between atoms: C_23  and  C_26
REMARK                            x       y       z     vdW  Elec       q    Type
REMARK                         _______ _______ _______ _____ _____    ______ ____
ROOT
ATOM      2  O   UNL     1      -1.988   5.033  24.460  0.00  0.00    -0.370 OA
ATOM      3  O   UNL     1      -2.946   3.359  26.912  0.00  0.00    -0.370 OA
ATOM     11  C   UNL     1      -2.476   3.004  25.602  0.00  0.00    +0.171 C 
ATOM     12  C   UNL     1      -3.012   4.040  24.634  0.00  0.00    +0.171 C 
ATOM     13  C   UNL     1      -0.975   3.167  25.520  0.00  0.00    +0.131 C 
ATOM     14  C   UNL     1      -4.202   4.633  25.350  0.00  0.00    +0.130 C 
ATOM     15  C   UNL     1      -0.825   4.645  25.207  0.00  0.00    +0.185 C 
ATOM     16  C   UNL     1      -3.811   4.500  26.811  0.00  0.00    +0.185 C 
ENDROOT
BRANCH  13   6
ATOM      4  O   UNL     1       1.699   2.305  25.357  0.00  0.00    -0.253 OA
ATOM      5  O   UNL     1       2.163  -0.878  21.620  0.00  0.00    -0.377 OA
ATOM      6  N   UNL     1      -0.416   2.349  24.468  0.00  0.00    -0.292 N 
ATOM      8  N   UNL     1       1.318   1.177  23.368  0.00  0.00    -0.281 N 
ATOM     17  C   UNL     1       0.920   1.965  24.461  0.00  0.00    +0.303 C 
ATOM     19  C   UNL     1       2.738   0.869  23.188  0.00  0.00    +0.137 C 
ATOM     20  C   UNL     1       0.457   0.730  22.264  0.00  0.00    +0.137 C 
ATOM     21  C   UNL     1       2.936  -0.584  22.786  0.00  0.00    +0.179 C 
ATOM     22  C   UNL     1       0.769  -0.714  21.882  0.00  0.00    +0.179 C 
ATOM     30  H   UNL     1      -0.992   2.209  23.649  0.00  0.00    +0.151 HD
ENDBRANCH  13   6
BRANCH  14   7
ATOM      7  N   UNL     1      -5.387   3.851  25.074  0.00  0.00    -0.306 N 
ATOM      9  N   UNL     1      -4.192   1.831  25.092  0.00  0.00    -0.214 NA
ATOM     10  N   UNL     1      -6.568   1.861  24.688  0.00  0.00    -0.223 NA
ATOM     18  C   UNL     1      -5.382   2.473  24.948  0.00  0.00    +0.216 A 
ATOM     23  C   UNL     1      -4.225   0.488  24.962  0.00  0.00    +0.083 A 
ATOM     24  C   UNL     1      -6.528   0.517  24.572  0.00  0.00    +0.116 A 
ATOM     25  C   UNL     1      -5.375  -0.229  24.700  0.00  0.00    +0.049 A 
ATOM     31  H   UNL     1      -6.287   4.314  25.017  0.00  0.00    +0.149 HD
BRANCH  23  26
ATOM      1  S   UNL     1      -2.407  -1.232  23.893  0.00  0.00    -0.095 S 
ATOM     26  C   UNL     1      -2.952  -0.163  25.119  0.00  0.00    +0.038 A 
ATOM     27  C   UNL     1      -2.041  -0.063  26.151  0.00  0.00    +0.017 A 
ATOM     28  C   UNL     1      -0.889  -0.871  25.933  0.00  0.00    +0.008 A 
ATOM     29  C   UNL     1      -0.958  -1.561  24.742  0.00  0.00    +0.046 A 
ENDBRANCH  23  26
ENDBRANCH  14   7
TORSDOF 3
ENDMDL
MODEL 9
REMARK VINA RESULT:       7.3      2.258      6.591
REMARK  Name = 11912880
REMARK  3 active torsions:
REMARK  status: ('A' for Active; 'I' for Inactive)
REMARK    1  A    between atoms: N_6  and  C_13
REMARK    2  A    between atoms: N_7  and  C_14
REMARK    3  A    between atoms: C_23  and  C_26
REMARK                            x       y       z     vdW  Elec       q    Type
REMARK                         _______ _______ _______ _____ _____    ______ ____
ROOT
ATOM      2  O   UNL     1      -3.484  -1.748  23.910  0.00  0.00    -0.370 OA
ATOM      3  O   UNL     1      -1.136  -1.439  25.940  0.00  0.00    -0.370 OA
ATOM     11  C   UNL     1      -1.807  -0.518  25.065  0.00  0.00    +0.171 C 
ATOM     12  C   UNL     1      -2.135  -1.267  23.788  0.00  0.00    +0.171 C 
ATOM     13  C   UNL     1      -3.159  -0.147  25.630  0.00  0.00    +0.131 C 
ATOM     14  C   UNL     1      -1.166  -2.425  23.779  0.00  0.00    +0.130 C 
ATOM     15  C   UNL     1      -4.037  -1.289  25.152  0.00  0.00    +0.185 C 
ATOM     16  C   UNL     1      -0.948  -2.688  25.258  0.00  0.00    +0.185 C 
ENDROOT
BRANCH  13   6
ATOM      4  O   UNL     1      -5.413   1.283  26.523  0.00  0.00    -0.253 OA
ATOM      5  O   UNL     1      -5.528   5.691  24.315  0.00  0.00    -0.377 OA
ATOM      6  N   UNL     1      -3.616   1.120  25.105  0.00  0.00    -0.292 N 
ATOM      8  N   UNL     1      -5.065   2.985  24.986  0.00  0.00    -0.281 N 
ATOM     17  C   UNL     1      -4.743   1.764  25.603  0.00  0.00    +0.303 C 
ATOM     19  C   UNL     1      -6.326   3.646  25.327  0.00  0.00    +0.137 C 
ATOM     20  C   UNL     1      -4.323   3.623  23.890  0.00  0.00    +0.137 C 
ATOM     21  C   UNL     1      -6.129   5.145  25.492  0.00  0.00    +0.179 C 
ATOM     22  C   UNL     1      -4.232   5.131  24.102  0.00  0.00    +0.179 C 
ATOM     30  H   UNL     1      -3.183   1.437  24.248  0.00  0.00    +0.151 HD
ENDBRANCH  13   6
BRANCH  14   7
ATOM      7  N   UNL     1       0.076  -2.025  23.153  0.00  0.00    -0.306 N 
ATOM      9  N   UNL     1      -0.064   0.155  24.010  0.00  0.00    -0.214 NA
ATOM     10  N   UNL     1       1.793  -0.515  22.628  0.00  0.00    -0.223 NA
ATOM     18  C   UNL     1       0.618  -0.757  23.267  0.00  0.00    +0.216 A 
ATOM     23  C   UNL     1       0.493   1.381  24.100  0.00  0.00    +0.083 A 
ATOM     24  C   UNL     1       2.293   0.731  22.761  0.00  0.00    +0.116 A 
ATOM     25  C   UNL     1       1.681   1.729  23.491  0.00  0.00    +0.049 A 
ATOM     31  H   UNL     1       0.619  -2.712  22.641  0.00  0.00    +0.149 HD
BRANCH  23  26
ATOM      1  S   UNL     1      -0.757   3.798  24.174  0.00  0.00    -0.095 S 
ATOM     26  C   UNL     1      -0.252   2.324  24.891  0.00  0.00    +0.038 A 
ATOM     27  C   UNL     1      -0.652   2.234  26.209  0.00  0.00    +0.017 A 
ATOM     28  C   UNL     1      -1.378   3.385  26.631  0.00  0.00    +0.008 A 
ATOM     29  C   UNL     1      -1.507   4.314  25.622  0.00  0.00    +0.046 A 
ENDBRANCH  23  26
ENDBRANCH  14   7
TORSDOF 3
ENDMDL
MODEL 10
REMARK VINA RESULT:       7.6      2.491      5.354
REMARK  Name = 11912880
REMARK  3 active torsions:
REMARK  status: ('A' for Active; 'I' for Inactive)
REMARK    1  A    between atoms: N_6  and  C_13
REMARK    2  A    between atoms: N_7  and  C_14
REMARK    3  A    between atoms: C_23  and  C_26
REMARK                            x       y       z     vdW  Elec       q    Type
REMARK                         _______ _______ _______ _____ _____    ______ ____
ROOT
ATOM      2  O   UNL     1      -2.594  -1.436  26.000  0.00  0.00    -0.370 OA
ATOM      3  O   UNL     1      -4.086  -1.511  23.262  0.00  0.00    -0.370 OA
ATOM     11  C   UNL     1      -3.017  -0.702  23.778  0.00  0.00    +0.171 C 
ATOM     12  C   UNL     1      -3.310  -0.447  25.243  0.00  0.00    +0.171 C 
ATOM     13  C   UNL     1      -1.725  -1.488  23.793  0.00  0.00    +0.131 C 
ATOM     14  C   UNL     1      -4.799  -0.669  25.365  0.00  0.00    +0.130 C 
ATOM     15  C   UNL     1      -1.823  -2.249  25.103  0.00  0.00    +0.185 C 
ATOM     16  C   UNL     1      -5.071  -1.704  24.288  0.00  0.00    +0.185 C 
ENDROOT
BRANCH  13   6
ATOM      4  O   UNL     1       0.793  -2.090  22.690  0.00  0.00    -0.253 OA
ATOM      5  O   UNL     1       3.627   1.945  22.793  0.00  0.00    -0.377 OA
ATOM      6  N   UNL     1      -0.578  -0.609  23.782  0.00  0.00    -0.292 N 
ATOM      8  N   UNL     1       1.659  -0.023  23.289  0.00  0.00    -0.281 N 
ATOM     17  C   UNL     1       0.635  -0.983  23.215  0.00  0.00    +0.303 C 
ATOM     19  C   UNL     1       3.014  -0.391  22.872  0.00  0.00    +0.137 C 
ATOM     20  C   UNL     1       1.554   1.312  23.894  0.00  0.00    +0.137 C 
ATOM     21  C   UNL     1       3.656   0.720  22.057  0.00  0.00    +0.179 C 
ATOM     22  C   UNL     1       2.281   2.351  23.046  0.00  0.00    +0.179 C 
ATOM     30  H   UNL     1      -0.640   0.223  24.354  0.00  0.00    +0.151 HD
ENDBRANCH  13   6
BRANCH  14   7
ATOM      7  N   UNL     1      -5.508   0.557  25.072  0.00  0.00    -0.306 N 
ATOM      9  N   UNL     1      -3.591   1.873  25.393  0.00  0.00    -0.214 NA
ATOM     10  N   UNL     1      -5.697   2.879  24.790  0.00  0.00    -0.223 NA
ATOM     18  C   UNL     1      -4.914   1.807  25.086  0.00  0.00    +0.216 A 
ATOM     23  C   UNL     1      -3.045   3.106  25.397  0.00  0.00    +0.083 A 
ATOM     24  C   UNL     1      -5.085   4.082  24.812  0.00  0.00    +0.116 A 
ATOM     25  C   UNL     1      -3.750   4.257  25.111  0.00  0.00    +0.049 A 
ATOM     31  H   UNL     1      -6.481   0.515  24.791  0.00  0.00    +0.149 HD
BRANCH  23  26
ATOM      1  S   UNL     1      -0.669   4.395  25.075  0.00  0.00    -0.095 S 
ATOM     26  C   UNL     1      -1.645   3.144  25.727  0.00  0.00    +0.038 A 
ATOM     27  C   UNL     1      -0.914   2.291  26.529  0.00  0.00    +0.017 A 
ATOM     28  C   UNL     1       0.457   2.669  26.608  0.00  0.00    +0.008 A 
ATOM     29  C   UNL     1       0.727   3.796  25.864  0.00  0.00    +0.046 A 
ENDBRANCH  23  26
ENDBRANCH  14   7
TORSDOF 3
ENDMDL
