MODEL 1
REMARK VINA RESULT:       8.3      0.000      0.000
REMARK  Name = 25388474
REMARK  4 active torsions:
REMARK  status: ('A' for Active; 'I' for Inactive)
REMARK    1  A    between atoms: S_1  and  C_29
REMARK    2  A    between atoms: S_1  and  C_30
REMARK    3  A    between atoms: C_13  and  C_14
REMARK    4  A    between atoms: C_22  and  C_24
REMARK                            x       y       z     vdW  Elec       q    Type
REMARK                         _______ _______ _______ _____ _____    ______ ____
ROOT
ATOM      2  O   UNL     1      -4.023  -0.044  27.248  0.00  0.00    -0.275 OA
ATOM      3  O   UNL     1       0.237   2.580  25.352  0.00  0.00    -0.267 OA
ATOM      4  N   UNL     1      -4.627   1.337  25.480  0.00  0.00    -0.300 N 
ATOM      5  N   UNL     1      -1.907   2.645  24.436  0.00  0.00    -0.311 N 
ATOM      6  C   UNL     1      -3.892   3.718  25.647  0.00  0.00    +0.027 C 
ATOM      7  C   UNL     1      -4.218   2.694  23.436  0.00  0.00    +0.054 C 
ATOM      8  C   UNL     1      -4.431   3.972  24.245  0.00  0.00    +0.018 C 
ATOM      9  C   UNL     1      -4.637   2.545  26.308  0.00  0.00    +0.113 C 
ATOM     10  C   UNL     1      -5.013   1.539  24.075  0.00  0.00    +0.117 C 
ATOM     11  C   UNL     1      -2.382   3.465  25.559  0.00  0.00    +0.130 C 
ATOM     12  C   UNL     1      -2.747   2.331  23.365  0.00  0.00    +0.027 A 
ATOM     14  C   UNL     1      -4.344   0.103  26.066  0.00  0.00    +0.219 C 
ATOM     17  C   UNL     1      -2.261   1.684  22.294  0.00  0.00    +0.022 A 
ATOM     20  C   UNL     1      -0.543   2.291  24.444  0.00  0.00    +0.259 A 
ATOM     22  C   UNL     1      -0.036   1.535  23.245  0.00  0.00    +0.047 A 
ATOM     23  C   UNL     1      -0.886   1.278  22.239  0.00  0.00    +0.015 A 
ENDROOT
BRANCH  14  13
ATOM     13  C   UNL     1      -4.440  -1.099  25.178  0.00  0.00    +0.075 C 
ATOM     15  C   UNL     1      -3.992  -0.735  23.761  0.00  0.00    +0.013 C 
ATOM     16  C   UNL     1      -3.590  -2.228  25.762  0.00  0.00    +0.013 C 
ATOM     18  C   UNL     1      -3.976  -1.958  22.848  0.00  0.00    +0.001 C 
ATOM     19  C   UNL     1      -3.571  -3.448  24.846  0.00  0.00    +0.001 C 
ATOM     21  C   UNL     1      -3.127  -3.084  23.432  0.00  0.00    +0.000 C 
ENDBRANCH  14  13
BRANCH  22  24
ATOM     24  C   UNL     1       1.362   1.075  23.169  0.00  0.00    -0.013 A 
ATOM     25  C   UNL     1       1.648  -0.290  23.188  0.00  0.00    +0.010 A 
ATOM     26  C   UNL     1       2.399   2.003  23.079  0.00  0.00    +0.010 A 
ATOM     27  C   UNL     1       2.971  -0.726  23.115  0.00  0.00    +0.015 A 
ATOM     28  C   UNL     1       3.721   1.568  23.006  0.00  0.00    +0.015 A 
ATOM     29  C   UNL     1       4.008   0.203  23.023  0.00  0.00    +0.008 A 
BRANCH  29   1
ATOM      1  S   UNL     1       5.697  -0.354  22.932  0.00  0.00    -0.129 S 
ATOM     30  C   UNL     1       5.963  -1.005  24.605  0.00  0.00    +0.090 C 
ENDBRANCH  29   1
ENDBRANCH  22  24
TORSDOF 3
ENDMDL
MODEL 2
REMARK VINA RESULT:      11.2      2.051      4.539
REMARK  Name = 25388474
REMARK  4 active torsions:
REMARK  status: ('A' for Active; 'I' for Inactive)
REMARK    1  A    between atoms: S_1  and  C_29
REMARK    2  A    between atoms: S_1  and  C_30
REMARK    3  A    between atoms: C_13  and  C_14
REMARK    4  A    between atoms: C_22  and  C_24
REMARK                            x       y       z     vdW  Elec       q    Type
REMARK                         _______ _______ _______ _____ _____    ______ ____
ROOT
ATOM      2  O   UNL     1      -4.179   2.164  22.804  0.00  0.00    -0.275 OA
ATOM      3  O   UNL     1      -0.274  -1.463  22.327  0.00  0.00    -0.267 OA
ATOM      4  N   UNL     1      -4.298   0.596  24.515  0.00  0.00    -0.300 N 
ATOM      5  N   UNL     1      -1.787  -1.333  24.097  0.00  0.00    -0.311 N 
ATOM      6  C   UNL     1      -4.288  -1.800  23.810  0.00  0.00    +0.027 C 
ATOM      7  C   UNL     1      -3.408  -1.175  26.018  0.00  0.00    +0.054 C 
ATOM      8  C   UNL     1      -4.236  -2.219  25.273  0.00  0.00    +0.018 C 
ATOM      9  C   UNL     1      -4.939  -0.413  23.668  0.00  0.00    +0.113 C 
ATOM     10  C   UNL     1      -4.098   0.200  25.917  0.00  0.00    +0.117 C 
ATOM     11  C   UNL     1      -2.867  -1.831  23.234  0.00  0.00    +0.130 C 
ATOM     12  C   UNL     1      -2.002  -1.088  25.456  0.00  0.00    +0.027 A 
ATOM     14  C   UNL     1      -4.002   1.852  23.984  0.00  0.00    +0.219 C 
ATOM     17  C   UNL     1      -0.975  -0.750  26.250  0.00  0.00    +0.022 A 
ATOM     20  C   UNL     1      -0.510  -1.222  23.512  0.00  0.00    +0.259 A 
ATOM     22  C   UNL     1       0.615  -0.806  24.421  0.00  0.00    +0.047 A 
ATOM     23  C   UNL     1       0.351  -0.603  25.720  0.00  0.00    +0.015 A 
ENDROOT
BRANCH  14  13
ATOM     13  C   UNL     1      -3.429   2.861  24.931  0.00  0.00    +0.075 C 
ATOM     15  C   UNL     1      -1.926   2.630  25.090  0.00  0.00    +0.013 C 
ATOM     16  C   UNL     1      -3.729   4.268  24.411  0.00  0.00    +0.013 C 
ATOM     18  C   UNL     1      -1.284   3.703  25.967  0.00  0.00    +0.001 C 
ATOM     19  C   UNL     1      -3.083   5.339  25.286  0.00  0.00    +0.001 C 
ATOM     21  C   UNL     1      -1.584   5.106  25.446  0.00  0.00    +0.000 C 
ENDBRANCH  14  13
BRANCH  22  24
ATOM     24  C   UNL     1       1.982  -0.615  23.904  0.00  0.00    -0.013 A 
ATOM     25  C   UNL     1       2.306   0.547  23.203  0.00  0.00    +0.010 A 
ATOM     26  C   UNL     1       2.952  -1.594  24.117  0.00  0.00    +0.010 A 
ATOM     27  C   UNL     1       3.600   0.729  22.715  0.00  0.00    +0.015 A 
ATOM     28  C   UNL     1       4.245  -1.412  23.630  0.00  0.00    +0.015 A 
ATOM     29  C   UNL     1       4.570  -0.251  22.929  0.00  0.00    +0.008 A 
BRANCH  29   1
ATOM      1  S   UNL     1       6.222  -0.019  22.304  0.00  0.00    -0.129 S 
ATOM     30  C   UNL     1       7.224  -0.322  23.787  0.00  0.00    +0.090 C 
ENDBRANCH  29   1
ENDBRANCH  22  24
TORSDOF 3
ENDMDL
