MODEL 1
REMARK VINA RESULT:      -4.4      0.000      0.000
REMARK  Name = 75536594
REMARK  6 active torsions:
REMARK  status: ('A' for Active; 'I' for Inactive)
REMARK    1  A    between atoms: O_3  and  C_9
REMARK    2  A    between atoms: N_5  and  C_8
REMARK    3  A    between atoms: N_5  and  C_10
REMARK    4  A    between atoms: N_7  and  C_17
REMARK    5  A    between atoms: C_11  and  C_17
REMARK    6  A    between atoms: C_18  and  C_19
REMARK                            x       y       z     vdW  Elec       q    Type
REMARK                         _______ _______ _______ _____ _____    ______ ____
ROOT
ATOM      2  O   UNL     1       0.355   3.424  23.557  0.00  0.00    -0.371 OA
ATOM      8  C   UNL     1      -0.959   4.110  25.413  0.00  0.00    +0.111 C 
ATOM      9  C   UNL     1      -0.695   2.620  25.517  0.00  0.00    +0.164 C 
ATOM     11  C   UNL     1       0.528   2.474  24.622  0.00  0.00    +0.165 C 
ATOM     12  C   UNL     1      -0.660   4.367  23.945  0.00  0.00    +0.181 C 
ENDROOT
BRANCH   9   3
ATOM      3  O   UNL     1      -0.430   2.203  26.844  0.00  0.00    -0.388 OA
ATOM     25  H   UNL     1      -0.944   1.397  27.018  0.00  0.00    +0.210 HD
ENDBRANCH   9   3
BRANCH   8   5
ATOM      5  N   UNL     1      -2.309   4.492  25.791  0.00  0.00    -0.306 NA
ATOM     23  H   UNL     1      -2.589   5.335  25.290  0.00  0.00    +0.123 HD
BRANCH   5  10
ATOM      6  N   UNL     1      -5.957   2.551  24.776  0.00  0.00    -0.316 NA
ATOM     10  C   UNL     1      -3.252   3.414  25.505  0.00  0.00    +0.056 C 
ATOM     13  C   UNL     1      -4.416   3.447  26.501  0.00  0.00    +0.034 C 
ATOM     14  C   UNL     1      -3.784   3.514  24.070  0.00  0.00    +0.034 C 
ATOM     15  C   UNL     1      -5.466   2.393  26.148  0.00  0.00    +0.082 C 
ATOM     16  C   UNL     1      -4.859   2.457  23.812  0.00  0.00    +0.082 C 
ATOM     24  H   UNL     1      -6.640   1.820  24.578  0.00  0.00    +0.122 HD
ENDBRANCH   5  10
ENDBRANCH   8   5
BRANCH  11  17
ATOM     17  C   UNL     1       0.687   1.079  24.044  0.00  0.00    +0.138 C 
BRANCH  17   7
ATOM      4  O   UNL     1       0.044  -1.424  25.293  0.00  0.00    -0.270 OA
ATOM      7  N   UNL     1      -0.570   0.391  23.986  0.00  0.00    -0.308 N 
ATOM     18  C   UNL     1      -0.794  -0.824  24.625  0.00  0.00    +0.251 C 
ATOM     26  H   UNL     1      -1.305   0.823  23.437  0.00  0.00    +0.149 HD
BRANCH  18  19
ATOM      1  S   UNL     1      -3.484  -0.388  24.189  0.00  0.00    -0.092 S 
ATOM     19  C   UNL     1      -2.142  -1.421  24.444  0.00  0.00    +0.074 A 
ATOM     20  C   UNL     1      -2.506  -2.750  24.447  0.00  0.00    +0.021 A 
ATOM     21  C   UNL     1      -3.905  -2.922  24.237  0.00  0.00    +0.008 A 
ATOM     22  C   UNL     1      -4.557  -1.718  24.083  0.00  0.00    +0.046 A 
ENDBRANCH  18  19
ENDBRANCH  17   7
ENDBRANCH  11  17
TORSDOF 6
ENDMDL
MODEL 2
REMARK VINA RESULT:      -4.2      2.091      4.430
REMARK  Name = 75536594
REMARK  6 active torsions:
REMARK  status: ('A' for Active; 'I' for Inactive)
REMARK    1  A    between atoms: O_3  and  C_9
REMARK    2  A    between atoms: N_5  and  C_8
REMARK    3  A    between atoms: N_5  and  C_10
REMARK    4  A    between atoms: N_7  and  C_17
REMARK    5  A    between atoms: C_11  and  C_17
REMARK    6  A    between atoms: C_18  and  C_19
REMARK                            x       y       z     vdW  Elec       q    Type
REMARK                         _______ _______ _______ _____ _____    ______ ____
ROOT
ATOM      2  O   UNL     1      -3.520   4.063  25.814  0.00  0.00    -0.371 OA
ATOM      8  C   UNL     1      -1.376   3.792  24.830  0.00  0.00    +0.111 C 
ATOM      9  C   UNL     1      -2.397   3.021  24.013  0.00  0.00    +0.164 C 
ATOM     11  C   UNL     1      -3.689   3.710  24.431  0.00  0.00    +0.165 C 
ATOM     12  C   UNL     1      -2.121   3.983  26.140  0.00  0.00    +0.181 C 
ENDROOT
BRANCH   9   3
ATOM      3  O   UNL     1      -2.171   3.123  22.620  0.00  0.00    -0.388 OA
ATOM     25  H   UNL     1      -2.801   3.767  22.255  0.00  0.00    +0.210 HD
ENDBRANCH   9   3
BRANCH   8   5
ATOM      5  N   UNL     1      -0.112   3.092  24.994  0.00  0.00    -0.306 NA
ATOM     23  H   UNL     1       0.061   2.910  25.982  0.00  0.00    +0.123 HD
BRANCH   5  10
ATOM      6  N   UNL     1       0.898  -0.895  23.905  0.00  0.00    -0.316 NA
ATOM     10  C   UNL     1      -0.116   1.833  24.254  0.00  0.00    +0.056 C 
ATOM     13  C   UNL     1       1.278   1.546  23.686  0.00  0.00    +0.034 C 
ATOM     14  C   UNL     1      -0.571   0.672  25.146  0.00  0.00    +0.034 C 
ATOM     15  C   UNL     1       1.317   0.180  23.001  0.00  0.00    +0.082 C 
ATOM     16  C   UNL     1      -0.459  -0.661  24.404  0.00  0.00    +0.082 C 
ATOM     24  H   UNL     1       0.923  -1.783  23.405  0.00  0.00    +0.122 HD
ENDBRANCH   5  10
ENDBRANCH   8   5
BRANCH  11  17
ATOM     17  C   UNL     1      -4.917   2.834  24.270  0.00  0.00    +0.138 C 
BRANCH  17   7
ATOM      4  O   UNL     1      -5.153   0.788  26.271  0.00  0.00    -0.270 OA
ATOM      7  N   UNL     1      -4.559   1.452  24.129  0.00  0.00    -0.308 N 
ATOM     18  C   UNL     1      -4.708   0.526  25.156  0.00  0.00    +0.251 C 
ATOM     26  H   UNL     1      -4.169   1.167  23.237  0.00  0.00    +0.149 HD
BRANCH  18  19
ATOM      1  S   UNL     1      -3.361  -1.715  26.036  0.00  0.00    -0.092 S 
ATOM     19  C   UNL     1      -4.264  -0.860  24.859  0.00  0.00    +0.074 A 
ATOM     20  C   UNL     1      -4.477  -1.611  23.725  0.00  0.00    +0.021 A 
ATOM     21  C   UNL     1      -3.890  -2.906  23.821  0.00  0.00    +0.008 A 
ATOM     22  C   UNL     1      -3.251  -3.095  25.027  0.00  0.00    +0.046 A 
ENDBRANCH  18  19
ENDBRANCH  17   7
ENDBRANCH  11  17
TORSDOF 6
ENDMDL
MODEL 3
REMARK VINA RESULT:      -4.1      2.149      4.501
REMARK  Name = 75536594
REMARK  6 active torsions:
REMARK  status: ('A' for Active; 'I' for Inactive)
REMARK    1  A    between atoms: O_3  and  C_9
REMARK    2  A    between atoms: N_5  and  C_8
REMARK    3  A    between atoms: N_5  and  C_10
REMARK    4  A    between atoms: N_7  and  C_17
REMARK    5  A    between atoms: C_11  and  C_17
REMARK    6  A    between atoms: C_18  and  C_19
REMARK                            x       y       z     vdW  Elec       q    Type
REMARK                         _______ _______ _______ _____ _____    ______ ____
ROOT
ATOM      2  O   UNL     1      -2.643   3.459  23.302  0.00  0.00    -0.371 OA
ATOM      8  C   UNL     1      -4.258   2.514  24.765  0.00  0.00    +0.111 C 
ATOM      9  C   UNL     1      -3.098   3.047  25.586  0.00  0.00    +0.164 C 
ATOM     11  C   UNL     1      -2.475   4.034  24.609  0.00  0.00    +0.165 C 
ATOM     12  C   UNL     1      -3.630   2.415  23.385  0.00  0.00    +0.181 C 
ENDROOT
BRANCH   9   3
ATOM      3  O   UNL     1      -3.519   3.679  26.779  0.00  0.00    -0.388 OA
ATOM     25  H   UNL     1      -3.663   4.622  26.591  0.00  0.00    +0.210 HD
ENDBRANCH   9   3
BRANCH   8   5
ATOM      5  N   UNL     1      -4.777   1.243  25.243  0.00  0.00    -0.306 NA
ATOM     23  H   UNL     1      -5.751   1.134  24.961  0.00  0.00    +0.123 HD
BRANCH   5  10
ATOM      6  N   UNL     1      -3.214  -2.694  24.841  0.00  0.00    -0.316 NA
ATOM     10  C   UNL     1      -3.986   0.132  24.722  0.00  0.00    +0.056 C 
ATOM     13  C   UNL     1      -3.057  -0.416  25.810  0.00  0.00    +0.034 C 
ATOM     14  C   UNL     1      -4.891  -0.986  24.190  0.00  0.00    +0.034 C 
ATOM     15  C   UNL     1      -2.301  -1.649  25.313  0.00  0.00    +0.082 C 
ATOM     16  C   UNL     1      -4.064  -2.197  23.756  0.00  0.00    +0.082 C 
ATOM     24  H   UNL     1      -2.671  -3.488  24.505  0.00  0.00    +0.122 HD
ENDBRANCH   5  10
ENDBRANCH   8   5
BRANCH  11  17
ATOM     17  C   UNL     1      -1.003   4.292  24.871  0.00  0.00    +0.138 C 
BRANCH  17   7
ATOM      4  O   UNL     1      -0.143   1.702  25.761  0.00  0.00    -0.270 OA
ATOM      7  N   UNL     1      -0.174   3.371  24.150  0.00  0.00    -0.308 N 
ATOM     18  C   UNL     1       0.195   2.130  24.660  0.00  0.00    +0.251 C 
ATOM     26  H   UNL     1       0.155   3.665  23.236  0.00  0.00    +0.149 HD
BRANCH  18  19
ATOM      1  S   UNL     1       0.474  -0.157  23.143  0.00  0.00    -0.092 S 
ATOM     19  C   UNL     1       1.080   1.304  23.800  0.00  0.00    +0.074 A 
ATOM     20  C   UNL     1       2.383   1.539  23.422  0.00  0.00    +0.021 A 
ATOM     21  C   UNL     1       2.893   0.506  22.584  0.00  0.00    +0.008 A 
ATOM     22  C   UNL     1       1.959  -0.480  22.352  0.00  0.00    +0.046 A 
ENDBRANCH  18  19
ENDBRANCH  17   7
ENDBRANCH  11  17
TORSDOF 6
ENDMDL
MODEL 4
REMARK VINA RESULT:      -4.0      2.318      4.461
REMARK  Name = 75536594
REMARK  6 active torsions:
REMARK  status: ('A' for Active; 'I' for Inactive)
REMARK    1  A    between atoms: O_3  and  C_9
REMARK    2  A    between atoms: N_5  and  C_8
REMARK    3  A    between atoms: N_5  and  C_10
REMARK    4  A    between atoms: N_7  and  C_17
REMARK    5  A    between atoms: C_11  and  C_17
REMARK    6  A    between atoms: C_18  and  C_19
REMARK                            x       y       z     vdW  Elec       q    Type
REMARK                         _______ _______ _______ _____ _____    ______ ____
ROOT
ATOM      2  O   UNL     1      -5.621   3.074  26.121  0.00  0.00    -0.371 OA
ATOM      8  C   UNL     1      -3.945   4.059  24.758  0.00  0.00    +0.111 C 
ATOM      9  C   UNL     1      -4.123   2.608  24.353  0.00  0.00    +0.164 C 
ATOM     11  C   UNL     1      -5.511   2.316  24.905  0.00  0.00    +0.165 C 
ATOM     12  C   UNL     1      -4.580   4.066  26.138  0.00  0.00    +0.181 C 
ENDROOT
BRANCH   9   3
ATOM      3  O   UNL     1      -4.062   2.420  22.952  0.00  0.00    -0.388 OA
ATOM     25  H   UNL     1      -4.836   1.900  22.679  0.00  0.00    +0.210 HD
ENDBRANCH   9   3
BRANCH   8   5
ATOM      5  N   UNL     1      -2.558   4.496  24.771  0.00  0.00    -0.306 NA
ATOM     23  H   UNL     1      -2.421   5.205  25.490  0.00  0.00    +0.123 HD
BRANCH   5  10
ATOM      6  N   UNL     1       1.020   2.362  25.635  0.00  0.00    -0.316 NA
ATOM     10  C   UNL     1      -1.662   3.368  25.012  0.00  0.00    +0.056 C 
ATOM     13  C   UNL     1      -0.534   3.355  23.976  0.00  0.00    +0.034 C 
ATOM     14  C   UNL     1      -1.076   3.425  26.429  0.00  0.00    +0.034 C 
ATOM     15  C   UNL     1       0.473   2.245  24.281  0.00  0.00    +0.082 C 
ATOM     16  C   UNL     1      -0.047   2.313  26.637  0.00  0.00    +0.082 C 
ATOM     24  H   UNL     1       1.672   1.596  25.802  0.00  0.00    +0.122 HD
ENDBRANCH   5  10
ENDBRANCH   8   5
BRANCH  11  17
ATOM     17  C   UNL     1      -5.748   0.845  25.193  0.00  0.00    +0.138 C 
BRANCH  17   7
ATOM      4  O   UNL     1      -4.655  -1.091  23.377  0.00  0.00    -0.270 OA
ATOM      7  N   UNL     1      -4.509   0.136  25.340  0.00  0.00    -0.308 N 
ATOM     18  C   UNL     1      -4.055  -0.789  24.406  0.00  0.00    +0.251 C 
ATOM     26  H   UNL     1      -3.968   0.326  26.176  0.00  0.00    +0.149 HD
BRANCH  18  19
ATOM      1  S   UNL     1      -1.573  -0.598  25.595  0.00  0.00    -0.092 S 
ATOM     19  C   UNL     1      -2.766  -1.458  24.718  0.00  0.00    +0.074 A 
ATOM     20  C   UNL     1      -2.355  -2.733  24.399  0.00  0.00    +0.021 A 
ATOM     21  C   UNL     1      -1.042  -3.008  24.880  0.00  0.00    +0.008 A 
ATOM     22  C   UNL     1      -0.500  -1.932  25.548  0.00  0.00    +0.046 A 
ENDBRANCH  18  19
ENDBRANCH  17   7
ENDBRANCH  11  17
TORSDOF 6
ENDMDL
MODEL 5
REMARK VINA RESULT:      -3.0      1.821      5.010
REMARK  Name = 75536594
REMARK  6 active torsions:
REMARK  status: ('A' for Active; 'I' for Inactive)
REMARK    1  A    between atoms: O_3  and  C_9
REMARK    2  A    between atoms: N_5  and  C_8
REMARK    3  A    between atoms: N_5  and  C_10
REMARK    4  A    between atoms: N_7  and  C_17
REMARK    5  A    between atoms: C_11  and  C_17
REMARK    6  A    between atoms: C_18  and  C_19
REMARK                            x       y       z     vdW  Elec       q    Type
REMARK                         _______ _______ _______ _____ _____    ______ ____
ROOT
ATOM      2  O   UNL     1      -0.563   1.692  26.369  0.00  0.00    -0.371 OA
ATOM      8  C   UNL     1       0.081  -0.031  24.867  0.00  0.00    +0.111 C 
ATOM      9  C   UNL     1       0.121   1.301  24.140  0.00  0.00    +0.164 C 
ATOM     11  C   UNL     1       0.215   2.272  25.308  0.00  0.00    +0.165 C 
ATOM     12  C   UNL     1      -0.794   0.306  26.063  0.00  0.00    +0.181 C 
ENDROOT
BRANCH   9   3
ATOM      3  O   UNL     1       1.230   1.414  23.268  0.00  0.00    -0.388 OA
ATOM     25  H   UNL     1       1.962   1.824  23.758  0.00  0.00    +0.210 HD
ENDBRANCH   9   3
BRANCH   8   5
ATOM      5  N   UNL     1      -0.453  -1.118  24.064  0.00  0.00    -0.306 NA
ATOM     23  H   UNL     1       0.147  -1.939  24.141  0.00  0.00    +0.123 HD
BRANCH   5  10
ATOM      6  N   UNL     1      -4.466  -2.515  23.842  0.00  0.00    -0.316 NA
ATOM     10  C   UNL     1      -1.809  -1.459  24.487  0.00  0.00    +0.056 C 
ATOM     13  C   UNL     1      -2.835  -0.654  23.682  0.00  0.00    +0.034 C 
ATOM     14  C   UNL     1      -2.075  -2.961  24.328  0.00  0.00    +0.034 C 
ATOM     15  C   UNL     1      -4.260  -1.078  24.037  0.00  0.00    +0.082 C 
ATOM     16  C   UNL     1      -3.530  -3.294  24.657  0.00  0.00    +0.082 C 
ATOM     24  H   UNL     1      -5.421  -2.757  24.105  0.00  0.00    +0.122 HD
ENDBRANCH   5  10
ENDBRANCH   8   5
BRANCH  11  17
ATOM     17  C   UNL     1      -0.310   3.658  24.983  0.00  0.00    +0.138 C 
BRANCH  17   7
ATOM      4  O   UNL     1      -2.515   2.656  23.442  0.00  0.00    -0.270 OA
ATOM      7  N   UNL     1      -1.703   3.777  25.304  0.00  0.00    -0.308 N 
ATOM     18  C   UNL     1      -2.709   3.258  24.495  0.00  0.00    +0.251 C 
ATOM     26  H   UNL     1      -1.939   4.276  26.155  0.00  0.00    +0.149 HD
BRANCH  18  19
ATOM      1  S   UNL     1      -5.115   2.141  25.258  0.00  0.00    -0.092 S 
ATOM     19  C   UNL     1      -4.104   3.489  24.953  0.00  0.00    +0.074 A 
ATOM     20  C   UNL     1      -4.749   4.682  25.188  0.00  0.00    +0.021 A 
ATOM     21  C   UNL     1      -6.092   4.488  25.622  0.00  0.00    +0.008 A 
ATOM     22  C   UNL     1      -6.422   3.153  25.703  0.00  0.00    +0.046 A 
ENDBRANCH  18  19
ENDBRANCH  17   7
ENDBRANCH  11  17
TORSDOF 6
ENDMDL
MODEL 6
REMARK VINA RESULT:      -2.7     18.039     20.035
REMARK  Name = 75536594
REMARK  6 active torsions:
REMARK  status: ('A' for Active; 'I' for Inactive)
REMARK    1  A    between atoms: O_3  and  C_9
REMARK    2  A    between atoms: N_5  and  C_8
REMARK    3  A    between atoms: N_5  and  C_10
REMARK    4  A    between atoms: N_7  and  C_17
REMARK    5  A    between atoms: C_11  and  C_17
REMARK    6  A    between atoms: C_18  and  C_19
REMARK                            x       y       z     vdW  Elec       q    Type
REMARK                         _______ _______ _______ _____ _____    ______ ____
ROOT
ATOM      2  O   UNL     1      14.610  -5.329  30.773  0.00  0.00    -0.371 OA
ATOM      8  C   UNL     1      13.528  -7.332  31.447  0.00  0.00    +0.111 C 
ATOM      9  C   UNL     1      15.025  -7.575  31.382  0.00  0.00    +0.164 C 
ATOM     11  C   UNL     1      15.559  -6.153  31.472  0.00  0.00    +0.165 C 
ATOM     12  C   UNL     1      13.391  -6.074  30.607  0.00  0.00    +0.181 C 
ENDROOT
BRANCH   9   3
ATOM      3  O   UNL     1      15.494  -8.384  32.445  0.00  0.00    -0.388 OA
ATOM     25  H   UNL     1      15.130  -8.035  33.276  0.00  0.00    +0.210 HD
ENDBRANCH   9   3
BRANCH   8   5
ATOM      5  N   UNL     1      12.734  -8.440  30.941  0.00  0.00    -0.306 NA
ATOM     23  H   UNL     1      13.341  -9.216  30.680  0.00  0.00    +0.123 HD
BRANCH   5  10
ATOM      6  N   UNL     1       9.105  -9.919  32.598  0.00  0.00    -0.316 NA
ATOM     10  C   UNL     1      11.768  -8.885  31.943  0.00  0.00    +0.056 C 
ATOM     13  C   UNL     1      10.517  -8.002  31.903  0.00  0.00    +0.034 C 
ATOM     14  C   UNL     1      11.384 -10.353  31.722  0.00  0.00    +0.034 C 
ATOM     15  C   UNL     1       9.452  -8.522  32.870  0.00  0.00    +0.082 C 
ATOM     16  C   UNL     1      10.286 -10.781  32.696  0.00  0.00    +0.082 C 
ATOM     24  H   UNL     1       8.407 -10.230  33.273  0.00  0.00    +0.122 HD
ENDBRANCH   5  10
ENDBRANCH   8   5
BRANCH  11  17
ATOM     17  C   UNL     1      16.936  -5.987  30.856  0.00  0.00    +0.138 C 
BRANCH  17   7
ATOM      4  O   UNL     1      17.403  -4.250  28.619  0.00  0.00    -0.270 OA
ATOM      7  N   UNL     1      16.936  -6.357  29.471  0.00  0.00    -0.308 N 
ATOM     18  C   UNL     1      17.174  -5.445  28.447  0.00  0.00    +0.251 C 
ATOM     26  H   UNL     1      16.739  -7.328  29.254  0.00  0.00    +0.149 HD
BRANCH  18  19
ATOM      1  S   UNL     1      17.405  -4.926  25.747  0.00  0.00    -0.092 S 
ATOM     19  C   UNL     1      17.113  -5.982  27.063  0.00  0.00    +0.074 A 
ATOM     20  C   UNL     1      16.846  -7.267  26.646  0.00  0.00    +0.021 A 
ATOM     21  C   UNL     1      16.880  -7.387  25.227  0.00  0.00    +0.008 A 
ATOM     22  C   UNL     1      17.172  -6.188  24.613  0.00  0.00    +0.046 A 
ENDBRANCH  18  19
ENDBRANCH  17   7
ENDBRANCH  11  17
TORSDOF 6
ENDMDL
MODEL 7
REMARK VINA RESULT:      -2.5      2.110      4.754
REMARK  Name = 75536594
REMARK  6 active torsions:
REMARK  status: ('A' for Active; 'I' for Inactive)
REMARK    1  A    between atoms: O_3  and  C_9
REMARK    2  A    between atoms: N_5  and  C_8
REMARK    3  A    between atoms: N_5  and  C_10
REMARK    4  A    between atoms: N_7  and  C_17
REMARK    5  A    between atoms: C_11  and  C_17
REMARK    6  A    between atoms: C_18  and  C_19
REMARK                            x       y       z     vdW  Elec       q    Type
REMARK                         _______ _______ _______ _____ _____    ______ ____
ROOT
ATOM      2  O   UNL     1       0.959   2.648  24.279  0.00  0.00    -0.371 OA
ATOM      8  C   UNL     1       0.265   0.502  23.535  0.00  0.00    +0.111 C 
ATOM      9  C   UNL     1      -0.949   1.408  23.638  0.00  0.00    +0.164 C 
ATOM     11  C   UNL     1      -0.296   2.782  23.592  0.00  0.00    +0.165 C 
ATOM     12  C   UNL     1       1.271   1.248  24.395  0.00  0.00    +0.181 C 
ENDROOT
BRANCH   9   3
ATOM      3  O   UNL     1      -1.862   1.221  22.574  0.00  0.00    -0.388 OA
ATOM     25  H   UNL     1      -1.371   0.882  21.807  0.00  0.00    +0.210 HD
ENDBRANCH   9   3
BRANCH   8   5
ATOM      5  N   UNL     1       0.022  -0.855  23.995  0.00  0.00    -0.306 NA
ATOM     23  H   UNL     1       0.594  -1.054  24.816  0.00  0.00    +0.123 HD
BRANCH   5  10
ATOM      6  N   UNL     1      -3.462  -2.469  25.827  0.00  0.00    -0.316 NA
ATOM     10  C   UNL     1      -1.389  -1.048  24.319  0.00  0.00    +0.056 C 
ATOM     13  C   UNL     1      -1.825  -2.473  23.964  0.00  0.00    +0.034 C 
ATOM     14  C   UNL     1      -1.656  -0.770  25.804  0.00  0.00    +0.034 C 
ATOM     15  C   UNL     1      -3.270  -2.725  24.397  0.00  0.00    +0.082 C 
ATOM     16  C   UNL     1      -3.107  -1.089  26.165  0.00  0.00    +0.082 C 
ATOM     24  H   UNL     1      -4.439  -2.633  26.069  0.00  0.00    +0.122 HD
ENDBRANCH   5  10
ENDBRANCH   8   5
BRANCH  11  17
ATOM     17  C   UNL     1      -1.130   3.866  24.251  0.00  0.00    +0.138 C 
BRANCH  17   7
ATOM      4  O   UNL     1      -3.650   3.467  22.936  0.00  0.00    -0.270 OA
ATOM      7  N   UNL     1      -2.323   3.326  24.834  0.00  0.00    -0.308 N 
ATOM     18  C   UNL     1      -3.506   3.166  24.119  0.00  0.00    +0.251 C 
ATOM     26  H   UNL     1      -2.281   3.069  25.814  0.00  0.00    +0.149 HD
BRANCH  18  19
ATOM      1  S   UNL     1      -5.488   3.630  25.981  0.00  0.00    -0.092 S 
ATOM     19  C   UNL     1      -4.661   2.618  24.875  0.00  0.00    +0.074 A 
ATOM     20  C   UNL     1      -5.206   1.354  24.823  0.00  0.00    +0.021 A 
ATOM     21  C   UNL     1      -6.317   1.214  25.705  0.00  0.00    +0.008 A 
ATOM     22  C   UNL     1      -6.578   2.376  26.396  0.00  0.00    +0.046 A 
ENDBRANCH  18  19
ENDBRANCH  17   7
ENDBRANCH  11  17
TORSDOF 6
ENDMDL
MODEL 8
REMARK VINA RESULT:      -2.5     17.452     19.667
REMARK  Name = 75536594
REMARK  6 active torsions:
REMARK  status: ('A' for Active; 'I' for Inactive)
REMARK    1  A    between atoms: O_3  and  C_9
REMARK    2  A    between atoms: N_5  and  C_8
REMARK    3  A    between atoms: N_5  and  C_10
REMARK    4  A    between atoms: N_7  and  C_17
REMARK    5  A    between atoms: C_11  and  C_17
REMARK    6  A    between atoms: C_18  and  C_19
REMARK                            x       y       z     vdW  Elec       q    Type
REMARK                         _______ _______ _______ _____ _____    ______ ____
ROOT
ATOM      2  O   UNL     1      13.591  -6.287  30.511  0.00  0.00    -0.371 OA
ATOM      8  C   UNL     1      12.647  -8.151  31.639  0.00  0.00    +0.111 C 
ATOM      9  C   UNL     1      14.153  -8.322  31.575  0.00  0.00    +0.164 C 
ATOM     11  C   UNL     1      14.603  -6.887  31.337  0.00  0.00    +0.165 C 
ATOM     12  C   UNL     1      12.415  -7.114  30.552  0.00  0.00    +0.181 C 
ENDROOT
BRANCH   9   3
ATOM      3  O   UNL     1      14.694  -8.853  32.770  0.00  0.00    -0.388 OA
ATOM     25  H   UNL     1      15.628  -8.589  32.826  0.00  0.00    +0.210 HD
ENDBRANCH   9   3
BRANCH   8   5
ATOM      5  N   UNL     1      11.909  -9.383  31.413  0.00  0.00    -0.306 NA
ATOM     23  H   UNL     1      12.491 -10.187  31.643  0.00  0.00    +0.123 HD
BRANCH   5  10
ATOM      6  N   UNL     1       7.771  -9.197  32.383  0.00  0.00    -0.316 NA
ATOM     10  C   UNL     1      10.689  -9.412  32.215  0.00  0.00    +0.056 C 
ATOM     13  C   UNL     1       9.963  -8.065  32.127  0.00  0.00    +0.034 C 
ATOM     14  C   UNL     1       9.759 -10.543  31.761  0.00  0.00    +0.034 C 
ATOM     15  C   UNL     1       8.629  -8.116  32.873  0.00  0.00    +0.082 C 
ATOM     16  C   UNL     1       8.433 -10.496  32.522  0.00  0.00    +0.082 C 
ATOM     24  H   UNL     1       6.902  -9.205  32.917  0.00  0.00    +0.122 HD
ENDBRANCH   5  10
ENDBRANCH   8   5
BRANCH  11  17
ATOM     17  C   UNL     1      15.953  -6.785  30.652  0.00  0.00    +0.138 C 
BRANCH  17   7
ATOM      4  O   UNL     1      15.809  -6.223  27.841  0.00  0.00    -0.270 OA
ATOM      7  N   UNL     1      16.069  -7.733  29.582  0.00  0.00    -0.308 N 
ATOM     18  C   UNL     1      15.987  -7.370  28.241  0.00  0.00    +0.251 C 
ATOM     26  H   UNL     1      16.202  -8.705  29.841  0.00  0.00    +0.149 HD
BRANCH  18  19
ATOM      1  S   UNL     1      17.000  -9.871  27.666  0.00  0.00    -0.092 S 
ATOM     19  C   UNL     1      16.098  -8.475  27.255  0.00  0.00    +0.074 A 
ATOM     20  C   UNL     1      15.560  -8.562  25.990  0.00  0.00    +0.021 A 
ATOM     21  C   UNL     1      15.893  -9.790  25.349  0.00  0.00    +0.008 A 
ATOM     22  C   UNL     1      16.673 -10.596  26.150  0.00  0.00    +0.046 A 
ENDBRANCH  18  19
ENDBRANCH  17   7
ENDBRANCH  11  17
TORSDOF 6
ENDMDL
MODEL 9
REMARK VINA RESULT:      -2.1      2.119      4.061
REMARK  Name = 75536594
REMARK  6 active torsions:
REMARK  status: ('A' for Active; 'I' for Inactive)
REMARK    1  A    between atoms: O_3  and  C_9
REMARK    2  A    between atoms: N_5  and  C_8
REMARK    3  A    between atoms: N_5  and  C_10
REMARK    4  A    between atoms: N_7  and  C_17
REMARK    5  A    between atoms: C_11  and  C_17
REMARK    6  A    between atoms: C_18  and  C_19
REMARK                            x       y       z     vdW  Elec       q    Type
REMARK                         _______ _______ _______ _____ _____    ______ ____
ROOT
ATOM      2  O   UNL     1      -3.914   3.227  26.504  0.00  0.00    -0.371 OA
ATOM      8  C   UNL     1      -2.516   4.704  25.277  0.00  0.00    +0.111 C 
ATOM      9  C   UNL     1      -3.609   4.182  24.362  0.00  0.00    +0.164 C 
ATOM     11  C   UNL     1      -4.650   3.729  25.376  0.00  0.00    +0.165 C 
ATOM     12  C   UNL     1      -2.554   3.685  26.403  0.00  0.00    +0.181 C 
ENDROOT
BRANCH   9   3
ATOM      3  O   UNL     1      -4.115   5.176  23.493  0.00  0.00    -0.388 OA
ATOM     25  H   UNL     1      -5.043   4.965  23.296  0.00  0.00    +0.210 HD
ENDBRANCH   9   3
BRANCH   8   5
ATOM      5  N   UNL     1      -1.214   4.795  24.639  0.00  0.00    -0.306 NA
ATOM     23  H   UNL     1      -0.672   5.552  25.053  0.00  0.00    +0.123 HD
BRANCH   5  10
ATOM      6  N   UNL     1      -0.459   0.692  25.475  0.00  0.00    -0.316 NA
ATOM     10  C   UNL     1      -0.483   3.537  24.770  0.00  0.00    +0.056 C 
ATOM     13  C   UNL     1      -0.512   3.055  26.225  0.00  0.00    +0.034 C 
ATOM     14  C   UNL     1      -1.068   2.461  23.847  0.00  0.00    +0.034 C 
ATOM     15  C   UNL     1       0.155   1.686  26.359  0.00  0.00    +0.082 C 
ATOM     16  C   UNL     1      -0.380   1.115  24.075  0.00  0.00    +0.082 C 
ATOM     24  H   UNL     1       0.025  -0.199  25.584  0.00  0.00    +0.122 HD
ENDBRANCH   5  10
ENDBRANCH   8   5
BRANCH  11  17
ATOM     17  C   UNL     1      -5.577   2.650  24.846  0.00  0.00    +0.138 C 
BRANCH  17   7
ATOM      4  O   UNL     1      -3.842   1.043  23.218  0.00  0.00    -0.270 OA
ATOM      7  N   UNL     1      -5.083   1.339  25.155  0.00  0.00    -0.308 N 
ATOM     18  C   UNL     1      -4.242   0.630  24.304  0.00  0.00    +0.251 C 
ATOM     26  H   UNL     1      -5.387   0.929  26.032  0.00  0.00    +0.149 HD
BRANCH  18  19
ATOM      1  S   UNL     1      -4.070  -2.058  23.705  0.00  0.00    -0.092 S 
ATOM     19  C   UNL     1      -3.842  -0.727  24.758  0.00  0.00    +0.074 A 
ATOM     20  C   UNL     1      -3.283  -1.106  25.958  0.00  0.00    +0.021 A 
ATOM     21  C   UNL     1      -3.039  -2.509  26.015  0.00  0.00    +0.008 A 
ATOM     22  C   UNL     1      -3.421  -3.148  24.855  0.00  0.00    +0.046 A 
ENDBRANCH  18  19
ENDBRANCH  17   7
ENDBRANCH  11  17
TORSDOF 6
ENDMDL
MODEL 10
REMARK VINA RESULT:      -1.3      2.305      4.525
REMARK  Name = 75536594
REMARK  6 active torsions:
REMARK  status: ('A' for Active; 'I' for Inactive)
REMARK    1  A    between atoms: O_3  and  C_9
REMARK    2  A    between atoms: N_5  and  C_8
REMARK    3  A    between atoms: N_5  and  C_10
REMARK    4  A    between atoms: N_7  and  C_17
REMARK    5  A    between atoms: C_11  and  C_17
REMARK    6  A    between atoms: C_18  and  C_19
REMARK                            x       y       z     vdW  Elec       q    Type
REMARK                         _______ _______ _______ _____ _____    ______ ____
ROOT
ATOM      2  O   UNL     1      -5.500   0.618  25.709  0.00  0.00    -0.371 OA
ATOM      8  C   UNL     1      -4.960   2.736  24.781  0.00  0.00    +0.111 C 
ATOM      9  C   UNL     1      -3.982   1.701  24.255  0.00  0.00    +0.164 C 
ATOM     11  C   UNL     1      -4.759   0.414  24.494  0.00  0.00    +0.165 C 
ATOM     12  C   UNL     1      -5.522   2.026  26.001  0.00  0.00    +0.181 C 
ENDROOT
BRANCH   9   3
ATOM      3  O   UNL     1      -3.675   1.886  22.887  0.00  0.00    -0.388 OA
ATOM     25  H   UNL     1      -4.507   1.887  22.384  0.00  0.00    +0.210 HD
ENDBRANCH   9   3
BRANCH   8   5
ATOM      5  N   UNL     1      -4.343   4.012  25.103  0.00  0.00    -0.306 NA
ATOM     23  H   UNL     1      -4.531   4.257  26.075  0.00  0.00    +0.123 HD
BRANCH   5  10
ATOM      6  N   UNL     1      -0.186   4.674  25.724  0.00  0.00    -0.316 NA
ATOM     10  C   UNL     1      -2.900   3.962  24.878  0.00  0.00    +0.056 C 
ATOM     13  C   UNL     1      -2.339   5.378  24.713  0.00  0.00    +0.034 C 
ATOM     14  C   UNL     1      -2.188   3.243  26.031  0.00  0.00    +0.034 C 
ATOM     15  C   UNL     1      -0.815   5.348  24.585  0.00  0.00    +0.082 C 
ATOM     16  C   UNL     1      -0.671   3.298  25.852  0.00  0.00    +0.082 C 
ATOM     24  H   UNL     1       0.825   4.663  25.591  0.00  0.00    +0.122 HD
ENDBRANCH   5  10
ENDBRANCH   8   5
BRANCH  11  17
ATOM     17  C   UNL     1      -3.870  -0.808  24.633  0.00  0.00    +0.138 C 
BRANCH  17   7
ATOM      4  O   UNL     1      -1.423  -0.275  26.036  0.00  0.00    -0.270 OA
ATOM      7  N   UNL     1      -2.579  -0.584  24.049  0.00  0.00    -0.308 N 
ATOM     18  C   UNL     1      -1.442  -0.333  24.809  0.00  0.00    +0.251 C 
ATOM     26  H   UNL     1      -2.524  -0.602  23.036  0.00  0.00    +0.149 HD
BRANCH  18  19
ATOM      1  S   UNL     1       0.621   1.405  24.229  0.00  0.00    -0.092 S 
ATOM     19  C   UNL     1      -0.186  -0.095  24.052  0.00  0.00    +0.074 A 
ATOM     20  C   UNL     1       0.471  -0.936  23.182  0.00  0.00    +0.021 A 
ATOM     21  C   UNL     1       1.653  -0.342  22.652  0.00  0.00    +0.008 A 
ATOM     22  C   UNL     1       1.854   0.931  23.138  0.00  0.00    +0.046 A 
ENDBRANCH  18  19
ENDBRANCH  17   7
ENDBRANCH  11  17
TORSDOF 6
ENDMDL
