MODEL 1
REMARK VINA RESULT:      11.3      0.000      0.000
REMARK  Name = 45783529
REMARK  6 active torsions:
REMARK  status: ('A' for Active; 'I' for Inactive)
REMARK    1  A    between atoms: N_3  and  C_15
REMARK    2  A    between atoms: C_10  and  C_20
REMARK    3  A    between atoms: C_14  and  C_23
REMARK    4  A    between atoms: C_15  and  C_21
REMARK    5  A    between atoms: C_24  and  C_26
REMARK    6  A    between atoms: C_33  and  C_34
REMARK                            x       y       z     vdW  Elec       q    Type
REMARK                         _______ _______ _______ _____ _____    ______ ____
ROOT
ATOM      1  O   UNL     1      -3.586   2.654  22.361  0.00  0.00    -0.336 OA
ATOM      5  N   UNL     1      -2.595   2.100  24.292  0.00  0.00    -0.190 NA
ATOM      6  N   UNL     1      -2.304   2.197  22.025  0.00  0.00    -0.056 NA
ATOM     20  C   UNL     1      -3.673   2.564  23.714  0.00  0.00    +0.245 A 
ATOM     24  C   UNL     1      -1.782   1.890  23.216  0.00  0.00    +0.204 A 
ENDROOT
BRANCH  24  26
ATOM      4  N   UNL     1       3.407  -0.033  23.770  0.00  0.00    -0.315 N 
ATOM      7  N   UNL     1       1.931   1.732  23.208  0.00  0.00    -0.240 NA
ATOM     14  C   UNL     1       6.131  -0.989  24.081  0.00  0.00    +0.078 C 
ATOM     16  C   UNL     1       4.991  -1.919  23.674  0.00  0.00    +0.031 C 
ATOM     17  C   UNL     1       5.608   0.229  24.841  0.00  0.00    +0.031 C 
ATOM     18  C   UNL     1       3.830  -1.197  22.987  0.00  0.00    +0.107 C 
ATOM     19  C   UNL     1       4.458   0.930  24.120  0.00  0.00    +0.107 C 
ATOM     22  C   UNL     1       2.104   0.458  23.628  0.00  0.00    +0.121 A 
ATOM     25  C   UNL     1       1.064  -0.406  23.931  0.00  0.00    +0.044 A 
ATOM     26  C   UNL     1      -0.454   1.373  23.366  0.00  0.00    +0.041 A 
ATOM     29  C   UNL     1      -0.237   0.069  23.795  0.00  0.00    +0.016 A 
ATOM     30  C   UNL     1       0.654   2.157  23.088  0.00  0.00    +0.124 A 
BRANCH  14  23
ATOM      2  O   UNL     1       6.474  -0.541  21.758  0.00  0.00    -0.276 OA
ATOM      8  N   UNL     1       8.237  -0.220  23.200  0.00  0.00    -0.329 N 
ATOM     23  C   UNL     1       6.942  -0.560  22.894  0.00  0.00    +0.214 C 
ATOM     35  H   UNL     1       8.877   0.088  22.475  0.00  0.00    +0.145 HD
ATOM     36  H   UNL     1       8.623  -0.301  24.135  0.00  0.00    +0.145 HD
ENDBRANCH  14  23
ENDBRANCH  24  26
BRANCH  20  10
ATOM      3  N   UNL     1      -5.198   2.424  25.676  0.00  0.00    -0.287 NA
ATOM     10  C   UNL     1      -4.983   3.004  24.335  0.00  0.00    +0.146 C 
ATOM     11  C   UNL     1      -5.057   4.526  24.551  0.00  0.00    +0.030 C 
ATOM     12  C   UNL     1      -5.377   4.704  26.028  0.00  0.00    +0.017 C 
ATOM     13  C   UNL     1      -6.016   3.385  26.415  0.00  0.00    +0.085 C 
BRANCH   3  15
ATOM     15  C   UNL     1      -5.807   1.100  25.639  0.00  0.00    +0.120 C 
BRANCH  15  21
ATOM     21  C   UNL     1      -4.815   0.037  25.249  0.00  0.00    -0.033 A 
ATOM     27  C   UNL     1      -3.783  -0.307  26.122  0.00  0.00    +0.006 A 
ATOM     28  C   UNL     1      -4.927  -0.602  24.015  0.00  0.00    +0.006 A 
ATOM     31  C   UNL     1      -2.863  -1.291  25.760  0.00  0.00    +0.019 A 
ATOM     32  C   UNL     1      -4.007  -1.586  23.653  0.00  0.00    +0.019 A 
ATOM     33  C   UNL     1      -2.975  -1.931  24.526  0.00  0.00    +0.052 A 
BRANCH  33  34
ATOM      9  N   UNL     1      -1.268  -3.759  23.854  0.00  0.00    -0.191 NA
ATOM     34  C   UNL     1      -2.033  -2.939  24.156  0.00  0.00    +0.099 C 
ENDBRANCH  33  34
ENDBRANCH  15  21
ENDBRANCH   3  15
ENDBRANCH  20  10
TORSDOF 6
ENDMDL
MODEL 2
REMARK VINA RESULT:      13.0      1.390      1.935
REMARK  Name = 45783529
REMARK  6 active torsions:
REMARK  status: ('A' for Active; 'I' for Inactive)
REMARK    1  A    between atoms: N_3  and  C_15
REMARK    2  A    between atoms: C_10  and  C_20
REMARK    3  A    between atoms: C_14  and  C_23
REMARK    4  A    between atoms: C_15  and  C_21
REMARK    5  A    between atoms: C_24  and  C_26
REMARK    6  A    between atoms: C_33  and  C_34
REMARK                            x       y       z     vdW  Elec       q    Type
REMARK                         _______ _______ _______ _____ _____    ______ ____
ROOT
ATOM      1  O   UNL     1      -3.781   4.362  24.323  0.00  0.00    -0.336 OA
ATOM      5  N   UNL     1      -3.183   2.205  24.412  0.00  0.00    -0.190 NA
ATOM      6  N   UNL     1      -2.408   4.326  24.047  0.00  0.00    -0.056 NA
ATOM     20  C   UNL     1      -4.157   3.072  24.526  0.00  0.00    +0.245 A 
ATOM     24  C   UNL     1      -2.129   3.021  24.118  0.00  0.00    +0.204 A 
ENDROOT
BRANCH  24  26
ATOM      4  N   UNL     1       2.948   0.912  23.283  0.00  0.00    -0.315 N 
ATOM      7  N   UNL     1       0.625   0.580  23.599  0.00  0.00    -0.240 NA
ATOM     14  C   UNL     1       5.578  -0.225  22.811  0.00  0.00    +0.078 C 
ATOM     16  C   UNL     1       5.387   1.063  23.609  0.00  0.00    +0.031 C 
ATOM     17  C   UNL     1       4.409  -0.465  21.857  0.00  0.00    +0.031 C 
ATOM     18  C   UNL     1       4.008   1.178  24.261  0.00  0.00    +0.107 C 
ATOM     19  C   UNL     1       3.049  -0.353  22.545  0.00  0.00    +0.107 C 
ATOM     22  C   UNL     1       1.667   1.435  23.493  0.00  0.00    +0.121 A 
ATOM     25  C   UNL     1       1.551   2.813  23.580  0.00  0.00    +0.044 A 
ATOM     26  C   UNL     1      -0.812   2.500  23.903  0.00  0.00    +0.041 A 
ATOM     29  C   UNL     1       0.284   3.347  23.788  0.00  0.00    +0.016 A 
ATOM     30  C   UNL     1      -0.590   1.136  23.802  0.00  0.00    +0.124 A 
BRANCH  14  23
ATOM      2  O   UNL     1       5.494  -2.551  23.360  0.00  0.00    -0.276 OA
ATOM      8  N   UNL     1       6.264  -1.083  24.956  0.00  0.00    -0.329 N 
ATOM     23  C   UNL     1       5.773  -1.408  23.714  0.00  0.00    +0.214 C 
ATOM     35  H   UNL     1       6.437  -1.804  25.649  0.00  0.00    +0.145 HD
ATOM     36  H   UNL     1       6.430  -0.127  25.251  0.00  0.00    +0.145 HD
ENDBRANCH  14  23
ENDBRANCH  24  26
BRANCH  20  10
ATOM      3  N   UNL     1      -5.831   1.654  25.701  0.00  0.00    -0.287 NA
ATOM     10  C   UNL     1      -5.619   2.838  24.844  0.00  0.00    +0.146 C 
ATOM     11  C   UNL     1      -6.251   4.004  25.625  0.00  0.00    +0.030 C 
ATOM     12  C   UNL     1      -6.845   3.371  26.875  0.00  0.00    +0.017 C 
ATOM     13  C   UNL     1      -7.039   1.920  26.482  0.00  0.00    +0.085 C 
BRANCH   3  15
ATOM     15  C   UNL     1      -5.927   0.409  24.949  0.00  0.00    +0.120 C 
BRANCH  15  21
ATOM     21  C   UNL     1      -4.639  -0.369  24.986  0.00  0.00    -0.033 A 
ATOM     27  C   UNL     1      -3.817  -0.302  26.110  0.00  0.00    +0.006 A 
ATOM     28  C   UNL     1      -4.268  -1.156  23.896  0.00  0.00    +0.006 A 
ATOM     31  C   UNL     1      -2.622  -1.023  26.145  0.00  0.00    +0.019 A 
ATOM     32  C   UNL     1      -3.074  -1.876  23.930  0.00  0.00    +0.019 A 
ATOM     33  C   UNL     1      -2.251  -1.809  25.055  0.00  0.00    +0.052 A 
BRANCH  33  34
ATOM      9  N   UNL     1      -0.035  -3.147  25.119  0.00  0.00    -0.191 NA
ATOM     34  C   UNL     1      -1.028  -2.548  25.090  0.00  0.00    +0.099 C 
ENDBRANCH  33  34
ENDBRANCH  15  21
ENDBRANCH   3  15
ENDBRANCH  20  10
TORSDOF 6
ENDMDL
MODEL 3
REMARK VINA RESULT:      14.0     13.437     15.300
REMARK  Name = 45783529
REMARK  6 active torsions:
REMARK  status: ('A' for Active; 'I' for Inactive)
REMARK    1  A    between atoms: N_3  and  C_15
REMARK    2  A    between atoms: C_10  and  C_20
REMARK    3  A    between atoms: C_14  and  C_23
REMARK    4  A    between atoms: C_15  and  C_21
REMARK    5  A    between atoms: C_24  and  C_26
REMARK    6  A    between atoms: C_33  and  C_34
REMARK                            x       y       z     vdW  Elec       q    Type
REMARK                         _______ _______ _______ _____ _____    ______ ____
ROOT
ATOM      1  O   UNL     1      -4.389  -9.536   9.937  0.00  0.00    -0.336 OA
ATOM      5  N   UNL     1      -3.367  -9.830  11.909  0.00  0.00    -0.190 NA
ATOM      6  N   UNL     1      -3.136  -8.919   9.823  0.00  0.00    -0.056 NA
ATOM     20  C   UNL     1      -4.444 -10.046  11.196  0.00  0.00    +0.245 A 
ATOM     24  C   UNL     1      -2.594  -9.135  11.025  0.00  0.00    +0.204 A 
ENDROOT
BRANCH  24  26
ATOM      4  N   UNL     1       2.515  -7.343  12.295  0.00  0.00    -0.315 N 
ATOM      7  N   UNL     1       0.981  -8.175  10.694  0.00  0.00    -0.240 NA
ATOM     14  C   UNL     1       5.184  -6.380  12.911  0.00  0.00    +0.078 C 
ATOM     16  C   UNL     1       4.337  -7.124  13.941  0.00  0.00    +0.031 C 
ATOM     17  C   UNL     1       4.309  -5.718  11.848  0.00  0.00    +0.031 C 
ATOM     18  C   UNL     1       3.293  -8.051  13.316  0.00  0.00    +0.107 C 
ATOM     19  C   UNL     1       3.287  -6.676  11.240  0.00  0.00    +0.107 C 
ATOM     22  C   UNL     1       1.232  -7.796  11.968  0.00  0.00    +0.121 A 
ATOM     25  C   UNL     1       0.291  -7.825  12.985  0.00  0.00    +0.044 A 
ATOM     26  C   UNL     1      -1.285  -8.670  11.376  0.00  0.00    +0.041 A 
ATOM     29  C   UNL     1      -0.989  -8.272  12.674  0.00  0.00    +0.016 A 
ATOM     30  C   UNL     1      -0.273  -8.603  10.430  0.00  0.00    +0.124 A 
BRANCH  14  23
ATOM      2  O   UNL     1       6.155  -8.507  12.411  0.00  0.00    -0.276 OA
ATOM      8  N   UNL     1       7.157  -6.623  11.549  0.00  0.00    -0.329 N 
ATOM     23  C   UNL     1       6.195  -7.287  12.272  0.00  0.00    +0.214 C 
ATOM     35  H   UNL     1       7.891  -7.136  11.071  0.00  0.00    +0.145 HD
ATOM     36  H   UNL     1       7.209  -5.611  11.497  0.00  0.00    +0.145 HD
ENDBRANCH  14  23
ENDBRANCH  24  26
BRANCH  20  10
ATOM      3  N   UNL     1      -6.409 -10.151  12.718  0.00  0.00    -0.287 NA
ATOM     10  C   UNL     1      -5.716 -10.775  11.574  0.00  0.00    +0.146 C 
ATOM     11  C   UNL     1      -6.758 -10.780  10.440  0.00  0.00    +0.030 C 
ATOM     12  C   UNL     1      -8.021 -10.196  11.058  0.00  0.00    +0.017 C 
ATOM     13  C   UNL     1      -7.834 -10.434  12.543  0.00  0.00    +0.085 C 
BRANCH   3  15
ATOM     15  C   UNL     1      -5.914 -10.610  14.010  0.00  0.00    +0.120 C 
BRANCH  15  21
ATOM     21  C   UNL     1      -6.924 -10.390  15.106  0.00  0.00    -0.033 A 
ATOM     27  C   UNL     1      -8.267 -10.692  14.887  0.00  0.00    +0.006 A 
ATOM     28  C   UNL     1      -6.515  -9.884  16.340  0.00  0.00    +0.006 A 
ATOM     31  C   UNL     1      -9.202 -10.489  15.902  0.00  0.00    +0.019 A 
ATOM     32  C   UNL     1      -7.449  -9.680  17.354  0.00  0.00    +0.019 A 
ATOM     33  C   UNL     1      -8.793  -9.982  17.135  0.00  0.00    +0.052 A 
BRANCH  33  34
ATOM      9  N   UNL     1     -10.528  -9.605  19.020  0.00  0.00    -0.191 NA
ATOM     34  C   UNL     1      -9.751  -9.774  18.175  0.00  0.00    +0.099 C 
ENDBRANCH  33  34
ENDBRANCH  15  21
ENDBRANCH   3  15
ENDBRANCH  20  10
TORSDOF 6
ENDMDL
