MODEL 1
REMARK VINA RESULT:       0.9      0.000      0.000
REMARK  Name = 40776957
REMARK  14 active torsions:
REMARK  status: ('A' for Active; 'I' for Inactive)
REMARK    1  A    between atoms: S_1  and  C_27
REMARK    2  A    between atoms: S_1  and  C_34
REMARK    3  A    between atoms: O_3  and  C_35
REMARK    4  A    between atoms: N_6  and  C_17
REMARK    5  A    between atoms: C_11  and  C_18
REMARK    6  A    between atoms: C_12  and  C_17
REMARK    7  A    between atoms: C_20  and  C_21
REMARK    8  A    between atoms: C_21  and  C_24
REMARK    9  A    between atoms: C_21  and  C_25
REMARK   10  A    between atoms: C_22  and  C_26
REMARK   11  A    between atoms: C_23  and  C_27
REMARK   12  A    between atoms: C_24  and  C_28
REMARK   13  A    between atoms: C_25  and  C_29
REMARK   14  A    between atoms: C_34  and  C_35
REMARK                            x       y       z     vdW  Elec       q    Type
REMARK                         _______ _______ _______ _____ _____    ______ ____
ROOT
ATOM      5  N   UNL     1      -3.198  -2.081  26.228  0.00  0.00    -0.297 NA
ATOM     10  C   UNL     1      -2.351  -1.943  23.769  0.00  0.00    +0.002 C 
ATOM     11  C   UNL     1      -1.215  -1.559  24.757  0.00  0.00    +0.055 C 
ATOM     12  C   UNL     1      -4.149  -1.287  25.406  0.00  0.00    +0.074 C 
ATOM     13  C   UNL     1      -3.565  -1.020  24.002  0.00  0.00    +0.024 C 
ATOM     14  C   UNL     1      -2.793  -3.376  24.135  0.00  0.00    +0.019 C 
ATOM     15  C   UNL     1      -1.847  -1.468  26.175  0.00  0.00    +0.094 C 
ATOM     16  C   UNL     1      -3.112  -3.439  25.639  0.00  0.00    +0.085 C 
ENDROOT
BRANCH  11  18
ATOM      7  N   UNL     1      -0.867   0.862  24.747  0.00  0.00    -0.232 NA
ATOM      8  N   UNL     1       1.138   1.868  23.868  0.00  0.00    -0.232 NA
ATOM     18  C   UNL     1      -0.356  -0.346  24.428  0.00  0.00    +0.050 A 
ATOM     19  C   UNL     1       0.877  -0.524  23.837  0.00  0.00    +0.047 A 
ATOM     20  C   UNL     1       1.588   0.629  23.576  0.00  0.00    +0.048 A 
ATOM     22  C   UNL     1      -0.079   1.911  24.444  0.00  0.00    +0.160 A 
BRANCH  22  26
ATOM      9  N   UNL     1      -1.590   5.751  25.394  0.00  0.00    -0.263 NA
ATOM     26  C   UNL     1      -0.592   3.216  24.766  0.00  0.00    +0.022 A 
ATOM     30  C   UNL     1      -0.125   4.337  24.090  0.00  0.00    +0.031 A 
ATOM     31  C   UNL     1      -1.557   3.360  25.757  0.00  0.00    +0.031 A 
ATOM     32  C   UNL     1      -0.650   5.571  24.438  0.00  0.00    +0.111 A 
ATOM     33  C   UNL     1      -2.019   4.638  26.030  0.00  0.00    +0.111 A 
ENDBRANCH  22  26
BRANCH  20  21
ATOM     21  C   UNL     1       2.932   0.535  22.938  0.00  0.00    +0.037 C 
BRANCH  21  24
ATOM     24  C   UNL     1       3.913  -0.389  23.719  0.00  0.00    +0.006 C 
ATOM     28  C   UNL     1       5.377  -0.051  23.461  0.00  0.00    +0.004 C 
ENDBRANCH  21  24
BRANCH  21  25
ATOM     25  C   UNL     1       2.874   0.059  21.458  0.00  0.00    +0.006 C 
ATOM     29  C   UNL     1       1.528  -0.554  21.086  0.00  0.00    +0.004 C 
ENDBRANCH  21  25
ENDBRANCH  20  21
ENDBRANCH  11  18
BRANCH  12  17
ATOM     17  C   UNL     1      -4.580   0.007  26.101  0.00  0.00    +0.123 C 
BRANCH  17   6
ATOM      2  O   UNL     1      -5.870   2.551  26.590  0.00  0.00    -0.275 OA
ATOM      6  N   UNL     1      -4.873   1.027  25.143  0.00  0.00    -0.313 N 
ATOM     23  C   UNL     1      -5.499   2.230  25.462  0.00  0.00    +0.223 C 
ATOM     36  H   UNL     1      -4.686   0.823  24.165  0.00  0.00    +0.149 HD
BRANCH  23  27
ATOM     27  C   UNL     1      -5.712   3.133  24.269  0.00  0.00    +0.165 C 
BRANCH  27   1
ATOM      1  S   UNL     1      -4.156   3.971  23.883  0.00  0.00    -0.140 S 
BRANCH   1  34
ATOM     34  C   UNL     1      -3.985   3.441  22.162  0.00  0.00    +0.189 C 
BRANCH  34  35
ATOM      4  O   UNL     1      -2.978   1.404  22.967  0.00  0.00    -0.250 OA
ATOM     35  C   UNL     1      -3.062   2.257  22.094  0.00  0.00    +0.315 C 
BRANCH  35   3
ATOM      3  O   UNL     1      -2.338   2.225  20.947  0.00  0.00    -0.480 OA
ATOM     37  H   UNL     1      -2.683   2.855  20.279  0.00  0.00    +0.295 HD
ENDBRANCH  35   3
ENDBRANCH  34  35
ENDBRANCH   1  34
ENDBRANCH  27   1
ENDBRANCH  23  27
ENDBRANCH  17   6
ENDBRANCH  12  17
TORSDOF 12
ENDMDL
MODEL 2
REMARK VINA RESULT:       1.9      1.231      2.221
REMARK  Name = 40776957
REMARK  14 active torsions:
REMARK  status: ('A' for Active; 'I' for Inactive)
REMARK    1  A    between atoms: S_1  and  C_27
REMARK    2  A    between atoms: S_1  and  C_34
REMARK    3  A    between atoms: O_3  and  C_35
REMARK    4  A    between atoms: N_6  and  C_17
REMARK    5  A    between atoms: C_11  and  C_18
REMARK    6  A    between atoms: C_12  and  C_17
REMARK    7  A    between atoms: C_20  and  C_21
REMARK    8  A    between atoms: C_21  and  C_24
REMARK    9  A    between atoms: C_21  and  C_25
REMARK   10  A    between atoms: C_22  and  C_26
REMARK   11  A    between atoms: C_23  and  C_27
REMARK   12  A    between atoms: C_24  and  C_28
REMARK   13  A    between atoms: C_25  and  C_29
REMARK   14  A    between atoms: C_34  and  C_35
REMARK                            x       y       z     vdW  Elec       q    Type
REMARK                         _______ _______ _______ _____ _____    ______ ____
ROOT
ATOM      5  N   UNL     1      -3.297  -1.997  26.114  0.00  0.00    -0.297 NA
ATOM     10  C   UNL     1      -2.309  -2.188  23.712  0.00  0.00    +0.002 C 
ATOM     11  C   UNL     1      -1.211  -1.745  24.718  0.00  0.00    +0.055 C 
ATOM     12  C   UNL     1      -4.157  -1.261  25.151  0.00  0.00    +0.074 C 
ATOM     13  C   UNL     1      -3.483  -1.188  23.764  0.00  0.00    +0.024 C 
ATOM     14  C   UNL     1      -2.848  -3.546  24.212  0.00  0.00    +0.019 C 
ATOM     15  C   UNL     1      -1.915  -1.459  26.075  0.00  0.00    +0.094 C 
ATOM     16  C   UNL     1      -3.252  -3.417  25.691  0.00  0.00    +0.085 C 
ENDROOT
BRANCH  11  18
ATOM      7  N   UNL     1      -0.673   0.637  24.584  0.00  0.00    -0.232 NA
ATOM      8  N   UNL     1       1.373   1.438  23.597  0.00  0.00    -0.232 NA
ATOM     18  C   UNL     1      -0.271  -0.621  24.306  0.00  0.00    +0.050 A 
ATOM     19  C   UNL     1       0.924  -0.924  23.686  0.00  0.00    +0.047 A 
ATOM     20  C   UNL     1       1.714   0.156  23.350  0.00  0.00    +0.048 A 
ATOM     22  C   UNL     1       0.185   1.604  24.207  0.00  0.00    +0.160 A 
BRANCH  22  26
ATOM      9  N   UNL     1      -0.984   5.592  25.023  0.00  0.00    -0.263 NA
ATOM     26  C   UNL     1      -0.212   2.960  24.484  0.00  0.00    +0.022 A 
ATOM     30  C   UNL     1       0.050   3.967  23.563  0.00  0.00    +0.031 A 
ATOM     31  C   UNL     1      -0.860   3.267  25.676  0.00  0.00    +0.031 A 
ATOM     32  C   UNL     1      -0.352   5.255  23.876  0.00  0.00    +0.111 A 
ATOM     33  C   UNL     1      -1.222   4.587  25.895  0.00  0.00    +0.111 A 
ENDBRANCH  22  26
BRANCH  20  21
ATOM     21  C   UNL     1       3.024  -0.074  22.675  0.00  0.00    +0.037 C 
BRANCH  21  24
ATOM     24  C   UNL     1       3.982   1.150  22.773  0.00  0.00    +0.006 C 
ATOM     28  C   UNL     1       5.278   0.830  23.509  0.00  0.00    +0.004 C 
ENDBRANCH  21  24
BRANCH  21  25
ATOM     25  C   UNL     1       3.770  -1.333  23.206  0.00  0.00    +0.006 C 
ATOM     29  C   UNL     1       4.961  -0.984  24.093  0.00  0.00    +0.004 C 
ENDBRANCH  21  25
ENDBRANCH  20  21
ENDBRANCH  11  18
BRANCH  12  17
ATOM     17  C   UNL     1      -4.556   0.124  25.666  0.00  0.00    +0.123 C 
BRANCH  17   6
ATOM      2  O   UNL     1      -5.735   1.893  23.701  0.00  0.00    -0.275 OA
ATOM      6  N   UNL     1      -3.898   1.153  24.922  0.00  0.00    -0.313 N 
ATOM     23  C   UNL     1      -4.542   1.965  23.990  0.00  0.00    +0.223 C 
ATOM     36  H   UNL     1      -2.891   1.237  25.023  0.00  0.00    +0.149 HD
BRANCH  23  27
ATOM     27  C   UNL     1      -3.624   2.964  23.326  0.00  0.00    +0.165 C 
BRANCH  27   1
ATOM      1  S   UNL     1      -4.034   4.623  23.919  0.00  0.00    -0.140 S 
BRANCH   1  34
ATOM     34  C   UNL     1      -4.316   4.225  25.660  0.00  0.00    +0.189 C 
BRANCH  34  35
ATOM      4  O   UNL     1      -6.571   5.077  25.694  0.00  0.00    -0.250 OA
ATOM     35  C   UNL     1      -5.793   4.160  25.924  0.00  0.00    +0.315 C 
BRANCH  35   3
ATOM      3  O   UNL     1      -6.181   2.964  26.436  0.00  0.00    -0.480 OA
ATOM     37  H   UNL     1      -6.185   2.970  27.417  0.00  0.00    +0.295 HD
ENDBRANCH  35   3
ENDBRANCH  34  35
ENDBRANCH   1  34
ENDBRANCH  27   1
ENDBRANCH  23  27
ENDBRANCH  17   6
ENDBRANCH  12  17
TORSDOF 12
ENDMDL
MODEL 3
REMARK VINA RESULT:       2.1      1.148      1.986
REMARK  Name = 40776957
REMARK  14 active torsions:
REMARK  status: ('A' for Active; 'I' for Inactive)
REMARK    1  A    between atoms: S_1  and  C_27
REMARK    2  A    between atoms: S_1  and  C_34
REMARK    3  A    between atoms: O_3  and  C_35
REMARK    4  A    between atoms: N_6  and  C_17
REMARK    5  A    between atoms: C_11  and  C_18
REMARK    6  A    between atoms: C_12  and  C_17
REMARK    7  A    between atoms: C_20  and  C_21
REMARK    8  A    between atoms: C_21  and  C_24
REMARK    9  A    between atoms: C_21  and  C_25
REMARK   10  A    between atoms: C_22  and  C_26
REMARK   11  A    between atoms: C_23  and  C_27
REMARK   12  A    between atoms: C_24  and  C_28
REMARK   13  A    between atoms: C_25  and  C_29
REMARK   14  A    between atoms: C_34  and  C_35
REMARK                            x       y       z     vdW  Elec       q    Type
REMARK                         _______ _______ _______ _____ _____    ______ ____
ROOT
ATOM      5  N   UNL     1      -3.797  -1.602  25.825  0.00  0.00    -0.297 NA
ATOM     10  C   UNL     1      -1.832  -2.504  24.374  0.00  0.00    +0.002 C 
ATOM     11  C   UNL     1      -1.340  -1.362  25.305  0.00  0.00    +0.055 C 
ATOM     12  C   UNL     1      -4.202  -1.651  24.396  0.00  0.00    +0.074 C 
ATOM     13  C   UNL     1      -2.992  -1.985  23.498  0.00  0.00    +0.024 C 
ATOM     14  C   UNL     1      -2.412  -3.605  25.288  0.00  0.00    +0.019 C 
ATOM     15  C   UNL     1      -2.596  -0.745  25.984  0.00  0.00    +0.094 C 
ATOM     16  C   UNL     1      -3.441  -2.979  26.244  0.00  0.00    +0.085 C 
ENDROOT
BRANCH  11  18
ATOM      7  N   UNL     1      -0.797   0.984  24.880  0.00  0.00    -0.232 NA
ATOM      8  N   UNL     1       1.188   1.648  23.689  0.00  0.00    -0.232 NA
ATOM     18  C   UNL     1      -0.420  -0.301  24.717  0.00  0.00    +0.050 A 
ATOM     19  C   UNL     1       0.732  -0.685  24.062  0.00  0.00    +0.047 A 
ATOM     20  C   UNL     1       1.505   0.342  23.562  0.00  0.00    +0.048 A 
ATOM     22  C   UNL     1       0.041   1.894  24.349  0.00  0.00    +0.160 A 
BRANCH  22  26
ATOM      9  N   UNL     1      -1.051   5.962  24.793  0.00  0.00    -0.263 NA
ATOM     26  C   UNL     1      -0.330   3.277  24.500  0.00  0.00    +0.022 A 
ATOM     30  C   UNL     1      -1.044   3.690  25.619  0.00  0.00    +0.031 A 
ATOM     31  C   UNL     1       0.024   4.204  23.526  0.00  0.00    +0.031 A 
ATOM     32  C   UNL     1      -1.378   5.031  25.717  0.00  0.00    +0.111 A 
ATOM     33  C   UNL     1      -0.356   5.523  23.719  0.00  0.00    +0.111 A 
ENDBRANCH  22  26
BRANCH  20  21
ATOM     21  C   UNL     1       2.770   0.024  22.839  0.00  0.00    +0.037 C 
BRANCH  21  24
ATOM     24  C   UNL     1       2.552  -0.241  21.319  0.00  0.00    +0.006 C 
ATOM     28  C   UNL     1       1.127  -0.668  20.991  0.00  0.00    +0.004 C 
ENDBRANCH  21  24
BRANCH  21  25
ATOM     25  C   UNL     1       3.859   1.124  23.000  0.00  0.00    +0.006 C 
ATOM     29  C   UNL     1       5.176   0.577  23.541  0.00  0.00    +0.004 C 
ENDBRANCH  21  25
ENDBRANCH  20  21
ENDBRANCH  11  18
BRANCH  12  17
ATOM     17  C   UNL     1      -4.911  -0.371  23.946  0.00  0.00    +0.123 C 
BRANCH  17   6
ATOM      2  O   UNL     1      -6.933   1.645  24.417  0.00  0.00    -0.275 OA
ATOM      6  N   UNL     1      -4.943   0.592  25.002  0.00  0.00    -0.313 N 
ATOM     23  C   UNL     1      -5.959   1.533  25.158  0.00  0.00    +0.223 C 
ATOM     36  H   UNL     1      -4.138   0.641  25.619  0.00  0.00    +0.149 HD
BRANCH  23  27
ATOM     27  C   UNL     1      -5.752   2.450  26.342  0.00  0.00    +0.165 C 
BRANCH  27   1
ATOM      1  S   UNL     1      -4.250   3.421  26.077  0.00  0.00    -0.140 S 
BRANCH   1  34
ATOM     34  C   UNL     1      -4.657   4.110  24.455  0.00  0.00    +0.189 C 
BRANCH  34  35
ATOM      4  O   UNL     1      -4.026   3.576  22.191  0.00  0.00    -0.250 OA
ATOM     35  C   UNL     1      -3.930   3.343  23.389  0.00  0.00    +0.315 C 
BRANCH  35   3
ATOM      3  O   UNL     1      -3.136   2.366  23.897  0.00  0.00    -0.480 OA
ATOM     37  H   UNL     1      -3.109   1.577  23.314  0.00  0.00    +0.295 HD
ENDBRANCH  35   3
ENDBRANCH  34  35
ENDBRANCH   1  34
ENDBRANCH  27   1
ENDBRANCH  23  27
ENDBRANCH  17   6
ENDBRANCH  12  17
TORSDOF 12
ENDMDL
MODEL 4
REMARK VINA RESULT:       2.4      2.935      4.750
REMARK  Name = 40776957
REMARK  14 active torsions:
REMARK  status: ('A' for Active; 'I' for Inactive)
REMARK    1  A    between atoms: S_1  and  C_27
REMARK    2  A    between atoms: S_1  and  C_34
REMARK    3  A    between atoms: O_3  and  C_35
REMARK    4  A    between atoms: N_6  and  C_17
REMARK    5  A    between atoms: C_11  and  C_18
REMARK    6  A    between atoms: C_12  and  C_17
REMARK    7  A    between atoms: C_20  and  C_21
REMARK    8  A    between atoms: C_21  and  C_24
REMARK    9  A    between atoms: C_21  and  C_25
REMARK   10  A    between atoms: C_22  and  C_26
REMARK   11  A    between atoms: C_23  and  C_27
REMARK   12  A    between atoms: C_24  and  C_28
REMARK   13  A    between atoms: C_25  and  C_29
REMARK   14  A    between atoms: C_34  and  C_35
REMARK                            x       y       z     vdW  Elec       q    Type
REMARK                         _______ _______ _______ _____ _____    ______ ____
ROOT
ATOM      5  N   UNL     1      -5.025   2.903  23.806  0.00  0.00    -0.297 NA
ATOM     10  C   UNL     1      -3.889   3.227  26.128  0.00  0.00    +0.002 C 
ATOM     11  C   UNL     1      -2.873   3.497  24.983  0.00  0.00    +0.055 C 
ATOM     12  C   UNL     1      -5.297   1.727  24.674  0.00  0.00    +0.074 C 
ATOM     13  C   UNL     1      -4.467   1.805  25.973  0.00  0.00    +0.024 C 
ATOM     14  C   UNL     1      -5.058   4.216  25.927  0.00  0.00    +0.019 C 
ATOM     15  C   UNL     1      -3.561   3.090  23.649  0.00  0.00    +0.094 C 
ATOM     16  C   UNL     1      -5.574   4.103  24.482  0.00  0.00    +0.085 C 
ENDROOT
BRANCH  11  18
ATOM      7  N   UNL     1      -0.889   3.006  26.326  0.00  0.00    -0.232 NA
ATOM      8  N   UNL     1       1.036   1.885  25.411  0.00  0.00    -0.232 NA
ATOM     18  C   UNL     1      -1.473   2.915  25.113  0.00  0.00    +0.050 A 
ATOM     19  C   UNL     1      -0.874   2.330  24.017  0.00  0.00    +0.047 A 
ATOM     20  C   UNL     1       0.394   1.827  24.225  0.00  0.00    +0.048 A 
ATOM     22  C   UNL     1       0.347   2.478  26.403  0.00  0.00    +0.160 A 
BRANCH  22  26
ATOM      9  N   UNL     1       2.277   2.719  30.166  0.00  0.00    -0.263 NA
ATOM     26  C   UNL     1       1.003   2.560  27.682  0.00  0.00    +0.022 A 
ATOM     30  C   UNL     1       2.347   2.907  27.756  0.00  0.00    +0.031 A 
ATOM     31  C   UNL     1       0.294   2.291  28.848  0.00  0.00    +0.031 A 
ATOM     32  C   UNL     1       2.932   2.972  29.011  0.00  0.00    +0.111 A 
ATOM     33  C   UNL     1       0.972   2.384  30.053  0.00  0.00    +0.111 A 
ENDBRANCH  22  26
BRANCH  20  21
ATOM     21  C   UNL     1       1.120   1.176  23.097  0.00  0.00    +0.037 C 
BRANCH  21  24
ATOM     24  C   UNL     1       2.507   0.604  23.515  0.00  0.00    +0.006 C 
ATOM     28  C   UNL     1       3.650   1.133  22.657  0.00  0.00    +0.004 C 
ENDBRANCH  21  24
BRANCH  21  25
ATOM     25  C   UNL     1       0.300   0.042  22.416  0.00  0.00    +0.006 C 
ATOM     29  C   UNL     1       1.112  -0.741  21.390  0.00  0.00    +0.004 C 
ENDBRANCH  21  25
ENDBRANCH  20  21
ENDBRANCH  11  18
BRANCH  12  17
ATOM     17  C   UNL     1      -5.088   0.400  23.941  0.00  0.00    +0.123 C 
BRANCH  17   6
ATOM      2  O   UNL     1      -4.425  -2.346  23.310  0.00  0.00    -0.275 OA
ATOM      6  N   UNL     1      -4.372  -0.528  24.760  0.00  0.00    -0.313 N 
ATOM     23  C   UNL     1      -4.092  -1.838  24.379  0.00  0.00    +0.223 C 
ATOM     36  H   UNL     1      -4.128  -0.234  25.701  0.00  0.00    +0.149 HD
BRANCH  23  27
ATOM     27  C   UNL     1      -3.338  -2.622  25.429  0.00  0.00    +0.165 C 
BRANCH  27   1
ATOM      1  S   UNL     1      -2.837  -1.498  26.754  0.00  0.00    -0.140 S 
BRANCH   1  34
ATOM     34  C   UNL     1      -1.445  -0.701  25.919  0.00  0.00    +0.189 C 
BRANCH  34  35
ATOM      4  O   UNL     1      -0.916  -2.209  24.115  0.00  0.00    -0.250 OA
ATOM     35  C   UNL     1      -0.627  -1.741  25.209  0.00  0.00    +0.315 C 
BRANCH  35   3
ATOM      3  O   UNL     1       0.481  -2.100  25.904  0.00  0.00    -0.480 OA
ATOM     37  H   UNL     1       1.187  -1.420  25.845  0.00  0.00    +0.295 HD
ENDBRANCH  35   3
ENDBRANCH  34  35
ENDBRANCH   1  34
ENDBRANCH  27   1
ENDBRANCH  23  27
ENDBRANCH  17   6
ENDBRANCH  12  17
TORSDOF 12
ENDMDL
MODEL 5
REMARK VINA RESULT:       2.6      2.938      4.850
REMARK  Name = 40776957
REMARK  14 active torsions:
REMARK  status: ('A' for Active; 'I' for Inactive)
REMARK    1  A    between atoms: S_1  and  C_27
REMARK    2  A    between atoms: S_1  and  C_34
REMARK    3  A    between atoms: O_3  and  C_35
REMARK    4  A    between atoms: N_6  and  C_17
REMARK    5  A    between atoms: C_11  and  C_18
REMARK    6  A    between atoms: C_12  and  C_17
REMARK    7  A    between atoms: C_20  and  C_21
REMARK    8  A    between atoms: C_21  and  C_24
REMARK    9  A    between atoms: C_21  and  C_25
REMARK   10  A    between atoms: C_22  and  C_26
REMARK   11  A    between atoms: C_23  and  C_27
REMARK   12  A    between atoms: C_24  and  C_28
REMARK   13  A    between atoms: C_25  and  C_29
REMARK   14  A    between atoms: C_34  and  C_35
REMARK                            x       y       z     vdW  Elec       q    Type
REMARK                         _______ _______ _______ _____ _____    ______ ____
ROOT
ATOM      5  N   UNL     1      -4.609   3.065  23.927  0.00  0.00    -0.297 NA
ATOM     10  C   UNL     1      -2.824   4.540  25.121  0.00  0.00    +0.002 C 
ATOM     11  C   UNL     1      -2.141   3.545  24.142  0.00  0.00    +0.055 C 
ATOM     12  C   UNL     1      -4.841   3.056  25.396  0.00  0.00    +0.074 C 
ATOM     13  C   UNL     1      -3.679   3.752  26.136  0.00  0.00    +0.024 C 
ATOM     14  C   UNL     1      -3.795   5.396  24.279  0.00  0.00    +0.019 C 
ATOM     15  C   UNL     1      -3.241   2.574  23.627  0.00  0.00    +0.094 C 
ATOM     16  C   UNL     1      -4.709   4.468  23.460  0.00  0.00    +0.085 C 
ENDROOT
BRANCH  11  18
ATOM      7  N   UNL     1      -0.525   3.013  25.898  0.00  0.00    -0.232 NA
ATOM      8  N   UNL     1       1.324   1.513  25.532  0.00  0.00    -0.232 NA
ATOM     18  C   UNL     1      -0.897   2.809  24.618  0.00  0.00    +0.050 A 
ATOM     19  C   UNL     1      -0.219   1.982  23.746  0.00  0.00    +0.047 A 
ATOM     20  C   UNL     1       0.896   1.354  24.262  0.00  0.00    +0.048 A 
ATOM     22  C   UNL     1       0.578   2.344  26.284  0.00  0.00    +0.160 A 
BRANCH  22  26
ATOM      9  N   UNL     1       1.843   2.922  30.285  0.00  0.00    -0.263 NA
ATOM     26  C   UNL     1       1.008   2.540  27.644  0.00  0.00    +0.022 A 
ATOM     30  C   UNL     1       0.110   2.371  28.691  0.00  0.00    +0.031 A 
ATOM     31  C   UNL     1       2.323   2.901  27.914  0.00  0.00    +0.031 A 
ATOM     32  C   UNL     1       0.572   2.572  29.982  0.00  0.00    +0.111 A 
ATOM     33  C   UNL     1       2.687   3.077  29.240  0.00  0.00    +0.111 A 
ENDBRANCH  22  26
BRANCH  20  21
ATOM     21  C   UNL     1       1.692   0.440  23.393  0.00  0.00    +0.037 C 
BRANCH  21  24
ATOM     24  C   UNL     1       0.850  -0.200  22.250  0.00  0.00    +0.006 C 
ATOM     28  C   UNL     1       1.701  -0.645  21.066  0.00  0.00    +0.004 C 
ENDBRANCH  21  24
BRANCH  21  25
ATOM     25  C   UNL     1       2.940   1.128  22.765  0.00  0.00    +0.006 C 
ATOM     29  C   UNL     1       4.248   0.444  23.150  0.00  0.00    +0.004 C 
ENDBRANCH  21  25
ENDBRANCH  20  21
ENDBRANCH  11  18
BRANCH  12  17
ATOM     17  C   UNL     1      -5.101   1.648  25.937  0.00  0.00    +0.123 C 
BRANCH  17   6
ATOM      2  O   UNL     1      -3.809  -0.915  26.305  0.00  0.00    -0.275 OA
ATOM      6  N   UNL     1      -4.836   0.661  24.937  0.00  0.00    -0.313 N 
ATOM     23  C   UNL     1      -4.207  -0.554  25.199  0.00  0.00    +0.223 C 
ATOM     36  H   UNL     1      -5.046   0.899  23.972  0.00  0.00    +0.149 HD
BRANCH  23  27
ATOM     27  C   UNL     1      -4.027  -1.416  23.971  0.00  0.00    +0.165 C 
BRANCH  27   1
ATOM      1  S   UNL     1      -2.827  -2.718  24.339  0.00  0.00    -0.140 S 
BRANCH   1  34
ATOM     34  C   UNL     1      -1.310  -1.760  24.107  0.00  0.00    +0.189 C 
BRANCH  34  35
ATOM      4  O   UNL     1       0.344  -2.492  25.699  0.00  0.00    -0.250 OA
ATOM     35  C   UNL     1      -0.549  -1.710  25.400  0.00  0.00    +0.315 C 
BRANCH  35   3
ATOM      3  O   UNL     1      -0.947  -0.691  26.203  0.00  0.00    -0.480 OA
ATOM     37  H   UNL     1      -0.359   0.091  26.119  0.00  0.00    +0.295 HD
ENDBRANCH  35   3
ENDBRANCH  34  35
ENDBRANCH   1  34
ENDBRANCH  27   1
ENDBRANCH  23  27
ENDBRANCH  17   6
ENDBRANCH  12  17
TORSDOF 12
ENDMDL
MODEL 6
REMARK VINA RESULT:       2.8      1.066      4.165
REMARK  Name = 40776957
REMARK  14 active torsions:
REMARK  status: ('A' for Active; 'I' for Inactive)
REMARK    1  A    between atoms: S_1  and  C_27
REMARK    2  A    between atoms: S_1  and  C_34
REMARK    3  A    between atoms: O_3  and  C_35
REMARK    4  A    between atoms: N_6  and  C_17
REMARK    5  A    between atoms: C_11  and  C_18
REMARK    6  A    between atoms: C_12  and  C_17
REMARK    7  A    between atoms: C_20  and  C_21
REMARK    8  A    between atoms: C_21  and  C_24
REMARK    9  A    between atoms: C_21  and  C_25
REMARK   10  A    between atoms: C_22  and  C_26
REMARK   11  A    between atoms: C_23  and  C_27
REMARK   12  A    between atoms: C_24  and  C_28
REMARK   13  A    between atoms: C_25  and  C_29
REMARK   14  A    between atoms: C_34  and  C_35
REMARK                            x       y       z     vdW  Elec       q    Type
REMARK                         _______ _______ _______ _____ _____    ______ ____
ROOT
ATOM      5  N   UNL     1      -3.556  -2.056  25.966  0.00  0.00    -0.297 NA
ATOM     10  C   UNL     1      -2.445  -1.732  23.632  0.00  0.00    +0.002 C 
ATOM     11  C   UNL     1      -1.418  -1.458  24.765  0.00  0.00    +0.055 C 
ATOM     12  C   UNL     1      -4.401  -1.174  25.119  0.00  0.00    +0.074 C 
ATOM     13  C   UNL     1      -3.665  -0.804  23.813  0.00  0.00    +0.024 C 
ATOM     14  C   UNL     1      -2.944  -3.180  23.825  0.00  0.00    +0.019 C 
ATOM     15  C   UNL     1      -2.199  -1.472  26.111  0.00  0.00    +0.094 C 
ATOM     16  C   UNL     1      -3.425  -3.361  25.275  0.00  0.00    +0.085 C 
ENDROOT
BRANCH  11  18
ATOM      7  N   UNL     1       0.663  -0.427  24.000  0.00  0.00    -0.232 NA
ATOM      8  N   UNL     1       1.154   1.903  24.368  0.00  0.00    -0.232 NA
ATOM     18  C   UNL     1      -0.512  -0.241  24.636  0.00  0.00    +0.050 A 
ATOM     19  C   UNL     1      -0.919   0.970  25.157  0.00  0.00    +0.047 A 
ATOM     20  C   UNL     1      -0.037   2.018  24.992  0.00  0.00    +0.048 A 
ATOM     22  C   UNL     1       1.436   0.672  23.902  0.00  0.00    +0.160 A 
BRANCH  22  26
ATOM      9  N   UNL     1       5.156   0.200  21.933  0.00  0.00    -0.263 NA
ATOM     26  C   UNL     1       2.701   0.511  23.232  0.00  0.00    +0.022 A 
ATOM     30  C   UNL     1       2.741   0.292  21.861  0.00  0.00    +0.031 A 
ATOM     31  C   UNL     1       3.886   0.576  23.956  0.00  0.00    +0.031 A 
ATOM     32  C   UNL     1       3.982   0.143  21.263  0.00  0.00    +0.111 A 
ATOM     33  C   UNL     1       5.076   0.415  23.265  0.00  0.00    +0.111 A 
ENDBRANCH  22  26
BRANCH  20  21
ATOM     21  C   UNL     1      -0.391   3.366  25.523  0.00  0.00    +0.037 C 
BRANCH  21  24
ATOM     24  C   UNL     1      -0.911   4.336  24.421  0.00  0.00    +0.006 C 
ATOM     28  C   UNL     1      -0.550   5.792  24.696  0.00  0.00    +0.004 C 
ENDBRANCH  21  24
BRANCH  21  25
ATOM     25  C   UNL     1      -1.439   3.314  26.672  0.00  0.00    +0.006 C 
ATOM     29  C   UNL     1      -2.674   4.162  26.386  0.00  0.00    +0.004 C 
ENDBRANCH  21  25
ENDBRANCH  20  21
ENDBRANCH  11  18
BRANCH  12  17
ATOM     17  C   UNL     1      -4.887   0.066  25.871  0.00  0.00    +0.123 C 
BRANCH  17   6
ATOM      2  O   UNL     1      -5.887   2.704  26.519  0.00  0.00    -0.275 OA
ATOM      6  N   UNL     1      -5.063   1.169  24.978  0.00  0.00    -0.313 N 
ATOM     23  C   UNL     1      -5.552   2.412  25.373  0.00  0.00    +0.223 C 
ATOM     36  H   UNL     1      -4.898   1.005  23.989  0.00  0.00    +0.149 HD
BRANCH  23  27
ATOM     27  C   UNL     1      -5.661   3.404  24.237  0.00  0.00    +0.165 C 
BRANCH  27   1
ATOM      1  S   UNL     1      -4.014   4.055  23.868  0.00  0.00    -0.140 S 
BRANCH   1  34
ATOM     34  C   UNL     1      -3.890   3.512  22.147  0.00  0.00    +0.189 C 
BRANCH  34  35
ATOM      4  O   UNL     1      -2.667   1.612  22.986  0.00  0.00    -0.250 OA
ATOM     35  C   UNL     1      -2.928   2.362  22.055  0.00  0.00    +0.315 C 
BRANCH  35   3
ATOM      3  O   UNL     1      -2.386   2.232  20.818  0.00  0.00    -0.480 OA
ATOM     37  H   UNL     1      -1.742   2.947  20.623  0.00  0.00    +0.295 HD
ENDBRANCH  35   3
ENDBRANCH  34  35
ENDBRANCH   1  34
ENDBRANCH  27   1
ENDBRANCH  23  27
ENDBRANCH  17   6
ENDBRANCH  12  17
TORSDOF 12
ENDMDL
MODEL 7
REMARK VINA RESULT:       2.8      2.860      5.714
REMARK  Name = 40776957
REMARK  14 active torsions:
REMARK  status: ('A' for Active; 'I' for Inactive)
REMARK    1  A    between atoms: S_1  and  C_27
REMARK    2  A    between atoms: S_1  and  C_34
REMARK    3  A    between atoms: O_3  and  C_35
REMARK    4  A    between atoms: N_6  and  C_17
REMARK    5  A    between atoms: C_11  and  C_18
REMARK    6  A    between atoms: C_12  and  C_17
REMARK    7  A    between atoms: C_20  and  C_21
REMARK    8  A    between atoms: C_21  and  C_24
REMARK    9  A    between atoms: C_21  and  C_25
REMARK   10  A    between atoms: C_22  and  C_26
REMARK   11  A    between atoms: C_23  and  C_27
REMARK   12  A    between atoms: C_24  and  C_28
REMARK   13  A    between atoms: C_25  and  C_29
REMARK   14  A    between atoms: C_34  and  C_35
REMARK                            x       y       z     vdW  Elec       q    Type
REMARK                         _______ _______ _______ _____ _____    ______ ____
ROOT
ATOM      5  N   UNL     1      -4.544   3.192  23.623  0.00  0.00    -0.297 NA
ATOM     10  C   UNL     1      -3.695   3.436  26.073  0.00  0.00    +0.002 C 
ATOM     11  C   UNL     1      -2.526   3.640  25.070  0.00  0.00    +0.055 C 
ATOM     12  C   UNL     1      -5.001   2.035  24.437  0.00  0.00    +0.074 C 
ATOM     13  C   UNL     1      -4.339   2.054  25.831  0.00  0.00    +0.024 C 
ATOM     14  C   UNL     1      -4.762   4.499  25.736  0.00  0.00    +0.019 C 
ATOM     15  C   UNL     1      -3.063   3.282  23.655  0.00  0.00    +0.094 C 
ATOM     16  C   UNL     1      -5.095   4.424  24.236  0.00  0.00    +0.085 C 
ENDROOT
BRANCH  11  18
ATOM      7  N   UNL     1      -0.579   2.354  24.338  0.00  0.00    -0.232 NA
ATOM      8  N   UNL     1       1.198   1.743  25.845  0.00  0.00    -0.232 NA
ATOM     18  C   UNL     1      -1.194   2.966  25.371  0.00  0.00    +0.050 A 
ATOM     19  C   UNL     1      -0.683   3.010  26.651  0.00  0.00    +0.047 A 
ATOM     20  C   UNL     1       0.529   2.375  26.833  0.00  0.00    +0.048 A 
ATOM     22  C   UNL     1       0.596   1.771  24.641  0.00  0.00    +0.160 A 
BRANCH  22  26
ATOM      9  N   UNL     1       2.612  -0.190  21.474  0.00  0.00    -0.263 NA
ATOM     26  C   UNL     1       1.281   1.105  23.564  0.00  0.00    +0.022 A 
ATOM     30  C   UNL     1       0.586   0.249  22.719  0.00  0.00    +0.031 A 
ATOM     31  C   UNL     1       2.642   1.314  23.368  0.00  0.00    +0.031 A 
ATOM     32  C   UNL     1       1.290  -0.369  21.698  0.00  0.00    +0.111 A 
ATOM     33  C   UNL     1       3.254   0.649  22.317  0.00  0.00    +0.111 A 
ENDBRANCH  22  26
BRANCH  20  21
ATOM     21  C   UNL     1       1.160   2.370  28.184  0.00  0.00    +0.037 C 
BRANCH  21  24
ATOM     24  C   UNL     1       2.383   3.329  28.288  0.00  0.00    +0.006 C 
ATOM     28  C   UNL     1       3.659   2.616  28.722  0.00  0.00    +0.004 C 
ENDBRANCH  21  24
BRANCH  21  25
ATOM     25  C   UNL     1       0.160   2.714  29.326  0.00  0.00    +0.006 C 
ATOM     29  C   UNL     1       0.808   2.685  30.707  0.00  0.00    +0.004 C 
ENDBRANCH  21  25
ENDBRANCH  20  21
ENDBRANCH  11  18
BRANCH  12  17
ATOM     17  C   UNL     1      -4.786   0.699  23.722  0.00  0.00    +0.123 C 
BRANCH  17   6
ATOM      2  O   UNL     1      -4.346  -2.111  23.182  0.00  0.00    -0.275 OA
ATOM      6  N   UNL     1      -4.278  -0.287  24.624  0.00  0.00    -0.313 N 
ATOM     23  C   UNL     1      -4.094  -1.625  24.283  0.00  0.00    +0.223 C 
ATOM     36  H   UNL     1      -4.121  -0.007  25.588  0.00  0.00    +0.149 HD
BRANCH  23  27
ATOM     27  C   UNL     1      -3.561  -2.468  25.419  0.00  0.00    +0.165 C 
BRANCH  27   1
ATOM      1  S   UNL     1      -2.882  -1.376  26.691  0.00  0.00    -0.140 S 
BRANCH   1  34
ATOM     34  C   UNL     1      -1.514  -0.673  25.740  0.00  0.00    +0.189 C 
BRANCH  34  35
ATOM      4  O   UNL     1      -1.018  -2.438  24.175  0.00  0.00    -0.250 OA
ATOM     35  C   UNL     1      -0.689  -1.784  25.156  0.00  0.00    +0.315 C 
BRANCH  35   3
ATOM      3  O   UNL     1       0.475  -1.978  25.825  0.00  0.00    -0.480 OA
ATOM     37  H   UNL     1       1.254  -1.711  25.291  0.00  0.00    +0.295 HD
ENDBRANCH  35   3
ENDBRANCH  34  35
ENDBRANCH   1  34
ENDBRANCH  27   1
ENDBRANCH  23  27
ENDBRANCH  17   6
ENDBRANCH  12  17
TORSDOF 12
ENDMDL
MODEL 8
REMARK VINA RESULT:       3.5      2.911      6.436
REMARK  Name = 40776957
REMARK  14 active torsions:
REMARK  status: ('A' for Active; 'I' for Inactive)
REMARK    1  A    between atoms: S_1  and  C_27
REMARK    2  A    between atoms: S_1  and  C_34
REMARK    3  A    between atoms: O_3  and  C_35
REMARK    4  A    between atoms: N_6  and  C_17
REMARK    5  A    between atoms: C_11  and  C_18
REMARK    6  A    between atoms: C_12  and  C_17
REMARK    7  A    between atoms: C_20  and  C_21
REMARK    8  A    between atoms: C_21  and  C_24
REMARK    9  A    between atoms: C_21  and  C_25
REMARK   10  A    between atoms: C_22  and  C_26
REMARK   11  A    between atoms: C_23  and  C_27
REMARK   12  A    between atoms: C_24  and  C_28
REMARK   13  A    between atoms: C_25  and  C_29
REMARK   14  A    between atoms: C_34  and  C_35
REMARK                            x       y       z     vdW  Elec       q    Type
REMARK                         _______ _______ _______ _____ _____    ______ ____
ROOT
ATOM      5  N   UNL     1      -1.709  -2.395  23.818  0.00  0.00    -0.297 NA
ATOM     10  C   UNL     1      -3.888  -1.896  25.154  0.00  0.00    +0.002 C 
ATOM     11  C   UNL     1      -3.670  -0.823  24.052  0.00  0.00    +0.055 C 
ATOM     12  C   UNL     1      -1.430  -2.431  25.278  0.00  0.00    +0.074 C 
ATOM     13  C   UNL     1      -2.654  -1.938  26.079  0.00  0.00    +0.024 C 
ATOM     14  C   UNL     1      -3.964  -3.262  24.437  0.00  0.00    +0.019 C 
ATOM     15  C   UNL     1      -2.261  -1.070  23.440  0.00  0.00    +0.094 C 
ATOM     16  C   UNL     1      -2.735  -3.423  23.525  0.00  0.00    +0.085 C 
ENDROOT
BRANCH  11  18
ATOM      7  N   UNL     1      -2.828   1.459  24.310  0.00  0.00    -0.232 NA
ATOM      8  N   UNL     1      -4.232   3.269  25.053  0.00  0.00    -0.232 NA
ATOM     18  C   UNL     1      -3.893   0.638  24.417  0.00  0.00    +0.050 A 
ATOM     19  C   UNL     1      -5.143   1.053  24.829  0.00  0.00    +0.047 A 
ATOM     20  C   UNL     1      -5.255   2.393  25.138  0.00  0.00    +0.048 A 
ATOM     22  C   UNL     1      -3.064   2.743  24.638  0.00  0.00    +0.160 A 
BRANCH  22  26
ATOM      9  N   UNL     1       0.216   5.406  24.346  0.00  0.00    -0.263 NA
ATOM     26  C   UNL     1      -1.950   3.648  24.539  0.00  0.00    +0.022 A 
ATOM     30  C   UNL     1      -2.023   4.911  25.114  0.00  0.00    +0.031 A 
ATOM     31  C   UNL     1      -0.795   3.262  23.867  0.00  0.00    +0.031 A 
ATOM     32  C   UNL     1      -0.923   5.746  24.991  0.00  0.00    +0.111 A 
ATOM     33  C   UNL     1       0.249   4.170  23.799  0.00  0.00    +0.111 A 
ENDBRANCH  22  26
BRANCH  20  21
ATOM     21  C   UNL     1      -6.568   2.935  25.592  0.00  0.00    +0.037 C 
BRANCH  21  24
ATOM     24  C   UNL     1      -7.267   2.030  26.650  0.00  0.00    +0.006 C 
ATOM     28  C   UNL     1      -6.277   1.260  27.516  0.00  0.00    +0.004 C 
ENDBRANCH  21  24
BRANCH  21  25
ATOM     25  C   UNL     1      -6.469   4.380  26.162  0.00  0.00    +0.006 C 
ATOM     29  C   UNL     1      -6.144   5.417  25.092  0.00  0.00    +0.004 C 
ENDBRANCH  21  25
ENDBRANCH  20  21
ENDBRANCH  11  18
BRANCH  12  17
ATOM     17  C   UNL     1      -0.158  -1.664  25.648  0.00  0.00    +0.123 C 
BRANCH  17   6
ATOM      2  O   UNL     1       0.343   0.874  24.351  0.00  0.00    -0.275 OA
ATOM      6  N   UNL     1       0.649  -1.427  24.492  0.00  0.00    -0.313 N 
ATOM     23  C   UNL     1       0.841  -0.168  23.928  0.00  0.00    +0.223 C 
ATOM     36  H   UNL     1       1.035  -2.236  24.013  0.00  0.00    +0.149 HD
BRANCH  23  27
ATOM     27  C   UNL     1       1.723  -0.185  22.701  0.00  0.00    +0.165 C 
BRANCH  27   1
ATOM      1  S   UNL     1       2.906   1.178  22.810  0.00  0.00    -0.140 S 
BRANCH   1  34
ATOM     34  C   UNL     1       4.424   0.241  22.516  0.00  0.00    +0.189 C 
BRANCH  34  35
ATOM      4  O   UNL     1       5.694   0.520  24.545  0.00  0.00    -0.250 OA
ATOM     35  C   UNL     1       5.005  -0.196  23.830  0.00  0.00    +0.315 C 
BRANCH  35   3
ATOM      3  O   UNL     1       4.670  -1.470  24.152  0.00  0.00    -0.480 OA
ATOM     37  H   UNL     1       3.821  -1.513  24.644  0.00  0.00    +0.295 HD
ENDBRANCH  35   3
ENDBRANCH  34  35
ENDBRANCH   1  34
ENDBRANCH  27   1
ENDBRANCH  23  27
ENDBRANCH  17   6
ENDBRANCH  12  17
TORSDOF 12
ENDMDL
MODEL 9
REMARK VINA RESULT:       3.6      3.607      6.128
REMARK  Name = 40776957
REMARK  14 active torsions:
REMARK  status: ('A' for Active; 'I' for Inactive)
REMARK    1  A    between atoms: S_1  and  C_27
REMARK    2  A    between atoms: S_1  and  C_34
REMARK    3  A    between atoms: O_3  and  C_35
REMARK    4  A    between atoms: N_6  and  C_17
REMARK    5  A    between atoms: C_11  and  C_18
REMARK    6  A    between atoms: C_12  and  C_17
REMARK    7  A    between atoms: C_20  and  C_21
REMARK    8  A    between atoms: C_21  and  C_24
REMARK    9  A    between atoms: C_21  and  C_25
REMARK   10  A    between atoms: C_22  and  C_26
REMARK   11  A    between atoms: C_23  and  C_27
REMARK   12  A    between atoms: C_24  and  C_28
REMARK   13  A    between atoms: C_25  and  C_29
REMARK   14  A    between atoms: C_34  and  C_35
REMARK                            x       y       z     vdW  Elec       q    Type
REMARK                         _______ _______ _______ _____ _____    ______ ____
ROOT
ATOM      5  N   UNL     1      -2.738  -1.742  23.738  0.00  0.00    -0.297 NA
ATOM     10  C   UNL     1      -2.078  -1.323  26.222  0.00  0.00    +0.002 C 
ATOM     11  C   UNL     1      -2.710  -0.044  25.605  0.00  0.00    +0.055 C 
ATOM     12  C   UNL     1      -1.336  -2.177  23.972  0.00  0.00    +0.074 C 
ATOM     13  C   UNL     1      -0.860  -1.750  25.377  0.00  0.00    +0.024 C 
ATOM     14  C   UNL     1      -3.132  -2.444  26.099  0.00  0.00    +0.019 C 
ATOM     15  C   UNL     1      -2.888  -0.306  24.082  0.00  0.00    +0.094 C 
ATOM     16  C   UNL     1      -3.614  -2.527  24.640  0.00  0.00    +0.085 C 
ENDROOT
BRANCH  11  18
ATOM      7  N   UNL     1      -1.002   1.284  26.746  0.00  0.00    -0.232 NA
ATOM      8  N   UNL     1      -0.805   3.665  26.433  0.00  0.00    -0.232 NA
ATOM     18  C   UNL     1      -2.044   1.295  25.888  0.00  0.00    +0.050 A 
ATOM     19  C   UNL     1      -2.516   2.434  25.271  0.00  0.00    +0.047 A 
ATOM     20  C   UNL     1      -1.853   3.603  25.584  0.00  0.00    +0.048 A 
ATOM     22  C   UNL     1      -0.438   2.486  26.970  0.00  0.00    +0.160 A 
BRANCH  22  26
ATOM      9  N   UNL     1       2.836   2.569  29.656  0.00  0.00    -0.263 NA
ATOM     26  C   UNL     1       0.675   2.514  27.882  0.00  0.00    +0.022 A 
ATOM     30  C   UNL     1       1.914   2.981  27.459  0.00  0.00    +0.031 A 
ATOM     31  C   UNL     1       0.514   2.074  29.192  0.00  0.00    +0.031 A 
ATOM     32  C   UNL     1       2.953   2.987  28.375  0.00  0.00    +0.111 A 
ATOM     33  C   UNL     1       1.616   2.122  30.031  0.00  0.00    +0.111 A 
ENDBRANCH  22  26
BRANCH  20  21
ATOM     21  C   UNL     1      -2.293   4.886  24.964  0.00  0.00    +0.037 C 
BRANCH  21  24
ATOM     24  C   UNL     1      -1.112   5.717  24.381  0.00  0.00    +0.006 C 
ATOM     28  C   UNL     1      -0.147   4.876  23.554  0.00  0.00    +0.004 C 
ENDBRANCH  21  24
BRANCH  21  25
ATOM     25  C   UNL     1      -3.361   4.690  23.848  0.00  0.00    +0.006 C 
ATOM     29  C   UNL     1      -4.573   3.895  24.323  0.00  0.00    +0.004 C 
ENDBRANCH  21  25
ENDBRANCH  20  21
ENDBRANCH  11  18
BRANCH  12  17
ATOM     17  C   UNL     1      -0.384  -1.694  22.875  0.00  0.00    +0.123 C 
BRANCH  17   6
ATOM      2  O   UNL     1       1.712  -0.326  21.421  0.00  0.00    -0.275 OA
ATOM      6  N   UNL     1       0.500  -0.687  23.374  0.00  0.00    -0.313 N 
ATOM     23  C   UNL     1       1.487  -0.075  22.604  0.00  0.00    +0.223 C 
ATOM     36  H   UNL     1       0.455  -0.470  24.365  0.00  0.00    +0.149 HD
BRANCH  23  27
ATOM     27  C   UNL     1       2.301   0.943  23.368  0.00  0.00    +0.165 C 
BRANCH  27   1
ATOM      1  S   UNL     1       3.870   1.204  22.508  0.00  0.00    -0.140 S 
BRANCH   1  34
ATOM     34  C   UNL     1       4.993   0.824  23.873  0.00  0.00    +0.189 C 
BRANCH  34  35
ATOM      4  O   UNL     1       6.652  -0.687  22.994  0.00  0.00    -0.250 OA
ATOM     35  C   UNL     1       5.627  -0.517  23.640  0.00  0.00    +0.315 C 
BRANCH  35   3
ATOM      3  O   UNL     1       4.947  -1.528  24.239  0.00  0.00    -0.480 OA
ATOM     37  H   UNL     1       4.070  -1.675  23.824  0.00  0.00    +0.295 HD
ENDBRANCH  35   3
ENDBRANCH  34  35
ENDBRANCH   1  34
ENDBRANCH  27   1
ENDBRANCH  23  27
ENDBRANCH  17   6
ENDBRANCH  12  17
TORSDOF 12
ENDMDL
