MODEL 1
REMARK VINA RESULT:      -2.8      0.000      0.000
REMARK  Name = 38030854
REMARK  13 active torsions:
REMARK  status: ('A' for Active; 'I' for Inactive)
REMARK    1  A    between atoms: O_2  and  C_32
REMARK    2  A    between atoms: O_2  and  C_33
REMARK    3  A    between atoms: N_3  and  C_14
REMARK    4  A    between atoms: N_3  and  C_20
REMARK    5  A    between atoms: C_7  and  C_11
REMARK    6  A    between atoms: C_8  and  C_14
REMARK    7  A    between atoms: C_10  and  C_15
REMARK    8  A    between atoms: C_11  and  C_16
REMARK    9  A    between atoms: C_11  and  C_17
REMARK   10  A    between atoms: C_12  and  C_18
REMARK   11  A    between atoms: C_15  and  C_19
REMARK   12  A    between atoms: C_20  and  C_21
REMARK   13  A    between atoms: C_22  and  C_25
REMARK                            x       y       z     vdW  Elec       q    Type
REMARK                         _______ _______ _______ _____ _____    ______ ____
ROOT
ATOM      7  C   UNL     1      16.000  -5.695  30.993  0.00  0.00    +0.000 C 
ATOM      8  C   UNL     1      15.655  -6.398  32.329  0.00  0.00    +0.029 C 
ATOM      9  C   UNL     1      14.723  -5.186  30.309  0.00  0.00    +0.012 C 
ATOM     10  C   UNL     1      13.724  -6.322  30.019  0.00  0.00    +0.024 C 
ATOM     12  C   UNL     1      13.534  -7.225  31.221  0.00  0.00    -0.073 C 
ATOM     13  C   UNL     1      14.401  -7.235  32.249  0.00  0.00    -0.023 C 
ATOM     18  C   UNL     1      12.300  -8.084  31.235  0.00  0.00    +0.039 C 
ENDROOT
BRANCH   7  11
ATOM     11  C   UNL     1      16.978  -4.534  31.196  0.00  0.00    -0.013 C 
ATOM     16  C   UNL     1      16.780  -3.475  30.116  0.00  0.00    +0.007 C 
ATOM     17  C   UNL     1      16.804  -3.929  32.585  0.00  0.00    +0.007 C 
ENDBRANCH   7  11
BRANCH   8  14
ATOM     14  C   UNL     1      16.820  -7.268  32.813  0.00  0.00    +0.089 C 
BRANCH  14   3
ATOM      3  N   UNL     1      17.210  -8.221  31.789  0.00  0.00    -0.311 NA
ATOM     34  H   UNL     1      17.377  -7.738  30.907  0.00  0.00    +0.122 HD
BRANCH   3  20
ATOM     20  C   UNL     1      16.180  -9.234  31.594  0.00  0.00    +0.116 C 
BRANCH  20  21
ATOM      6  N   UNL     1      16.141 -10.722  27.559  0.00  0.00    -0.263 NA
ATOM     21  C   UNL     1      16.166  -9.755  30.181  0.00  0.00    -0.031 A 
ATOM     23  C   UNL     1      17.323  -9.711  29.410  0.00  0.00    +0.024 A 
ATOM     24  C   UNL     1      14.997 -10.282  29.643  0.00  0.00    +0.024 A 
ATOM     26  C   UNL     1      17.258 -10.203  28.116  0.00  0.00    +0.111 A 
ATOM     27  C   UNL     1      15.037 -10.749  28.338  0.00  0.00    +0.111 A 
ENDBRANCH  20  21
ENDBRANCH   3  20
ENDBRANCH  14   3
ENDBRANCH   8  14
BRANCH  10  15
ATOM     15  C   UNL     1      14.148  -7.129  28.787  0.00  0.00    +0.105 C 
BRANCH  15  19
ATOM      1  O   UNL     1      15.258  -5.843  27.036  0.00  0.00    -0.420 OA
ATOM      4  N   UNL     1      16.648  -6.689  28.571  0.00  0.00    -0.112 NA
ATOM      5  N   UNL     1      17.404  -5.991  27.648  0.00  0.00    -0.107 NA
ATOM     19  C   UNL     1      15.402  -6.576  28.174  0.00  0.00    +0.218 A 
ATOM     22  C   UNL     1      16.553  -5.516  26.771  0.00  0.00    +0.248 A 
BRANCH  22  25
ATOM     25  C   UNL     1      16.771  -4.718  25.599  0.00  0.00    +0.039 A 
ATOM     28  C   UNL     1      16.990  -5.333  24.367  0.00  0.00    +0.017 A 
ATOM     29  C   UNL     1      16.765  -3.326  25.692  0.00  0.00    +0.017 A 
ATOM     30  C   UNL     1      17.203  -4.558  23.227  0.00  0.00    +0.046 A 
ATOM     31  C   UNL     1      16.979  -2.550  24.552  0.00  0.00    +0.046 A 
ATOM     32  C   UNL     1      17.198  -3.166  23.320  0.00  0.00    +0.120 A 
BRANCH  32   2
ATOM      2  O   UNL     1      17.404  -2.409  22.208  0.00  0.00    -0.495 OA
ATOM     33  C   UNL     1      17.150  -1.009  22.320  0.00  0.00    +0.277 C 
ENDBRANCH  32   2
ENDBRANCH  22  25
ENDBRANCH  15  19
ENDBRANCH  10  15
TORSDOF 9
ENDMDL
MODEL 2
REMARK VINA RESULT:      -0.5     18.518     20.296
REMARK  Name = 38030854
REMARK  13 active torsions:
REMARK  status: ('A' for Active; 'I' for Inactive)
REMARK    1  A    between atoms: O_2  and  C_32
REMARK    2  A    between atoms: O_2  and  C_33
REMARK    3  A    between atoms: N_3  and  C_14
REMARK    4  A    between atoms: N_3  and  C_20
REMARK    5  A    between atoms: C_7  and  C_11
REMARK    6  A    between atoms: C_8  and  C_14
REMARK    7  A    between atoms: C_10  and  C_15
REMARK    8  A    between atoms: C_11  and  C_16
REMARK    9  A    between atoms: C_11  and  C_17
REMARK   10  A    between atoms: C_12  and  C_18
REMARK   11  A    between atoms: C_15  and  C_19
REMARK   12  A    between atoms: C_20  and  C_21
REMARK   13  A    between atoms: C_22  and  C_25
REMARK                            x       y       z     vdW  Elec       q    Type
REMARK                         _______ _______ _______ _____ _____    ______ ____
ROOT
ATOM      7  C   UNL     1      -3.416   2.022  23.754  0.00  0.00    +0.000 C 
ATOM      8  C   UNL     1      -4.361   3.159  24.212  0.00  0.00    +0.029 C 
ATOM      9  C   UNL     1      -4.185   0.697  23.643  0.00  0.00    +0.012 C 
ATOM     10  C   UNL     1      -4.832   0.284  24.979  0.00  0.00    +0.024 C 
ATOM     12  C   UNL     1      -5.565   1.440  25.629  0.00  0.00    -0.073 C 
ATOM     13  C   UNL     1      -5.351   2.717  25.264  0.00  0.00    -0.023 C 
ATOM     18  C   UNL     1      -6.584   1.092  26.678  0.00  0.00    +0.039 C 
ENDROOT
BRANCH   7  11
ATOM     11  C   UNL     1      -2.743   2.344  22.416  0.00  0.00    -0.013 C 
ATOM     16  C   UNL     1      -2.358   1.060  21.689  0.00  0.00    +0.007 C 
ATOM     17  C   UNL     1      -3.663   3.200  21.551  0.00  0.00    +0.007 C 
ENDBRANCH   7  11
BRANCH   8  14
ATOM     14  C   UNL     1      -3.568   4.363  24.732  0.00  0.00    +0.089 C 
BRANCH  14   3
ATOM      3  N   UNL     1      -3.758   4.525  26.163  0.00  0.00    -0.311 NA
ATOM     34  H   UNL     1      -4.062   5.475  26.370  0.00  0.00    +0.122 HD
BRANCH   3  20
ATOM     20  C   UNL     1      -2.527   4.245  26.891  0.00  0.00    +0.116 C 
BRANCH  20  21
ATOM      6  N   UNL     1       0.601   2.868  24.280  0.00  0.00    -0.263 NA
ATOM     21  C   UNL     1      -1.431   3.763  25.977  0.00  0.00    -0.031 A 
ATOM     23  C   UNL     1      -1.027   4.544  24.900  0.00  0.00    +0.024 A 
ATOM     24  C   UNL     1      -0.820   2.535  26.207  0.00  0.00    +0.024 A 
ATOM     26  C   UNL     1      -0.016   4.055  24.089  0.00  0.00    +0.111 A 
ATOM     27  C   UNL     1       0.182   2.137  25.337  0.00  0.00    +0.111 A 
ENDBRANCH  20  21
ENDBRANCH   3  20
ENDBRANCH  14   3
ENDBRANCH   8  14
BRANCH  10  15
ATOM     15  C   UNL     1      -3.793  -0.314  25.934  0.00  0.00    +0.105 C 
BRANCH  15  19
ATOM      1  O   UNL     1      -1.600  -0.394  24.869  0.00  0.00    -0.420 OA
ATOM      4  N   UNL     1      -2.730  -2.322  24.783  0.00  0.00    -0.112 NA
ATOM      5  N   UNL     1      -1.517  -2.509  24.148  0.00  0.00    -0.107 NA
ATOM     19  C   UNL     1      -2.735  -1.073  25.188  0.00  0.00    +0.218 A 
ATOM     22  C   UNL     1      -0.891  -1.359  24.221  0.00  0.00    +0.248 A 
BRANCH  22  25
ATOM     25  C   UNL     1       0.401  -0.969  23.735  0.00  0.00    +0.039 A 
ATOM     28  C   UNL     1       1.553  -1.388  24.400  0.00  0.00    +0.017 A 
ATOM     29  C   UNL     1       0.505  -0.169  22.597  0.00  0.00    +0.017 A 
ATOM     30  C   UNL     1       2.809  -1.008  23.928  0.00  0.00    +0.046 A 
ATOM     31  C   UNL     1       1.762   0.212  22.125  0.00  0.00    +0.046 A 
ATOM     32  C   UNL     1       2.913  -0.208  22.790  0.00  0.00    +0.120 A 
BRANCH  32   2
ATOM      2  O   UNL     1       4.139   0.162  22.328  0.00  0.00    -0.495 OA
ATOM     33  C   UNL     1       5.207   0.194  23.273  0.00  0.00    +0.277 C 
ENDBRANCH  32   2
ENDBRANCH  22  25
ENDBRANCH  15  19
ENDBRANCH  10  15
TORSDOF 9
ENDMDL
MODEL 3
REMARK VINA RESULT:      -0.1     17.754     19.345
REMARK  Name = 38030854
REMARK  13 active torsions:
REMARK  status: ('A' for Active; 'I' for Inactive)
REMARK    1  A    between atoms: O_2  and  C_32
REMARK    2  A    between atoms: O_2  and  C_33
REMARK    3  A    between atoms: N_3  and  C_14
REMARK    4  A    between atoms: N_3  and  C_20
REMARK    5  A    between atoms: C_7  and  C_11
REMARK    6  A    between atoms: C_8  and  C_14
REMARK    7  A    between atoms: C_10  and  C_15
REMARK    8  A    between atoms: C_11  and  C_16
REMARK    9  A    between atoms: C_11  and  C_17
REMARK   10  A    between atoms: C_12  and  C_18
REMARK   11  A    between atoms: C_15  and  C_19
REMARK   12  A    between atoms: C_20  and  C_21
REMARK   13  A    between atoms: C_22  and  C_25
REMARK                            x       y       z     vdW  Elec       q    Type
REMARK                         _______ _______ _______ _____ _____    ______ ____
ROOT
ATOM      7  C   UNL     1      -2.645   3.266  25.169  0.00  0.00    +0.000 C 
ATOM      8  C   UNL     1      -3.892   3.526  24.288  0.00  0.00    +0.029 C 
ATOM      9  C   UNL     1      -1.369   3.295  24.313  0.00  0.00    +0.012 C 
ATOM     10  C   UNL     1      -1.399   2.244  23.187  0.00  0.00    +0.024 C 
ATOM     12  C   UNL     1      -2.716   2.259  22.438  0.00  0.00    -0.073 C 
ATOM     13  C   UNL     1      -3.816   2.848  22.941  0.00  0.00    -0.023 C 
ATOM     18  C   UNL     1      -2.729   1.619  21.077  0.00  0.00    +0.039 C 
ENDROOT
BRANCH   7  11
ATOM     11  C   UNL     1      -2.528   4.285  26.307  0.00  0.00    -0.013 C 
ATOM     16  C   UNL     1      -2.343   5.692  25.746  0.00  0.00    +0.007 C 
ATOM     17  C   UNL     1      -3.759   4.219  27.206  0.00  0.00    +0.007 C 
ENDBRANCH   7  11
BRANCH   8  14
ATOM     14  C   UNL     1      -5.175   3.094  25.005  0.00  0.00    +0.089 C 
BRANCH  14   3
ATOM      3  N   UNL     1      -5.485   1.705  24.712  0.00  0.00    -0.311 NA
ATOM     34  H   UNL     1      -6.490   1.592  24.577  0.00  0.00    +0.122 HD
BRANCH   3  20
ATOM     20  C   UNL     1      -5.043   0.829  25.789  0.00  0.00    +0.116 C 
BRANCH  20  21
ATOM      6  N   UNL     1      -2.859  -2.563  24.299  0.00  0.00    -0.263 NA
ATOM     21  C   UNL     1      -4.279  -0.359  25.267  0.00  0.00    -0.031 A 
ATOM     23  C   UNL     1      -3.193  -0.857  25.979  0.00  0.00    +0.024 A 
ATOM     24  C   UNL     1      -4.655  -0.962  24.072  0.00  0.00    +0.024 A 
ATOM     26  C   UNL     1      -2.522  -1.951  25.456  0.00  0.00    +0.111 A 
ATOM     27  C   UNL     1      -3.919  -2.052  23.635  0.00  0.00    +0.111 A 
ENDBRANCH  20  21
ENDBRANCH   3  20
ENDBRANCH  14   3
ENDBRANCH   8  14
BRANCH  10  15
ATOM     15  C   UNL     1      -1.092   0.844  23.730  0.00  0.00    +0.105 C 
BRANCH  15  19
ATOM      1  O   UNL     1       1.308   0.412  23.644  0.00  0.00    -0.420 OA
ATOM      4  N   UNL     1       0.161  -0.450  21.928  0.00  0.00    -0.112 NA
ATOM      5  N   UNL     1       1.494  -0.768  21.753  0.00  0.00    -0.107 NA
ATOM     19  C   UNL     1       0.099   0.238  23.044  0.00  0.00    +0.218 A 
ATOM     22  C   UNL     1       2.127  -0.244  22.777  0.00  0.00    +0.248 A 
BRANCH  22  25
ATOM     25  C   UNL     1       3.520  -0.258  23.117  0.00  0.00    +0.039 A 
ATOM     28  C   UNL     1       4.307   0.869  22.879  0.00  0.00    +0.017 A 
ATOM     29  C   UNL     1       4.088  -1.398  23.684  0.00  0.00    +0.017 A 
ATOM     30  C   UNL     1       5.662   0.856  23.209  0.00  0.00    +0.046 A 
ATOM     31  C   UNL     1       5.444  -1.412  24.013  0.00  0.00    +0.046 A 
ATOM     32  C   UNL     1       6.231  -0.284  23.776  0.00  0.00    +0.120 A 
BRANCH  32   2
ATOM      2  O   UNL     1       7.553  -0.297  24.099  0.00  0.00    -0.495 OA
ATOM     33  C   UNL     1       8.485  -0.290  23.019  0.00  0.00    +0.277 C 
ENDBRANCH  32   2
ENDBRANCH  22  25
ENDBRANCH  15  19
ENDBRANCH  10  15
TORSDOF 9
ENDMDL
MODEL 4
REMARK VINA RESULT:      -0.1     18.353     20.042
REMARK  Name = 38030854
REMARK  13 active torsions:
REMARK  status: ('A' for Active; 'I' for Inactive)
REMARK    1  A    between atoms: O_2  and  C_32
REMARK    2  A    between atoms: O_2  and  C_33
REMARK    3  A    between atoms: N_3  and  C_14
REMARK    4  A    between atoms: N_3  and  C_20
REMARK    5  A    between atoms: C_7  and  C_11
REMARK    6  A    between atoms: C_8  and  C_14
REMARK    7  A    between atoms: C_10  and  C_15
REMARK    8  A    between atoms: C_11  and  C_16
REMARK    9  A    between atoms: C_11  and  C_17
REMARK   10  A    between atoms: C_12  and  C_18
REMARK   11  A    between atoms: C_15  and  C_19
REMARK   12  A    between atoms: C_20  and  C_21
REMARK   13  A    between atoms: C_22  and  C_25
REMARK                            x       y       z     vdW  Elec       q    Type
REMARK                         _______ _______ _______ _____ _____    ______ ____
ROOT
ATOM      7  C   UNL     1      -4.083   3.166  25.190  0.00  0.00    +0.000 C 
ATOM      8  C   UNL     1      -3.788   3.759  23.791  0.00  0.00    +0.029 C 
ATOM      9  C   UNL     1      -3.423   4.019  26.284  0.00  0.00    +0.012 C 
ATOM     10  C   UNL     1      -1.896   4.114  26.107  0.00  0.00    +0.024 C 
ATOM     12  C   UNL     1      -1.515   4.435  24.676  0.00  0.00    -0.073 C 
ATOM     13  C   UNL     1      -2.378   4.283  23.656  0.00  0.00    -0.023 C 
ATOM     18  C   UNL     1      -0.131   4.979  24.449  0.00  0.00    +0.039 C 
ENDROOT
BRANCH   7  11
ATOM     11  C   UNL     1      -5.588   3.056  25.457  0.00  0.00    -0.013 C 
ATOM     16  C   UNL     1      -5.858   2.071  26.590  0.00  0.00    +0.007 C 
ATOM     17  C   UNL     1      -6.172   4.427  25.780  0.00  0.00    +0.007 C 
ENDBRANCH   7  11
BRANCH   8  14
ATOM     14  C   UNL     1      -4.059   2.732  22.686  0.00  0.00    +0.089 C 
BRANCH  14   3
ATOM      3  N   UNL     1      -3.573   1.419  23.075  0.00  0.00    -0.311 NA
ATOM     34  H   UNL     1      -3.123   0.964  22.281  0.00  0.00    +0.122 HD
BRANCH   3  20
ATOM     20  C   UNL     1      -4.660   0.578  23.559  0.00  0.00    +0.116 C 
BRANCH  20  21
ATOM      6  N   UNL     1      -3.197  -2.908  25.610  0.00  0.00    -0.263 NA
ATOM     21  C   UNL     1      -4.148  -0.642  24.277  0.00  0.00    -0.031 A 
ATOM     23  C   UNL     1      -4.167  -1.882  23.647  0.00  0.00    +0.024 A 
ATOM     24  C   UNL     1      -3.654  -0.534  25.573  0.00  0.00    +0.024 A 
ATOM     26  C   UNL     1      -3.684  -2.974  24.351  0.00  0.00    +0.111 A 
ATOM     27  C   UNL     1      -3.195  -1.686  26.190  0.00  0.00    +0.111 A 
ENDBRANCH  20  21
ENDBRANCH   3  20
ENDBRANCH  14   3
ENDBRANCH   8  14
BRANCH  10  15
ATOM     15  C   UNL     1      -1.203   2.833  26.585  0.00  0.00    +0.105 C 
BRANCH  15  19
ATOM      1  O   UNL     1       0.589   1.872  25.238  0.00  0.00    -0.420 OA
ATOM      4  N   UNL     1      -1.468   1.326  24.548  0.00  0.00    -0.112 NA
ATOM      5  N   UNL     1      -0.558   0.719  23.703  0.00  0.00    -0.107 NA
ATOM     19  C   UNL     1      -0.753   1.988  25.429  0.00  0.00    +0.218 A 
ATOM     22  C   UNL     1       0.628   1.065  24.142  0.00  0.00    +0.248 A 
BRANCH  22  25
ATOM     25  C   UNL     1       1.935   0.731  23.655  0.00  0.00    +0.039 A 
ATOM     28  C   UNL     1       2.364  -0.596  23.663  0.00  0.00    +0.017 A 
ATOM     29  C   UNL     1       2.779   1.733  23.176  0.00  0.00    +0.017 A 
ATOM     30  C   UNL     1       3.636  -0.922  23.191  0.00  0.00    +0.046 A 
ATOM     31  C   UNL     1       4.051   1.408  22.704  0.00  0.00    +0.046 A 
ATOM     32  C   UNL     1       4.479   0.081  22.712  0.00  0.00    +0.120 A 
BRANCH  32   2
ATOM      2  O   UNL     1       5.720  -0.236  22.249  0.00  0.00    -0.495 OA
ATOM     33  C   UNL     1       6.766  -0.334  23.214  0.00  0.00    +0.277 C 
ENDBRANCH  32   2
ENDBRANCH  22  25
ENDBRANCH  15  19
ENDBRANCH  10  15
TORSDOF 9
ENDMDL
MODEL 5
REMARK VINA RESULT:       0.0     17.815     19.599
REMARK  Name = 38030854
REMARK  13 active torsions:
REMARK  status: ('A' for Active; 'I' for Inactive)
REMARK    1  A    between atoms: O_2  and  C_32
REMARK    2  A    between atoms: O_2  and  C_33
REMARK    3  A    between atoms: N_3  and  C_14
REMARK    4  A    between atoms: N_3  and  C_20
REMARK    5  A    between atoms: C_7  and  C_11
REMARK    6  A    between atoms: C_8  and  C_14
REMARK    7  A    between atoms: C_10  and  C_15
REMARK    8  A    between atoms: C_11  and  C_16
REMARK    9  A    between atoms: C_11  and  C_17
REMARK   10  A    between atoms: C_12  and  C_18
REMARK   11  A    between atoms: C_15  and  C_19
REMARK   12  A    between atoms: C_20  and  C_21
REMARK   13  A    between atoms: C_22  and  C_25
REMARK                            x       y       z     vdW  Elec       q    Type
REMARK                         _______ _______ _______ _____ _____    ______ ____
ROOT
ATOM      7  C   UNL     1      -3.700   1.944  23.665  0.00  0.00    +0.000 C 
ATOM      8  C   UNL     1      -4.945   1.718  24.557  0.00  0.00    +0.029 C 
ATOM      9  C   UNL     1      -3.190   0.607  23.106  0.00  0.00    +0.012 C 
ATOM     10  C   UNL     1      -2.816  -0.386  24.223  0.00  0.00    +0.024 C 
ATOM     12  C   UNL     1      -3.889  -0.463  25.290  0.00  0.00    -0.073 C 
ATOM     13  C   UNL     1      -4.840   0.480  25.416  0.00  0.00    -0.023 C 
ATOM     18  C   UNL     1      -3.871  -1.673  26.183  0.00  0.00    +0.039 C 
ENDROOT
BRANCH   7  11
ATOM     11  C   UNL     1      -3.993   2.909  22.512  0.00  0.00    -0.013 C 
ATOM     16  C   UNL     1      -4.009   4.350  23.013  0.00  0.00    +0.007 C 
ATOM     17  C   UNL     1      -2.965   2.735  21.398  0.00  0.00    +0.007 C 
ENDBRANCH   7  11
BRANCH   8  14
ATOM     14  C   UNL     1      -5.216   2.935  25.448  0.00  0.00    +0.089 C 
BRANCH  14   3
ATOM      3  N   UNL     1      -4.302   2.959  26.578  0.00  0.00    -0.311 NA
ATOM     34  H   UNL     1      -4.818   2.831  27.448  0.00  0.00    +0.122 HD
BRANCH   3  20
ATOM     20  C   UNL     1      -3.569   4.217  26.635  0.00  0.00    +0.116 C 
BRANCH  20  21
ATOM      6  N   UNL     1       0.301   3.901  24.785  0.00  0.00    -0.263 NA
ATOM     21  C   UNL     1      -2.214   4.106  25.987  0.00  0.00    -0.031 A 
ATOM     23  C   UNL     1      -1.752   5.121  25.157  0.00  0.00    +0.024 A 
ATOM     24  C   UNL     1      -1.420   2.988  26.217  0.00  0.00    +0.024 A 
ATOM     26  C   UNL     1      -0.499   4.971  24.585  0.00  0.00    +0.111 A 
ATOM     27  C   UNL     1      -0.181   2.934  25.598  0.00  0.00    +0.111 A 
ENDBRANCH  20  21
ENDBRANCH   3  20
ENDBRANCH  14   3
ENDBRANCH   8  14
BRANCH  10  15
ATOM     15  C   UNL     1      -1.455  -0.040  24.837  0.00  0.00    +0.105 C 
BRANCH  15  19
ATOM      1  O   UNL     1       0.922  -0.088  24.291  0.00  0.00    -0.420 OA
ATOM      4  N   UNL     1      -0.428  -0.267  22.517  0.00  0.00    -0.112 NA
ATOM      5  N   UNL     1       0.877  -0.308  22.066  0.00  0.00    -0.107 NA
ATOM     19  C   UNL     1      -0.354  -0.138  23.821  0.00  0.00    +0.218 A 
ATOM     22  C   UNL     1       1.631  -0.200  23.134  0.00  0.00    +0.248 A 
BRANCH  22  25
ATOM     25  C   UNL     1       3.059  -0.182  23.268  0.00  0.00    +0.039 A 
ATOM     28  C   UNL     1       3.782   0.947  22.885  0.00  0.00    +0.017 A 
ATOM     29  C   UNL     1       3.724  -1.296  23.781  0.00  0.00    +0.017 A 
ATOM     30  C   UNL     1       5.171   0.964  23.015  0.00  0.00    +0.046 A 
ATOM     31  C   UNL     1       5.114  -1.279  23.911  0.00  0.00    +0.046 A 
ATOM     32  C   UNL     1       5.836  -0.150  23.528  0.00  0.00    +0.120 A 
BRANCH  32   2
ATOM      2  O   UNL     1       7.191  -0.134  23.656  0.00  0.00    -0.495 OA
ATOM     33  C   UNL     1       7.949  -0.759  22.621  0.00  0.00    +0.277 C 
ENDBRANCH  32   2
ENDBRANCH  22  25
ENDBRANCH  15  19
ENDBRANCH  10  15
TORSDOF 9
ENDMDL
MODEL 6
REMARK VINA RESULT:       0.2     18.289     19.720
REMARK  Name = 38030854
REMARK  13 active torsions:
REMARK  status: ('A' for Active; 'I' for Inactive)
REMARK    1  A    between atoms: O_2  and  C_32
REMARK    2  A    between atoms: O_2  and  C_33
REMARK    3  A    between atoms: N_3  and  C_14
REMARK    4  A    between atoms: N_3  and  C_20
REMARK    5  A    between atoms: C_7  and  C_11
REMARK    6  A    between atoms: C_8  and  C_14
REMARK    7  A    between atoms: C_10  and  C_15
REMARK    8  A    between atoms: C_11  and  C_16
REMARK    9  A    between atoms: C_11  and  C_17
REMARK   10  A    between atoms: C_12  and  C_18
REMARK   11  A    between atoms: C_15  and  C_19
REMARK   12  A    between atoms: C_20  and  C_21
REMARK   13  A    between atoms: C_22  and  C_25
REMARK                            x       y       z     vdW  Elec       q    Type
REMARK                         _______ _______ _______ _____ _____    ______ ____
ROOT
ATOM      7  C   UNL     1      -1.921   4.079  24.823  0.00  0.00    +0.000 C 
ATOM      8  C   UNL     1      -2.182   3.243  26.100  0.00  0.00    +0.029 C 
ATOM      9  C   UNL     1      -3.241   4.639  24.270  0.00  0.00    +0.012 C 
ATOM     10  C   UNL     1      -4.248   3.525  23.926  0.00  0.00    +0.024 C 
ATOM     12  C   UNL     1      -4.360   2.504  25.040  0.00  0.00    -0.073 C 
ATOM     13  C   UNL     1      -3.434   2.402  26.010  0.00  0.00    -0.023 C 
ATOM     18  C   UNL     1      -5.585   1.633  25.040  0.00  0.00    +0.039 C 
ENDROOT
BRANCH   7  11
ATOM     11  C   UNL     1      -0.940   5.227  25.084  0.00  0.00    -0.013 C 
ATOM     16  C   UNL     1       0.220   5.171  24.096  0.00  0.00    +0.007 C 
ATOM     17  C   UNL     1      -1.659   6.569  25.001  0.00  0.00    +0.007 C 
ENDBRANCH   7  11
BRANCH   8  14
ATOM     14  C   UNL     1      -0.985   2.343  26.426  0.00  0.00    +0.089 C 
BRANCH  14   3
ATOM      3  N   UNL     1      -1.024   1.128  25.630  0.00  0.00    -0.311 NA
ATOM     34  H   UNL     1      -1.826   1.147  25.002  0.00  0.00    +0.122 HD
BRANCH   3  20
ATOM     20  C   UNL     1      -1.107  -0.054  26.479  0.00  0.00    +0.116 C 
BRANCH  20  21
ATOM      6  N   UNL     1      -3.293  -3.236  24.584  0.00  0.00    -0.263 NA
ATOM     21  C   UNL     1      -1.872  -1.168  25.816  0.00  0.00    -0.031 A 
ATOM     23  C   UNL     1      -1.198  -2.134  25.077  0.00  0.00    +0.024 A 
ATOM     24  C   UNL     1      -3.256  -1.235  25.939  0.00  0.00    +0.024 A 
ATOM     26  C   UNL     1      -1.948  -3.138  24.486  0.00  0.00    +0.111 A 
ATOM     27  C   UNL     1      -3.913  -2.280  25.310  0.00  0.00    +0.111 A 
ENDBRANCH  20  21
ENDBRANCH   3  20
ENDBRANCH  14   3
ENDBRANCH   8  14
BRANCH  10  15
ATOM     15  C   UNL     1      -3.892   2.850  22.597  0.00  0.00    +0.105 C 
BRANCH  15  19
ATOM      1  O   UNL     1      -1.607   1.998  22.672  0.00  0.00    -0.420 OA
ATOM      4  N   UNL     1      -3.173   0.455  23.085  0.00  0.00    -0.112 NA
ATOM      5  N   UNL     1      -1.937  -0.159  23.160  0.00  0.00    -0.107 NA
ATOM     19  C   UNL     1      -2.931   1.714  22.799  0.00  0.00    +0.218 A 
ATOM     22  C   UNL     1      -1.053   0.778  22.911  0.00  0.00    +0.248 A 
BRANCH  22  25
ATOM     25  C   UNL     1       0.379   0.716  22.854  0.00  0.00    +0.039 A 
ATOM     28  C   UNL     1       1.145   1.653  23.546  0.00  0.00    +0.017 A 
ATOM     29  C   UNL     1       1.004  -0.281  22.106  0.00  0.00    +0.017 A 
ATOM     30  C   UNL     1       2.538   1.594  23.491  0.00  0.00    +0.046 A 
ATOM     31  C   UNL     1       2.398  -0.340  22.049  0.00  0.00    +0.046 A 
ATOM     32  C   UNL     1       3.164   0.598  22.742  0.00  0.00    +0.120 A 
BRANCH  32   2
ATOM      2  O   UNL     1       4.522   0.538  22.689  0.00  0.00    -0.495 OA
ATOM     33  C   UNL     1       5.189  -0.091  23.782  0.00  0.00    +0.277 C 
ENDBRANCH  32   2
ENDBRANCH  22  25
ENDBRANCH  15  19
ENDBRANCH  10  15
TORSDOF 9
ENDMDL
MODEL 7
REMARK VINA RESULT:       0.4     18.111     20.111
REMARK  Name = 38030854
REMARK  13 active torsions:
REMARK  status: ('A' for Active; 'I' for Inactive)
REMARK    1  A    between atoms: O_2  and  C_32
REMARK    2  A    between atoms: O_2  and  C_33
REMARK    3  A    between atoms: N_3  and  C_14
REMARK    4  A    between atoms: N_3  and  C_20
REMARK    5  A    between atoms: C_7  and  C_11
REMARK    6  A    between atoms: C_8  and  C_14
REMARK    7  A    between atoms: C_10  and  C_15
REMARK    8  A    between atoms: C_11  and  C_16
REMARK    9  A    between atoms: C_11  and  C_17
REMARK   10  A    between atoms: C_12  and  C_18
REMARK   11  A    between atoms: C_15  and  C_19
REMARK   12  A    between atoms: C_20  and  C_21
REMARK   13  A    between atoms: C_22  and  C_25
REMARK                            x       y       z     vdW  Elec       q    Type
REMARK                         _______ _______ _______ _____ _____    ______ ____
ROOT
ATOM      7  C   UNL     1      -1.771   2.644  23.735  0.00  0.00    +0.000 C 
ATOM      8  C   UNL     1      -0.492   1.781  23.872  0.00  0.00    +0.029 C 
ATOM      9  C   UNL     1      -1.508   4.075  24.228  0.00  0.00    +0.012 C 
ATOM     10  C   UNL     1      -1.051   4.110  25.699  0.00  0.00    +0.024 C 
ATOM     12  C   UNL     1       0.034   3.089  25.975  0.00  0.00    -0.073 C 
ATOM     13  C   UNL     1       0.278   2.062  25.141  0.00  0.00    -0.023 C 
ATOM     18  C   UNL     1       0.864   3.299  27.212  0.00  0.00    +0.039 C 
ENDROOT
BRANCH   7  11
ATOM     11  C   UNL     1      -2.283   2.679  22.292  0.00  0.00    -0.013 C 
ATOM     16  C   UNL     1      -2.332   1.270  21.709  0.00  0.00    +0.007 C 
ATOM     17  C   UNL     1      -3.657   3.338  22.231  0.00  0.00    +0.007 C 
ENDBRANCH   7  11
BRANCH   8  14
ATOM     14  C   UNL     1      -0.822   0.287  23.796  0.00  0.00    +0.089 C 
BRANCH  14   3
ATOM      3  N   UNL     1       0.392  -0.510  23.821  0.00  0.00    -0.311 NA
ATOM     34  H   UNL     1       0.934  -0.295  24.658  0.00  0.00    +0.122 HD
BRANCH   3  20
ATOM     20  C   UNL     1       1.210  -0.258  22.642  0.00  0.00    +0.116 C 
BRANCH  20  21
ATOM      6  N   UNL     1       5.404  -0.163  23.591  0.00  0.00    -0.263 NA
ATOM     21  C   UNL     1       2.679  -0.225  22.974  0.00  0.00    -0.031 A 
ATOM     23  C   UNL     1       3.430   0.912  22.700  0.00  0.00    +0.024 A 
ATOM     24  C   UNL     1       3.288  -1.332  23.556  0.00  0.00    +0.024 A 
ATOM     26  C   UNL     1       4.777   0.892  23.025  0.00  0.00    +0.111 A 
ATOM     27  C   UNL     1       4.641  -1.250  23.842  0.00  0.00    +0.111 A 
ENDBRANCH  20  21
ENDBRANCH   3  20
ENDBRANCH  14   3
ENDBRANCH   8  14
BRANCH  10  15
ATOM     15  C   UNL     1      -2.237   3.922  26.651  0.00  0.00    +0.105 C 
BRANCH  15  19
ATOM      1  O   UNL     1      -2.885   1.712  25.846  0.00  0.00    -0.420 OA
ATOM      4  N   UNL     1      -4.512   3.243  25.727  0.00  0.00    -0.112 NA
ATOM      5  N   UNL     1      -5.012   2.049  25.243  0.00  0.00    -0.107 NA
ATOM     19  C   UNL     1      -3.267   2.999  26.067  0.00  0.00    +0.218 A 
ATOM     22  C   UNL     1      -4.029   1.184  25.331  0.00  0.00    +0.248 A 
BRANCH  22  25
ATOM     25  C   UNL     1      -3.976  -0.204  24.975  0.00  0.00    +0.039 A 
ATOM     28  C   UNL     1      -4.549  -0.641  23.781  0.00  0.00    +0.017 A 
ATOM     29  C   UNL     1      -3.351  -1.117  25.824  0.00  0.00    +0.017 A 
ATOM     30  C   UNL     1      -4.498  -1.992  23.435  0.00  0.00    +0.046 A 
ATOM     31  C   UNL     1      -3.300  -2.469  25.479  0.00  0.00    +0.046 A 
ATOM     32  C   UNL     1      -3.874  -2.905  24.285  0.00  0.00    +0.120 A 
BRANCH  32   2
ATOM      2  O   UNL     1      -3.822  -4.223  23.947  0.00  0.00    -0.495 OA
ATOM     33  C   UNL     1      -2.751  -4.635  23.100  0.00  0.00    +0.277 C 
ENDBRANCH  32   2
ENDBRANCH  22  25
ENDBRANCH  15  19
ENDBRANCH  10  15
TORSDOF 9
ENDMDL
