MODEL 1
REMARK VINA RESULT:      -4.0      0.000      0.000
REMARK  Name = 75536179
REMARK  6 active torsions:
REMARK  status: ('A' for Active; 'I' for Inactive)
REMARK    1  A    between atoms: O_2  and  C_9
REMARK    2  A    between atoms: N_5  and  C_14
REMARK    3  A    between atoms: N_6  and  C_19
REMARK    4  A    between atoms: C_8  and  C_9
REMARK    5  A    between atoms: C_9  and  C_11
REMARK    6  A    between atoms: C_20  and  C_21
REMARK                            x       y       z     vdW  Elec       q    Type
REMARK                         _______ _______ _______ _____ _____    ______ ____
ROOT
ATOM     11  C   UNL     1      -3.277   0.923  24.386  0.00  0.00    -0.017 A 
ATOM     15  C   UNL     1      -2.547   0.572  25.521  0.00  0.00    +0.008 A 
ATOM     16  C   UNL     1      -2.631   1.069  23.158  0.00  0.00    +0.008 A 
ATOM     17  C   UNL     1      -1.171   0.367  25.429  0.00  0.00    +0.023 A 
ATOM     18  C   UNL     1      -1.254   0.863  23.066  0.00  0.00    +0.023 A 
ATOM     19  C   UNL     1      -0.524   0.512  24.202  0.00  0.00    +0.034 A 
ENDROOT
BRANCH  19   6
ATOM      4  O   UNL     1       1.165  -0.266  21.850  0.00  0.00    -0.270 OA
ATOM      6  N   UNL     1       0.853   0.307  24.109  0.00  0.00    -0.281 N 
ATOM     20  C   UNL     1       1.597  -0.058  22.978  0.00  0.00    +0.250 C 
ATOM     27  H   UNL     1       1.355   0.486  24.973  0.00  0.00    +0.155 HD
BRANCH  20  21
ATOM      7  N   UNL     1       4.951  -1.507  23.899  0.00  0.00    -0.263 NA
ATOM     21  C   UNL     1       3.063  -0.172  23.190  0.00  0.00    +0.055 A 
ATOM     22  C   UNL     1       3.914   0.887  22.898  0.00  0.00    +0.016 A 
ATOM     23  C   UNL     1       3.626  -1.338  23.685  0.00  0.00    +0.123 A 
ATOM     24  C   UNL     1       5.282   0.752  23.105  0.00  0.00    +0.020 A 
ATOM     25  C   UNL     1       5.746  -0.455  23.604  0.00  0.00    +0.111 A 
ENDBRANCH  20  21
ENDBRANCH  19   6
BRANCH  11   9
ATOM      9  C   UNL     1      -4.764   1.146  24.486  0.00  0.00    +0.167 C 
BRANCH   9   8
ATOM      1  O   UNL     1      -4.659   3.083  26.687  0.00  0.00    -0.369 OA
ATOM      3  O   UNL     1      -2.007   4.495  24.684  0.00  0.00    -0.273 OA
ATOM      5  N   UNL     1      -3.953   3.424  23.995  0.00  0.00    -0.295 N 
ATOM      8  C   UNL     1      -5.126   2.631  24.387  0.00  0.00    +0.134 C 
ATOM     10  C   UNL     1      -5.687   3.148  25.707  0.00  0.00    +0.185 C 
ATOM     12  C   UNL     1      -3.091   3.971  24.943  0.00  0.00    +0.241 C 
ATOM     13  C   UNL     1      -3.608   3.970  26.377  0.00  0.00    +0.255 C 
ATOM     14  C   UNL     1      -3.615   3.469  22.579  0.00  0.00    +0.132 C 
ENDBRANCH   9   8
BRANCH   9   2
ATOM      2  O   UNL     1      -5.240   0.628  25.725  0.00  0.00    -0.385 OA
ATOM     26  H   UNL     1      -4.600   0.851  26.421  0.00  0.00    +0.210 HD
ENDBRANCH   9   2
ENDBRANCH  11   9
TORSDOF 5
ENDMDL
MODEL 2
REMARK VINA RESULT:      -1.9      1.370      2.811
REMARK  Name = 75536179
REMARK  6 active torsions:
REMARK  status: ('A' for Active; 'I' for Inactive)
REMARK    1  A    between atoms: O_2  and  C_9
REMARK    2  A    between atoms: N_5  and  C_14
REMARK    3  A    between atoms: N_6  and  C_19
REMARK    4  A    between atoms: C_8  and  C_9
REMARK    5  A    between atoms: C_9  and  C_11
REMARK    6  A    between atoms: C_20  and  C_21
REMARK                            x       y       z     vdW  Elec       q    Type
REMARK                         _______ _______ _______ _____ _____    ______ ____
ROOT
ATOM     11  C   UNL     1      -2.179   2.975  25.307  0.00  0.00    -0.017 A 
ATOM     15  C   UNL     1      -1.235   3.690  24.568  0.00  0.00    +0.008 A 
ATOM     16  C   UNL     1      -1.876   1.695  25.772  0.00  0.00    +0.008 A 
ATOM     17  C   UNL     1       0.010   3.124  24.294  0.00  0.00    +0.023 A 
ATOM     18  C   UNL     1      -0.631   1.130  25.498  0.00  0.00    +0.023 A 
ATOM     19  C   UNL     1       0.313   1.844  24.760  0.00  0.00    +0.034 A 
ENDROOT
BRANCH  19   6
ATOM      4  O   UNL     1       1.178   0.066  22.506  0.00  0.00    -0.270 OA
ATOM      6  N   UNL     1       1.558   1.278  24.486  0.00  0.00    -0.281 N 
ATOM     20  C   UNL     1       1.911   0.448  23.412  0.00  0.00    +0.250 C 
ATOM     27  H   UNL     1       2.285   1.546  25.141  0.00  0.00    +0.155 HD
BRANCH  20  21
ATOM      7  N   UNL     1       4.991  -1.691  23.780  0.00  0.00    -0.263 NA
ATOM     21  C   UNL     1       3.335   0.025  23.376  0.00  0.00    +0.055 A 
ATOM     22  C   UNL     1       4.328   0.887  22.927  0.00  0.00    +0.016 A 
ATOM     23  C   UNL     1       3.715  -1.243  23.788  0.00  0.00    +0.123 A 
ATOM     24  C   UNL     1       5.652   0.463  22.904  0.00  0.00    +0.020 A 
ATOM     25  C   UNL     1       5.928  -0.824  23.337  0.00  0.00    +0.111 A 
ENDBRANCH  20  21
ENDBRANCH  19   6
BRANCH  11   9
ATOM      9  C   UNL     1      -3.524   3.587  25.601  0.00  0.00    +0.167 C 
BRANCH   9   8
ATOM      1  O   UNL     1      -3.019   2.213  23.058  0.00  0.00    -0.369 OA
ATOM      3  O   UNL     1      -4.614  -0.535  24.774  0.00  0.00    -0.273 OA
ATOM      5  N   UNL     1      -5.033   1.746  24.952  0.00  0.00    -0.295 N 
ATOM      8  C   UNL     1      -4.595   3.107  24.617  0.00  0.00    +0.134 C 
ATOM     10  C   UNL     1      -4.081   3.151  23.183  0.00  0.00    +0.185 C 
ATOM     12  C   UNL     1      -4.412   0.624  24.408  0.00  0.00    +0.241 C 
ATOM     13  C   UNL     1      -3.488   0.894  23.226  0.00  0.00    +0.255 C 
ATOM     14  C   UNL     1      -6.021   1.599  26.012  0.00  0.00    +0.132 C 
ENDBRANCH   9   8
BRANCH   9   2
ATOM      2  O   UNL     1      -3.426   5.006  25.535  0.00  0.00    -0.385 OA
ATOM     26  H   UNL     1      -2.604   5.240  25.071  0.00  0.00    +0.210 HD
ENDBRANCH   9   2
ENDBRANCH  11   9
TORSDOF 5
ENDMDL
MODEL 3
REMARK VINA RESULT:      -1.1      1.483      2.509
REMARK  Name = 75536179
REMARK  6 active torsions:
REMARK  status: ('A' for Active; 'I' for Inactive)
REMARK    1  A    between atoms: O_2  and  C_9
REMARK    2  A    between atoms: N_5  and  C_14
REMARK    3  A    between atoms: N_6  and  C_19
REMARK    4  A    between atoms: C_8  and  C_9
REMARK    5  A    between atoms: C_9  and  C_11
REMARK    6  A    between atoms: C_20  and  C_21
REMARK                            x       y       z     vdW  Elec       q    Type
REMARK                         _______ _______ _______ _____ _____    ______ ____
ROOT
ATOM     11  C   UNL     1      -2.145   2.847  24.574  0.00  0.00    -0.017 A 
ATOM     15  C   UNL     1      -1.180   3.077  25.555  0.00  0.00    +0.008 A 
ATOM     16  C   UNL     1      -1.830   2.078  23.453  0.00  0.00    +0.008 A 
ATOM     17  C   UNL     1       0.098   2.537  25.416  0.00  0.00    +0.023 A 
ATOM     18  C   UNL     1      -0.552   1.538  23.314  0.00  0.00    +0.023 A 
ATOM     19  C   UNL     1       0.413   1.767  24.295  0.00  0.00    +0.034 A 
ENDROOT
BRANCH  19   6
ATOM      4  O   UNL     1       1.473  -0.213  22.310  0.00  0.00    -0.270 OA
ATOM      6  N   UNL     1       1.691   1.228  24.155  0.00  0.00    -0.281 N 
ATOM     20  C   UNL     1       2.137   0.300  23.204  0.00  0.00    +0.250 C 
ATOM     27  H   UNL     1       2.369   1.599  24.815  0.00  0.00    +0.155 HD
BRANCH  20  21
ATOM      7  N   UNL     1       5.259  -1.722  23.808  0.00  0.00    -0.263 NA
ATOM     21  C   UNL     1       3.575  -0.064  23.294  0.00  0.00    +0.055 A 
ATOM     22  C   UNL     1       4.568   0.852  22.966  0.00  0.00    +0.016 A 
ATOM     23  C   UNL     1       3.970  -1.327  23.706  0.00  0.00    +0.123 A 
ATOM     24  C   UNL     1       5.905   0.484  23.058  0.00  0.00    +0.020 A 
ATOM     25  C   UNL     1       6.195  -0.803  23.481  0.00  0.00    +0.111 A 
ENDBRANCH  20  21
ENDBRANCH  19   6
BRANCH  11   9
ATOM      9  C   UNL     1      -3.526   3.431  24.725  0.00  0.00    +0.167 C 
BRANCH   9   8
ATOM      1  O   UNL     1      -6.420   2.960  24.618  0.00  0.00    -0.369 OA
ATOM      3  O   UNL     1      -5.365  -0.477  24.273  0.00  0.00    -0.273 OA
ATOM      5  N   UNL     1      -4.378   1.245  25.487  0.00  0.00    -0.295 N 
ATOM      8  C   UNL     1      -4.348   2.684  25.779  0.00  0.00    +0.134 C 
ATOM     10  C   UNL     1      -5.769   3.230  25.854  0.00  0.00    +0.185 C 
ATOM     12  C   UNL     1      -5.376   0.681  24.695  0.00  0.00    +0.241 C 
ATOM     13  C   UNL     1      -6.583   1.572  24.427  0.00  0.00    +0.255 C 
ATOM     14  C   UNL     1      -3.230   0.450  25.900  0.00  0.00    +0.132 C 
ENDBRANCH   9   8
BRANCH   9   2
ATOM      2  O   UNL     1      -4.205   3.376  23.473  0.00  0.00    -0.385 OA
ATOM     26  H   UNL     1      -3.543   3.369  22.761  0.00  0.00    +0.210 HD
ENDBRANCH   9   2
ENDBRANCH  11   9
TORSDOF 5
ENDMDL
MODEL 4
REMARK VINA RESULT:      -0.9      1.183      1.402
REMARK  Name = 75536179
REMARK  6 active torsions:
REMARK  status: ('A' for Active; 'I' for Inactive)
REMARK    1  A    between atoms: O_2  and  C_9
REMARK    2  A    between atoms: N_5  and  C_14
REMARK    3  A    between atoms: N_6  and  C_19
REMARK    4  A    between atoms: C_8  and  C_9
REMARK    5  A    between atoms: C_9  and  C_11
REMARK    6  A    between atoms: C_20  and  C_21
REMARK                            x       y       z     vdW  Elec       q    Type
REMARK                         _______ _______ _______ _____ _____    ______ ____
ROOT
ATOM     11  C   UNL     1      -2.926  -0.298  24.839  0.00  0.00    -0.017 A 
ATOM     15  C   UNL     1      -2.058   0.632  25.410  0.00  0.00    +0.008 A 
ATOM     16  C   UNL     1      -2.416  -1.358  24.088  0.00  0.00    +0.008 A 
ATOM     17  C   UNL     1      -0.681   0.504  25.230  0.00  0.00    +0.023 A 
ATOM     18  C   UNL     1      -1.039  -1.487  23.908  0.00  0.00    +0.023 A 
ATOM     19  C   UNL     1      -0.171  -0.556  24.479  0.00  0.00    +0.034 A 
ENDROOT
BRANCH  19   6
ATOM      4  O   UNL     1       1.712   1.018  22.758  0.00  0.00    -0.270 OA
ATOM      6  N   UNL     1       1.206  -0.685  24.299  0.00  0.00    -0.281 N 
ATOM     20  C   UNL     1       2.044   0.082  23.477  0.00  0.00    +0.250 C 
ATOM     27  H   UNL     1       1.631  -1.407  24.872  0.00  0.00    +0.155 HD
BRANCH  20  21
ATOM      7  N   UNL     1       5.180  -1.967  23.887  0.00  0.00    -0.263 NA
ATOM     21  C   UNL     1       3.484  -0.282  23.520  0.00  0.00    +0.055 A 
ATOM     22  C   UNL     1       4.470   0.660  23.247  0.00  0.00    +0.016 A 
ATOM     23  C   UNL     1       3.888  -1.571  23.831  0.00  0.00    +0.123 A 
ATOM     24  C   UNL     1       5.810   0.291  23.294  0.00  0.00    +0.020 A 
ATOM     25  C   UNL     1       6.109  -1.023  23.616  0.00  0.00    +0.111 A 
ENDBRANCH  20  21
ENDBRANCH  19   6
BRANCH  11   9
ATOM      9  C   UNL     1      -4.414  -0.158  25.033  0.00  0.00    +0.167 C 
BRANCH   9   8
ATOM      1  O   UNL     1      -6.074   2.074  25.967  0.00  0.00    -0.369 OA
ATOM      3  O   UNL     1      -3.196   4.010  24.962  0.00  0.00    -0.273 OA
ATOM      5  N   UNL     1      -4.055   2.064  24.022  0.00  0.00    -0.295 N 
ATOM      8  C   UNL     1      -5.001   0.948  24.152  0.00  0.00    +0.134 C 
ATOM     10  C   UNL     1      -6.326   1.452  24.714  0.00  0.00    +0.185 C 
ATOM     12  C   UNL     1      -4.063   3.137  24.911  0.00  0.00    +0.241 C 
ATOM     13  C   UNL     1      -5.293   3.236  25.806  0.00  0.00    +0.255 C 
ATOM     14  C   UNL     1      -2.986   1.928  23.042  0.00  0.00    +0.132 C 
ENDBRANCH   9   8
BRANCH   9   2
ATOM      2  O   UNL     1      -4.689   0.134  26.400  0.00  0.00    -0.385 OA
ATOM     26  H   UNL     1      -4.034  -0.322  26.953  0.00  0.00    +0.210 HD
ENDBRANCH   9   2
ENDBRANCH  11   9
TORSDOF 5
ENDMDL
MODEL 5
REMARK VINA RESULT:      -0.2      1.266      1.834
REMARK  Name = 75536179
REMARK  6 active torsions:
REMARK  status: ('A' for Active; 'I' for Inactive)
REMARK    1  A    between atoms: O_2  and  C_9
REMARK    2  A    between atoms: N_5  and  C_14
REMARK    3  A    between atoms: N_6  and  C_19
REMARK    4  A    between atoms: C_8  and  C_9
REMARK    5  A    between atoms: C_9  and  C_11
REMARK    6  A    between atoms: C_20  and  C_21
REMARK                            x       y       z     vdW  Elec       q    Type
REMARK                         _______ _______ _______ _____ _____    ______ ____
ROOT
ATOM     11  C   UNL     1      -2.647   1.232  24.310  0.00  0.00    -0.017 A 
ATOM     15  C   UNL     1      -2.150   0.088  24.935  0.00  0.00    +0.008 A 
ATOM     16  C   UNL     1      -1.785   2.072  23.604  0.00  0.00    +0.008 A 
ATOM     17  C   UNL     1      -0.791  -0.215  24.857  0.00  0.00    +0.023 A 
ATOM     18  C   UNL     1      -0.425   1.769  23.526  0.00  0.00    +0.023 A 
ATOM     19  C   UNL     1       0.072   0.626  24.152  0.00  0.00    +0.034 A 
ENDROOT
BRANCH  19   6
ATOM      4  O   UNL     1       1.746  -0.171  21.796  0.00  0.00    -0.270 OA
ATOM      6  N   UNL     1       1.431   0.324  24.074  0.00  0.00    -0.281 N 
ATOM     20  C   UNL     1       2.170  -0.045  22.940  0.00  0.00    +0.250 C 
ATOM     27  H   UNL     1       1.928   0.427  24.954  0.00  0.00    +0.155 HD
BRANCH  20  21
ATOM      7  N   UNL     1       5.381  -1.751  23.926  0.00  0.00    -0.263 NA
ATOM     21  C   UNL     1       3.619  -0.277  23.172  0.00  0.00    +0.055 A 
ATOM     22  C   UNL     1       4.558   0.703  22.871  0.00  0.00    +0.016 A 
ATOM     23  C   UNL     1       4.078  -1.476  23.692  0.00  0.00    +0.123 A 
ATOM     24  C   UNL     1       5.908   0.458  23.097  0.00  0.00    +0.020 A 
ATOM     25  C   UNL     1       6.264  -0.774  23.621  0.00  0.00    +0.111 A 
ENDBRANCH  20  21
ENDBRANCH  19   6
BRANCH  11   9
ATOM      9  C   UNL     1      -4.116   1.558  24.395  0.00  0.00    +0.167 C 
BRANCH   9   8
ATOM      1  O   UNL     1      -3.126   4.061  25.565  0.00  0.00    -0.369 OA
ATOM      3  O   UNL     1      -6.580   5.047  25.184  0.00  0.00    -0.273 OA
ATOM      5  N   UNL     1      -5.699   2.951  25.677  0.00  0.00    -0.295 N 
ATOM      8  C   UNL     1      -4.496   2.113  25.772  0.00  0.00    +0.134 C 
ATOM     10  C   UNL     1      -3.349   2.914  26.376  0.00  0.00    +0.185 C 
ATOM     12  C   UNL     1      -5.617   4.322  25.443  0.00  0.00    +0.241 C 
ATOM     13  C   UNL     1      -4.232   4.935  25.611  0.00  0.00    +0.255 C 
ATOM     14  C   UNL     1      -6.989   2.275  25.654  0.00  0.00    +0.132 C 
ENDBRANCH   9   8
BRANCH   9   2
ATOM      2  O   UNL     1      -4.880   0.385  24.134  0.00  0.00    -0.385 OA
ATOM     26  H   UNL     1      -4.910   0.241  23.173  0.00  0.00    +0.210 HD
ENDBRANCH   9   2
ENDBRANCH  11   9
TORSDOF 5
ENDMDL
