MODEL 1
REMARK VINA RESULT:       0.6      0.000      0.000
REMARK  Name = 45784323
REMARK  4 active torsions:
REMARK  status: ('A' for Active; 'I' for Inactive)
REMARK    1  A    between atoms: N_1  and  C_6
REMARK    2  A    between atoms: N_2  and  C_16
REMARK    3  A    between atoms: C_7  and  C_15
REMARK    4  A    between atoms: C_21  and  C_23
REMARK                            x       y       z     vdW  Elec       q    Type
REMARK                         _______ _______ _______ _____ _____    ______ ____
ROOT
ATOM      1  N   UNL     1      -3.129  -0.030  24.354  0.00  0.00    -0.299 NA
ATOM      7  C   UNL     1      -0.984  -0.859  23.895  0.00  0.00    +0.070 C 
ATOM      8  C   UNL     1      -2.015   0.177  23.426  0.00  0.00    +0.096 C 
ATOM      9  C   UNL     1      -2.503  -0.184  25.667  0.00  0.00    +0.085 C 
ATOM     10  C   UNL     1      -1.326  -1.107  25.374  0.00  0.00    +0.028 C 
ENDROOT
BRANCH   7  15
ATOM      3  N   UNL     1       1.488  -1.283  23.847  0.00  0.00    -0.342 N 
ATOM      4  N   UNL     1       0.843   0.744  23.202  0.00  0.00    -0.232 NA
ATOM     15  C   UNL     1       0.441  -0.430  23.636  0.00  0.00    +0.113 A 
ATOM     17  C   UNL     1       2.644  -0.616  23.527  0.00  0.00    +0.067 A 
ATOM     18  C   UNL     1       2.213   0.647  23.127  0.00  0.00    +0.089 A 
ATOM     19  C   UNL     1       3.985  -0.996  23.552  0.00  0.00    +0.046 A 
ATOM     20  C   UNL     1       3.165   1.599  22.726  0.00  0.00    +0.031 A 
ATOM     21  C   UNL     1       4.919  -0.036  23.149  0.00  0.00    +0.054 A 
ATOM     22  C   UNL     1       4.519   1.239  22.743  0.00  0.00    +0.021 A 
ATOM     24  H   UNL     1       1.427  -2.237  24.179  0.00  0.00    +0.167 HD
BRANCH  21  23
ATOM      5  N   UNL     1       7.439  -0.637  23.157  0.00  0.00    -0.191 NA
ATOM     23  C   UNL     1       6.310  -0.368  23.154  0.00  0.00    +0.099 C 
ENDBRANCH  21  23
ENDBRANCH   7  15
BRANCH   1   6
ATOM      2  N   UNL     1      -5.226   3.462  25.573  0.00  0.00    -0.305 NA
ATOM      6  C   UNL     1      -4.091   1.070  24.324  0.00  0.00    +0.059 C 
ATOM     11  C   UNL     1      -5.050   0.994  25.517  0.00  0.00    +0.034 C 
ATOM     12  C   UNL     1      -3.359   2.415  24.329  0.00  0.00    +0.034 C 
ATOM     13  C   UNL     1      -5.985   2.204  25.546  0.00  0.00    +0.085 C 
ATOM     14  C   UNL     1      -4.350   3.579  24.397  0.00  0.00    +0.085 C 
ATOM     16  C   UNL     1      -6.132   4.606  25.652  0.00  0.00    +0.104 C 
ENDBRANCH   1   6
TORSDOF 3
ENDMDL
MODEL 2
REMARK VINA RESULT:       2.8      1.126      8.647
REMARK  Name = 45784323
REMARK  4 active torsions:
REMARK  status: ('A' for Active; 'I' for Inactive)
REMARK    1  A    between atoms: N_1  and  C_6
REMARK    2  A    between atoms: N_2  and  C_16
REMARK    3  A    between atoms: C_7  and  C_15
REMARK    4  A    between atoms: C_21  and  C_23
REMARK                            x       y       z     vdW  Elec       q    Type
REMARK                         _______ _______ _______ _____ _____    ______ ____
ROOT
ATOM      1  N   UNL     1       1.675  -0.845  23.132  0.00  0.00    -0.299 NA
ATOM      7  C   UNL     1      -0.663  -0.898  23.301  0.00  0.00    +0.070 C 
ATOM      8  C   UNL     1       0.614  -0.715  24.133  0.00  0.00    +0.096 C 
ATOM      9  C   UNL     1       1.204  -0.079  21.979  0.00  0.00    +0.085 C 
ATOM     10  C   UNL     1      -0.259  -0.493  21.873  0.00  0.00    +0.028 C 
ENDROOT
BRANCH   7  15
ATOM      3  N   UNL     1      -1.901   1.221  23.824  0.00  0.00    -0.342 N 
ATOM      4  N   UNL     1      -2.911  -0.664  24.432  0.00  0.00    -0.232 NA
ATOM     15  C   UNL     1      -1.845  -0.145  23.864  0.00  0.00    +0.113 A 
ATOM     17  C   UNL     1      -3.083   1.609  24.404  0.00  0.00    +0.067 A 
ATOM     18  C   UNL     1      -3.693   0.414  24.775  0.00  0.00    +0.089 A 
ATOM     19  C   UNL     1      -3.650   2.862  24.629  0.00  0.00    +0.046 A 
ATOM     20  C   UNL     1      -4.946   0.454  25.411  0.00  0.00    +0.031 A 
ATOM     21  C   UNL     1      -4.897   2.884  25.262  0.00  0.00    +0.054 A 
ATOM     22  C   UNL     1      -5.536   1.703  25.647  0.00  0.00    +0.021 A 
ATOM     24  H   UNL     1      -1.201   1.839  23.435  0.00  0.00    +0.167 HD
BRANCH  21  23
ATOM      5  N   UNL     1      -6.044   5.160  25.729  0.00  0.00    -0.191 NA
ATOM     23  C   UNL     1      -5.530   4.140  25.520  0.00  0.00    +0.099 C 
ENDBRANCH  21  23
ENDBRANCH   7  15
BRANCH   1   6
ATOM      2  N   UNL     1       5.855  -0.083  23.253  0.00  0.00    -0.305 NA
ATOM      6  C   UNL     1       2.967  -0.369  23.625  0.00  0.00    +0.059 C 
ATOM     11  C   UNL     1       3.938  -1.536  23.832  0.00  0.00    +0.034 C 
ATOM     12  C   UNL     1       3.568   0.641  22.645  0.00  0.00    +0.034 C 
ATOM     13  C   UNL     1       5.323  -1.030  24.241  0.00  0.00    +0.085 C 
ATOM     14  C   UNL     1       4.965   1.076  23.094  0.00  0.00    +0.085 C 
ATOM     16  C   UNL     1       7.199   0.353  23.632  0.00  0.00    +0.104 C 
ENDBRANCH   1   6
TORSDOF 3
ENDMDL
MODEL 3
REMARK VINA RESULT:       3.0      1.515      8.500
REMARK  Name = 45784323
REMARK  4 active torsions:
REMARK  status: ('A' for Active; 'I' for Inactive)
REMARK    1  A    between atoms: N_1  and  C_6
REMARK    2  A    between atoms: N_2  and  C_16
REMARK    3  A    between atoms: C_7  and  C_15
REMARK    4  A    between atoms: C_21  and  C_23
REMARK                            x       y       z     vdW  Elec       q    Type
REMARK                         _______ _______ _______ _____ _____    ______ ____
ROOT
ATOM      1  N   UNL     1       1.794  -0.940  22.727  0.00  0.00    -0.299 NA
ATOM      7  C   UNL     1      -0.339  -0.383  23.525  0.00  0.00    +0.070 C 
ATOM      8  C   UNL     1       1.151  -0.323  23.889  0.00  0.00    +0.096 C 
ATOM      9  C   UNL     1       1.100  -0.378  21.568  0.00  0.00    +0.085 C 
ATOM     10  C   UNL     1      -0.363  -0.438  21.988  0.00  0.00    +0.028 C 
ENDROOT
BRANCH   7  15
ATOM      3  N   UNL     1      -2.481   0.868  23.903  0.00  0.00    -0.342 N 
ATOM      4  N   UNL     1      -0.684   1.701  24.913  0.00  0.00    -0.232 NA
ATOM     15  C   UNL     1      -1.139   0.746  24.133  0.00  0.00    +0.113 A 
ATOM     17  C   UNL     1      -2.923   1.976  24.581  0.00  0.00    +0.067 A 
ATOM     18  C   UNL     1      -1.782   2.478  25.203  0.00  0.00    +0.089 A 
ATOM     19  C   UNL     1      -4.182   2.564  24.700  0.00  0.00    +0.046 A 
ATOM     20  C   UNL     1      -1.886   3.635  25.994  0.00  0.00    +0.031 A 
ATOM     21  C   UNL     1      -4.267   3.715  25.491  0.00  0.00    +0.054 A 
ATOM     22  C   UNL     1      -3.141   4.242  26.127  0.00  0.00    +0.021 A 
ATOM     24  H   UNL     1      -3.051   0.253  23.337  0.00  0.00    +0.167 HD
BRANCH  21  23
ATOM      5  N   UNL     1      -6.559   4.888  25.779  0.00  0.00    -0.191 NA
ATOM     23  C   UNL     1      -5.532   4.362  25.650  0.00  0.00    +0.099 C 
ENDBRANCH  21  23
ENDBRANCH   7  15
BRANCH   1   6
ATOM      2  N   UNL     1       5.651   0.324  23.989  0.00  0.00    -0.305 NA
ATOM      6  C   UNL     1       3.234  -0.689  22.688  0.00  0.00    +0.059 C 
ATOM     11  C   UNL     1       3.532   0.809  22.805  0.00  0.00    +0.034 C 
ATOM     12  C   UNL     1       3.934  -1.451  23.816  0.00  0.00    +0.034 C 
ATOM     13  C   UNL     1       5.039   1.063  22.876  0.00  0.00    +0.085 C 
ATOM     14  C   UNL     1       5.429  -1.122  23.853  0.00  0.00    +0.085 C 
ATOM     16  C   UNL     1       7.081   0.617  24.075  0.00  0.00    +0.104 C 
ENDBRANCH   1   6
TORSDOF 3
ENDMDL
