MODEL 1
REMARK VINA RESULT:      -2.5      0.000      0.000
REMARK  Name = 75368527
REMARK  6 active torsions:
REMARK  status: ('A' for Active; 'I' for Inactive)
REMARK    1  A    between atoms: O_2  and  C_16
REMARK    2  A    between atoms: O_2  and  C_19
REMARK    3  A    between atoms: N_5  and  C_14
REMARK    4  A    between atoms: N_7  and  C_17
REMARK    5  A    between atoms: C_14  and  C_16
REMARK    6  A    between atoms: C_17  and  C_18
REMARK                            x       y       z     vdW  Elec       q    Type
REMARK                         _______ _______ _______ _____ _____    ______ ____
ROOT
ATOM      1  O   UNL     1      -5.485   0.491  26.026  0.00  0.00    -0.252 OA
ATOM      3  O   UNL     1       0.809  -1.676  24.157  0.00  0.00    -0.253 OA
ATOM      4  N   UNL     1      -3.443   0.411  24.868  0.00  0.00    -0.278 N 
ATOM      5  N   UNL     1      -4.785   2.183  24.542  0.00  0.00    -0.281 N 
ATOM      6  N   UNL     1      -0.714   0.041  24.475  0.00  0.00    -0.282 N 
ATOM      7  N   UNL     1       0.922   0.148  22.773  0.00  0.00    -0.295 N 
ATOM      8  C   UNL     1      -2.783   1.184  23.828  0.00  0.00    +0.112 C 
ATOM      9  C   UNL     1      -3.585   2.483  23.779  0.00  0.00    +0.133 C 
ATOM     10  C   UNL     1      -1.304   1.358  24.158  0.00  0.00    +0.133 C 
ATOM     11  C   UNL     1      -2.858  -0.839  25.321  0.00  0.00    +0.128 C 
ATOM     12  C   UNL     1      -1.367  -0.650  25.599  0.00  0.00    +0.128 C 
ATOM     13  C   UNL     1      -4.675   0.966  25.241  0.00  0.00    +0.305 C 
ATOM     15  C   UNL     1       0.370  -0.570  23.826  0.00  0.00    +0.303 C 
ATOM     25  H   UNL     1       0.539   1.039  22.489  0.00  0.00    +0.151 HD
ENDROOT
BRANCH   5  14
ATOM     14  C   UNL     1      -5.876   3.127  24.653  0.00  0.00    +0.137 C 
BRANCH  14  16
ATOM     16  C   UNL     1      -5.493   4.323  25.504  0.00  0.00    +0.178 C 
BRANCH  16   2
ATOM      2  O   UNL     1      -4.666   3.894  26.578  0.00  0.00    -0.381 OA
ATOM     19  C   UNL     1      -3.326   4.334  26.413  0.00  0.00    +0.194 C 
ENDBRANCH  16   2
ENDBRANCH  14  16
ENDBRANCH   5  14
BRANCH   7  17
ATOM     17  C   UNL     1       2.040  -0.353  22.003  0.00  0.00    +0.141 C 
BRANCH  17  18
ATOM     18  C   UNL     1       3.335  -0.242  22.756  0.00  0.00    -0.030 A 
ATOM     20  C   UNL     1       3.858  -1.356  23.411  0.00  0.00    +0.005 A 
ATOM     21  C   UNL     1       4.013   0.976  22.799  0.00  0.00    +0.005 A 
ATOM     22  C   UNL     1       5.061  -1.252  24.110  0.00  0.00    +0.000 A 
ATOM     23  C   UNL     1       5.216   1.080  23.499  0.00  0.00    +0.000 A 
ATOM     24  C   UNL     1       5.740  -0.034  24.153  0.00  0.00    +0.000 A 
ENDBRANCH  17  18
ENDBRANCH   7  17
TORSDOF 5
ENDMDL
MODEL 2
REMARK VINA RESULT:       1.0      1.950      7.965
REMARK  Name = 75368527
REMARK  6 active torsions:
REMARK  status: ('A' for Active; 'I' for Inactive)
REMARK    1  A    between atoms: O_2  and  C_16
REMARK    2  A    between atoms: O_2  and  C_19
REMARK    3  A    between atoms: N_5  and  C_14
REMARK    4  A    between atoms: N_7  and  C_17
REMARK    5  A    between atoms: C_14  and  C_16
REMARK    6  A    between atoms: C_17  and  C_18
REMARK                            x       y       z     vdW  Elec       q    Type
REMARK                         _______ _______ _______ _____ _____    ______ ____
ROOT
ATOM      1  O   UNL     1       3.153  -2.009  24.181  0.00  0.00    -0.252 OA
ATOM      3  O   UNL     1      -3.554  -1.808  25.851  0.00  0.00    -0.253 OA
ATOM      4  N   UNL     1       0.932  -1.249  24.267  0.00  0.00    -0.278 N 
ATOM      5  N   UNL     1       2.348  -0.245  22.840  0.00  0.00    -0.281 N 
ATOM      6  N   UNL     1      -1.845  -1.402  24.339  0.00  0.00    -0.282 N 
ATOM      7  N   UNL     1      -3.753  -0.011  24.441  0.00  0.00    -0.295 N 
ATOM      8  C   UNL     1       0.164  -0.153  23.698  0.00  0.00    +0.112 C 
ATOM      9  C   UNL     1       1.059   0.374  22.580  0.00  0.00    +0.133 C 
ATOM     10  C   UNL     1      -1.204  -0.648  23.242  0.00  0.00    +0.133 C 
ATOM     11  C   UNL     1       0.328  -2.114  25.266  0.00  0.00    +0.128 C 
ATOM     12  C   UNL     1      -1.060  -2.557  24.806  0.00  0.00    +0.128 C 
ATOM     13  C   UNL     1       2.258  -1.260  23.813  0.00  0.00    +0.305 C 
ATOM     15  C   UNL     1      -3.083  -1.122  24.937  0.00  0.00    +0.303 C 
ATOM     25  H   UNL     1      -3.349   0.561  23.713  0.00  0.00    +0.151 HD
ENDROOT
BRANCH   5  14
ATOM     14  C   UNL     1       3.524   0.077  22.061  0.00  0.00    +0.137 C 
BRANCH  14  16
ATOM     16  C   UNL     1       4.243   1.293  22.616  0.00  0.00    +0.178 C 
BRANCH  16   2
ATOM      2  O   UNL     1       5.026   0.907  23.738  0.00  0.00    -0.381 OA
ATOM     19  C   UNL     1       5.889  -0.177  23.425  0.00  0.00    +0.194 C 
ENDBRANCH  16   2
ENDBRANCH  14  16
ENDBRANCH   5  14
BRANCH   7  17
ATOM     17  C   UNL     1      -5.037   0.408  24.959  0.00  0.00    +0.141 C 
BRANCH  17  18
ATOM     18  C   UNL     1      -5.121   1.900  25.113  0.00  0.00    -0.030 A 
ATOM     20  C   UNL     1      -6.225   2.474  25.743  0.00  0.00    +0.005 A 
ATOM     21  C   UNL     1      -4.095   2.709  24.626  0.00  0.00    +0.005 A 
ATOM     22  C   UNL     1      -6.302   3.860  25.886  0.00  0.00    +0.000 A 
ATOM     23  C   UNL     1      -4.173   4.094  24.768  0.00  0.00    +0.000 A 
ATOM     24  C   UNL     1      -5.276   4.670  25.399  0.00  0.00    +0.000 A 
ENDBRANCH  17  18
ENDBRANCH   7  17
TORSDOF 5
ENDMDL
MODEL 3
REMARK VINA RESULT:       1.0      1.576      2.356
REMARK  Name = 75368527
REMARK  6 active torsions:
REMARK  status: ('A' for Active; 'I' for Inactive)
REMARK    1  A    between atoms: O_2  and  C_16
REMARK    2  A    between atoms: O_2  and  C_19
REMARK    3  A    between atoms: N_5  and  C_14
REMARK    4  A    between atoms: N_7  and  C_17
REMARK    5  A    between atoms: C_14  and  C_16
REMARK    6  A    between atoms: C_17  and  C_18
REMARK                            x       y       z     vdW  Elec       q    Type
REMARK                         _______ _______ _______ _____ _____    ______ ____
ROOT
ATOM      1  O   UNL     1      -3.487   4.172  26.905  0.00  0.00    -0.252 OA
ATOM      3  O   UNL     1       2.143   1.363  24.038  0.00  0.00    -0.253 OA
ATOM      4  N   UNL     1      -2.179   2.844  25.475  0.00  0.00    -0.278 N 
ATOM      5  N   UNL     1      -4.385   2.992  25.073  0.00  0.00    -0.281 N 
ATOM      6  N   UNL     1      -0.030   2.146  23.853  0.00  0.00    -0.282 N 
ATOM      7  N   UNL     1       0.751   0.358  22.519  0.00  0.00    -0.295 N 
ATOM      8  C   UNL     1      -2.414   1.921  24.377  0.00  0.00    +0.112 C 
ATOM      9  C   UNL     1      -3.861   2.198  23.974  0.00  0.00    +0.133 C 
ATOM     10  C   UNL     1      -1.388   2.146  23.271  0.00  0.00    +0.133 C 
ATOM     11  C   UNL     1      -0.842   2.991  26.024  0.00  0.00    +0.128 C 
ATOM     12  C   UNL     1       0.172   3.166  24.894  0.00  0.00    +0.128 C 
ATOM     13  C   UNL     1      -3.366   3.427  25.942  0.00  0.00    +0.305 C 
ATOM     15  C   UNL     1       1.031   1.295  23.504  0.00  0.00    +0.303 C 
ATOM     25  H   UNL     1      -0.169   0.290  22.108  0.00  0.00    +0.151 HD
ENDROOT
BRANCH   5  14
ATOM     14  C   UNL     1      -5.776   3.382  25.139  0.00  0.00    +0.137 C 
BRANCH  14  16
ATOM     16  C   UNL     1      -6.698   2.188  24.976  0.00  0.00    +0.178 C 
BRANCH  16   2
ATOM      2  O   UNL     1      -6.300   1.158  25.872  0.00  0.00    -0.381 OA
ATOM     19  C   UNL     1      -6.629   1.479  27.216  0.00  0.00    +0.194 C 
ENDBRANCH  16   2
ENDBRANCH  14  16
ENDBRANCH   5  14
BRANCH   7  17
ATOM     17  C   UNL     1       1.740  -0.590  22.057  0.00  0.00    +0.141 C 
BRANCH  17  18
ATOM     18  C   UNL     1       3.082  -0.357  22.690  0.00  0.00    -0.030 A 
ATOM     20  C   UNL     1       3.627  -1.316  23.544  0.00  0.00    +0.005 A 
ATOM     21  C   UNL     1       3.783   0.819  22.423  0.00  0.00    +0.005 A 
ATOM     22  C   UNL     1       4.873  -1.097  24.132  0.00  0.00    +0.000 A 
ATOM     23  C   UNL     1       5.029   1.037  23.012  0.00  0.00    +0.000 A 
ATOM     24  C   UNL     1       5.574   0.079  23.865  0.00  0.00    +0.000 A 
ENDBRANCH  17  18
ENDBRANCH   7  17
TORSDOF 5
ENDMDL
