MODEL 1
REMARK VINA RESULT:      -1.8      0.000      0.000
REMARK  Name = 75368486
REMARK  4 active torsions:
REMARK  status: ('A' for Active; 'I' for Inactive)
REMARK    1  A    between atoms: O_3  and  C_24
REMARK    2  A    between atoms: O_3  and  C_27
REMARK    3  A    between atoms: N_4  and  C_9
REMARK    4  A    between atoms: N_7  and  C_21
REMARK                            x       y       z     vdW  Elec       q    Type
REMARK                         _______ _______ _______ _____ _____    ______ ____
ROOT
ATOM      1  O   UNL     1      14.857 -10.613  29.580  0.00  0.00    -0.252 OA
ATOM      2  O   UNL     1      17.401  -6.973  24.284  0.00  0.00    -0.252 OA
ATOM      4  N   UNL     1      13.911  -8.481  29.926  0.00  0.00    -0.281 N 
ATOM      5  N   UNL     1      15.171  -8.818  28.097  0.00  0.00    -0.278 N 
ATOM      6  N   UNL     1      16.532  -7.066  26.422  0.00  0.00    -0.282 N 
ATOM      7  N   UNL     1      16.119  -5.197  25.047  0.00  0.00    -0.269 N 
ATOM      8  C   UNL     1      14.655  -7.467  27.944  0.00  0.00    +0.112 C 
ATOM     10  C   UNL     1      13.990  -7.179  29.287  0.00  0.00    +0.133 C 
ATOM     13  C   UNL     1      15.785  -6.514  27.572  0.00  0.00    +0.133 C 
ATOM     14  C   UNL     1      14.668  -9.452  29.241  0.00  0.00    +0.305 C 
ATOM     15  C   UNL     1      16.022  -9.390  27.066  0.00  0.00    +0.128 C 
ATOM     19  C   UNL     1      17.113  -8.394  26.673  0.00  0.00    +0.128 C 
ATOM     20  C   UNL     1      16.741  -6.438  25.177  0.00  0.00    +0.307 C 
ATOM     28  H   UNL     1      15.270  -5.030  25.576  0.00  0.00    +0.156 HD
ENDROOT
BRANCH   4   9
ATOM      9  C   UNL     1      13.240  -8.672  31.190  0.00  0.00    +0.078 C 
ATOM     11  C   UNL     1      12.498 -10.011  31.206  0.00  0.00    +0.022 C 
ATOM     12  C   UNL     1      12.294  -7.505  31.484  0.00  0.00    +0.022 C 
ATOM     16  C   UNL     1      11.735 -10.214  32.512  0.00  0.00    +0.002 C 
ATOM     17  C   UNL     1      11.534  -7.714  32.790  0.00  0.00    +0.002 C 
ATOM     18  C   UNL     1      10.795  -9.048  32.805  0.00  0.00    +0.000 C 
ENDBRANCH   4   9
BRANCH   7  21
ATOM     21  C   UNL     1      16.552  -4.097  24.265  0.00  0.00    +0.038 A 
ATOM     22  C   UNL     1      16.644  -2.828  24.837  0.00  0.00    +0.069 A 
ATOM     23  C   UNL     1      16.887  -4.283  22.924  0.00  0.00    +0.023 A 
ATOM     24  C   UNL     1      17.071  -1.745  24.068  0.00  0.00    +0.122 A 
ATOM     25  C   UNL     1      17.313  -3.201  22.155  0.00  0.00    +0.005 A 
ATOM     26  C   UNL     1      17.405  -1.931  22.726  0.00  0.00    +0.046 A 
BRANCH  24   3
ATOM      3  O   UNL     1      17.158  -0.507  24.627  0.00  0.00    -0.495 OA
ATOM     27  C   UNL     1      16.377  -0.267  25.796  0.00  0.00    +0.277 C 
ENDBRANCH  24   3
ENDBRANCH   7  21
TORSDOF 3
ENDMDL
