MODEL 1
REMARK VINA RESULT:      -4.4      0.000      0.000
REMARK  Name = 75536757
REMARK  8 active torsions:
REMARK  status: ('A' for Active; 'I' for Inactive)
REMARK    1  A    between atoms: S_1  and  C_25
REMARK    2  A    between atoms: S_1  and  C_28
REMARK    3  A    between atoms: O_3  and  C_12
REMARK    4  A    between atoms: N_8  and  C_11
REMARK    5  A    between atoms: N_8  and  C_16
REMARK    6  A    between atoms: N_9  and  C_15
REMARK    7  A    between atoms: C_13  and  C_15
REMARK    8  A    between atoms: C_16  and  C_18
REMARK                            x       y       z     vdW  Elec       q    Type
REMARK                         _______ _______ _______ _____ _____    ______ ____
ROOT
ATOM      2  O   UNL     1      -1.084 -10.562  13.551  0.00  0.00    -0.371 OA
ATOM     11  C   UNL     1      -2.834 -10.526  15.156  0.00  0.00    +0.111 C 
ATOM     12  C   UNL     1      -3.405 -10.186  13.792  0.00  0.00    +0.164 C 
ATOM     13  C   UNL     1      -2.335 -10.760  12.874  0.00  0.00    +0.165 C 
ATOM     14  C   UNL     1      -1.352 -10.269  14.934  0.00  0.00    +0.181 C 
ENDROOT
BRANCH  12   3
ATOM      3  O   UNL     1      -4.669 -10.781  13.567  0.00  0.00    -0.388 OA
ATOM     30  H   UNL     1      -5.356 -10.166  13.873  0.00  0.00    +0.210 HD
ENDBRANCH  12   3
BRANCH  11   8
ATOM      8  N   UNL     1      -3.390  -9.728  16.237  0.00  0.00    -0.305 NA
ATOM     29  H   UNL     1      -4.078  -9.080  15.852  0.00  0.00    +0.123 HD
BRANCH   8  16
ATOM     16  C   UNL     1      -4.042 -10.573  17.231  0.00  0.00    +0.116 C 
BRANCH  16  18
ATOM     18  C   UNL     1      -5.520 -10.302  17.314  0.00  0.00    -0.033 A 
ATOM     23  C   UNL     1      -6.178  -9.692  16.246  0.00  0.00    +0.007 A 
ATOM     24  C   UNL     1      -6.232 -10.662  18.458  0.00  0.00    +0.007 A 
ATOM     25  C   UNL     1      -8.261  -9.802  17.466  0.00  0.00    +0.088 A 
ATOM     26  C   UNL     1      -7.549  -9.442  16.322  0.00  0.00    +0.027 A 
ATOM     27  C   UNL     1      -7.603 -10.412  18.534  0.00  0.00    +0.027 A 
BRANCH  25   1
ATOM      1  S   UNL     1      -9.976  -9.491  17.560  0.00  0.00    -0.006 S 
ATOM      6  O   UNL     1     -10.197  -8.051  17.529  0.00  0.00    -0.170 OA
ATOM      7  O   UNL     1     -10.640 -10.344  16.584  0.00  0.00    -0.170 OA
ATOM     28  C   UNL     1     -10.441 -10.052  19.182  0.00  0.00    +0.200 C 
ENDBRANCH  25   1
ENDBRANCH  16  18
ENDBRANCH   8  16
ENDBRANCH  11   8
BRANCH  13  15
ATOM     15  C   UNL     1      -2.293 -10.094  11.511  0.00  0.00    +0.140 C 
BRANCH  15   9
ATOM      4  O   UNL     1      -7.731  -9.705   8.124  0.00  0.00    -0.377 OA
ATOM      5  O   UNL     1      -4.210  -8.059  11.185  0.00  0.00    -0.253 OA
ATOM      9  N   UNL     1      -3.555 -10.227  10.818  0.00  0.00    -0.297 N 
ATOM     10  N   UNL     1      -5.637  -9.456  10.005  0.00  0.00    -0.281 N 
ATOM     17  C   UNL     1      -4.450  -9.170  10.700  0.00  0.00    +0.302 C 
ATOM     19  C   UNL     1      -6.640  -8.401   9.840  0.00  0.00    +0.137 C 
ATOM     20  C   UNL     1      -6.067 -10.780   9.533  0.00  0.00    +0.137 C 
ATOM     21  C   UNL     1      -7.214  -8.410   8.432  0.00  0.00    +0.179 C 
ATOM     22  C   UNL     1      -6.692 -10.684   8.145  0.00  0.00    +0.179 C 
ATOM     31  H   UNL     1      -3.759 -11.141  10.438  0.00  0.00    +0.150 HD
ENDBRANCH  15   9
ENDBRANCH  13  15
TORSDOF 7
ENDMDL
MODEL 2
REMARK VINA RESULT:      -1.7     14.186     17.142
REMARK  Name = 75536757
REMARK  8 active torsions:
REMARK  status: ('A' for Active; 'I' for Inactive)
REMARK    1  A    between atoms: S_1  and  C_25
REMARK    2  A    between atoms: S_1  and  C_28
REMARK    3  A    between atoms: O_3  and  C_12
REMARK    4  A    between atoms: N_8  and  C_11
REMARK    5  A    between atoms: N_8  and  C_16
REMARK    6  A    between atoms: N_9  and  C_15
REMARK    7  A    between atoms: C_13  and  C_15
REMARK    8  A    between atoms: C_16  and  C_18
REMARK                            x       y       z     vdW  Elec       q    Type
REMARK                         _______ _______ _______ _____ _____    ______ ____
ROOT
ATOM      2  O   UNL     1      -5.591   3.090  26.170  0.00  0.00    -0.371 OA
ATOM     11  C   UNL     1      -4.000   4.185  24.788  0.00  0.00    +0.111 C 
ATOM     12  C   UNL     1      -4.248   2.788  24.248  0.00  0.00    +0.164 C 
ATOM     13  C   UNL     1      -5.597   2.466  24.876  0.00  0.00    +0.165 C 
ATOM     14  C   UNL     1      -4.526   4.056  26.209  0.00  0.00    +0.181 C 
ENDROOT
BRANCH  12   3
ATOM      3  O   UNL     1      -4.301   2.752  22.835  0.00  0.00    -0.388 OA
ATOM     30  H   UNL     1      -3.562   2.208  22.514  0.00  0.00    +0.210 HD
ENDBRANCH  12   3
BRANCH  11   8
ATOM      8  N   UNL     1      -2.605   4.592  24.736  0.00  0.00    -0.305 NA
ATOM     29  H   UNL     1      -2.536   5.578  24.992  0.00  0.00    +0.123 HD
BRANCH   8  16
ATOM     16  C   UNL     1      -1.795   3.808  25.660  0.00  0.00    +0.116 C 
BRANCH  16  18
ATOM     18  C   UNL     1      -0.890   2.847  24.936  0.00  0.00    -0.033 A 
ATOM     23  C   UNL     1       0.441   2.712  25.331  0.00  0.00    +0.007 A 
ATOM     24  C   UNL     1      -1.383   2.092  23.872  0.00  0.00    +0.007 A 
ATOM     25  C   UNL     1       0.788   1.066  23.597  0.00  0.00    +0.088 A 
ATOM     26  C   UNL     1       1.280   1.821  24.660  0.00  0.00    +0.027 A 
ATOM     27  C   UNL     1      -0.543   1.201  23.202  0.00  0.00    +0.027 A 
BRANCH  25   1
ATOM      1  S   UNL     1       1.838  -0.051  22.759  0.00  0.00    -0.006 S 
ATOM      6  O   UNL     1       2.114  -1.183  23.633  0.00  0.00    -0.170 OA
ATOM      7  O   UNL     1       1.282  -0.279  21.433  0.00  0.00    -0.170 OA
ATOM     28  C   UNL     1       3.366   0.839  22.565  0.00  0.00    +0.200 C 
ENDBRANCH  25   1
ENDBRANCH  16  18
ENDBRANCH   8  16
ENDBRANCH  11   8
BRANCH  13  15
ATOM     15  C   UNL     1      -5.849   0.977  25.024  0.00  0.00    +0.140 C 
BRANCH  15   9
ATOM      4  O   UNL     1      -0.366  -2.339  25.407  0.00  0.00    -0.377 OA
ATOM      5  O   UNL     1      -4.895  -1.314  23.697  0.00  0.00    -0.253 OA
ATOM      9  N   UNL     1      -4.632   0.264  25.342  0.00  0.00    -0.297 N 
ATOM     10  N   UNL     1      -3.028  -1.451  25.067  0.00  0.00    -0.281 N 
ATOM     17  C   UNL     1      -4.229  -0.864  24.636  0.00  0.00    +0.302 C 
ATOM     19  C   UNL     1      -2.533  -2.649  24.383  0.00  0.00    +0.137 C 
ATOM     20  C   UNL     1      -2.259  -1.074  26.262  0.00  0.00    +0.137 C 
ATOM     21  C   UNL     1      -1.030  -2.568  24.163  0.00  0.00    +0.179 C 
ATOM     22  C   UNL     1      -0.762  -1.087  25.969  0.00  0.00    +0.179 C 
ATOM     31  H   UNL     1      -4.098   0.622  26.121  0.00  0.00    +0.150 HD
ENDBRANCH  15   9
ENDBRANCH  13  15
TORSDOF 7
ENDMDL
MODEL 3
REMARK VINA RESULT:      -0.6     13.779     16.262
REMARK  Name = 75536757
REMARK  8 active torsions:
REMARK  status: ('A' for Active; 'I' for Inactive)
REMARK    1  A    between atoms: S_1  and  C_25
REMARK    2  A    between atoms: S_1  and  C_28
REMARK    3  A    between atoms: O_3  and  C_12
REMARK    4  A    between atoms: N_8  and  C_11
REMARK    5  A    between atoms: N_8  and  C_16
REMARK    6  A    between atoms: N_9  and  C_15
REMARK    7  A    between atoms: C_13  and  C_15
REMARK    8  A    between atoms: C_16  and  C_18
REMARK                            x       y       z     vdW  Elec       q    Type
REMARK                         _______ _______ _______ _____ _____    ______ ____
ROOT
ATOM      2  O   UNL     1      -1.392  -0.625  26.101  0.00  0.00    -0.371 OA
ATOM     11  C   UNL     1      -2.705  -2.454  25.347  0.00  0.00    +0.111 C 
ATOM     12  C   UNL     1      -1.839  -1.962  24.203  0.00  0.00    +0.164 C 
ATOM     13  C   UNL     1      -0.749  -1.216  24.960  0.00  0.00    +0.165 C 
ATOM     14  C   UNL     1      -2.669  -1.260  26.288  0.00  0.00    +0.181 C 
ENDROOT
BRANCH  12   3
ATOM      3  O   UNL     1      -1.312  -3.019  23.424  0.00  0.00    -0.388 OA
ATOM     30  H   UNL     1      -0.495  -2.708  22.999  0.00  0.00    +0.210 HD
ENDBRANCH  12   3
BRANCH  11   8
ATOM      8  N   UNL     1      -4.055  -2.816  24.944  0.00  0.00    -0.305 NA
ATOM     29  H   UNL     1      -4.691  -2.652  25.726  0.00  0.00    +0.123 HD
BRANCH   8  16
ATOM     16  C   UNL     1      -4.493  -2.018  23.805  0.00  0.00    +0.116 C 
BRANCH  16  18
ATOM     18  C   UNL     1      -4.448  -0.543  24.103  0.00  0.00    -0.033 A 
ATOM     23  C   UNL     1      -5.272  -0.007  25.093  0.00  0.00    +0.007 A 
ATOM     24  C   UNL     1      -3.583   0.286  23.389  0.00  0.00    +0.007 A 
ATOM     25  C   UNL     1      -4.365   2.190  24.656  0.00  0.00    +0.088 A 
ATOM     26  C   UNL     1      -5.230   1.360  25.369  0.00  0.00    +0.027 A 
ATOM     27  C   UNL     1      -3.542   1.653  23.666  0.00  0.00    +0.027 A 
BRANCH  25   1
ATOM      1  S   UNL     1      -4.312   3.900  25.004  0.00  0.00    -0.006 S 
ATOM      6  O   UNL     1      -3.931   4.616  23.794  0.00  0.00    -0.170 OA
ATOM      7  O   UNL     1      -5.543   4.254  25.697  0.00  0.00    -0.170 OA
ATOM     28  C   UNL     1      -2.967   4.077  26.154  0.00  0.00    +0.200 C 
ENDBRANCH  25   1
ENDBRANCH  16  18
ENDBRANCH   8  16
ENDBRANCH  11   8
BRANCH  13  15
ATOM     15  C   UNL     1      -0.076  -0.136  24.132  0.00  0.00    +0.140 C 
BRANCH  15   9
ATOM      4  O   UNL     1       6.296  -0.538  23.477  0.00  0.00    -0.377 OA
ATOM      5  O   UNL     1       1.887   1.698  23.295  0.00  0.00    -0.253 OA
ATOM      9  N   UNL     1       1.318  -0.440  23.898  0.00  0.00    -0.297 N 
ATOM     10  N   UNL     1       3.543   0.075  23.291  0.00  0.00    -0.281 N 
ATOM     17  C   UNL     1       2.227   0.526  23.484  0.00  0.00    +0.302 C 
ATOM     19  C   UNL     1       4.566   1.026  22.848  0.00  0.00    +0.137 C 
ATOM     20  C   UNL     1       3.998  -1.322  23.345  0.00  0.00    +0.137 C 
ATOM     21  C   UNL     1       5.869   0.818  23.605  0.00  0.00    +0.179 C 
ATOM     22  C   UNL     1       5.342  -1.427  24.059  0.00  0.00    +0.179 C 
ATOM     31  H   UNL     1       1.591  -1.404  24.035  0.00  0.00    +0.150 HD
ENDBRANCH  15   9
ENDBRANCH  13  15
TORSDOF 7
ENDMDL
MODEL 4
REMARK VINA RESULT:      -0.5     14.159     16.455
REMARK  Name = 75536757
REMARK  8 active torsions:
REMARK  status: ('A' for Active; 'I' for Inactive)
REMARK    1  A    between atoms: S_1  and  C_25
REMARK    2  A    between atoms: S_1  and  C_28
REMARK    3  A    between atoms: O_3  and  C_12
REMARK    4  A    between atoms: N_8  and  C_11
REMARK    5  A    between atoms: N_8  and  C_16
REMARK    6  A    between atoms: N_9  and  C_15
REMARK    7  A    between atoms: C_13  and  C_15
REMARK    8  A    between atoms: C_16  and  C_18
REMARK                            x       y       z     vdW  Elec       q    Type
REMARK                         _______ _______ _______ _____ _____    ______ ____
ROOT
ATOM      2  O   UNL     1      -1.601  -1.471  26.339  0.00  0.00    -0.371 OA
ATOM     11  C   UNL     1      -3.251  -2.679  25.132  0.00  0.00    +0.111 C 
ATOM     12  C   UNL     1      -2.030  -2.493  24.251  0.00  0.00    +0.164 C 
ATOM     13  C   UNL     1      -0.955  -2.215  25.293  0.00  0.00    +0.165 C 
ATOM     14  C   UNL     1      -3.025  -1.610  26.190  0.00  0.00    +0.181 C 
ENDROOT
BRANCH  12   3
ATOM      3  O   UNL     1      -1.734  -3.642  23.481  0.00  0.00    -0.388 OA
ATOM     30  H   UNL     1      -0.962  -3.446  22.923  0.00  0.00    +0.210 HD
ENDBRANCH  12   3
BRANCH  11   8
ATOM      8  N   UNL     1      -4.511  -2.516  24.425  0.00  0.00    -0.305 NA
ATOM     29  H   UNL     1      -5.220  -2.184  25.080  0.00  0.00    +0.123 HD
BRANCH   8  16
ATOM     16  C   UNL     1      -4.383  -1.551  23.339  0.00  0.00    +0.116 C 
BRANCH  16  18
ATOM     18  C   UNL     1      -4.460  -0.133  23.838  0.00  0.00    -0.033 A 
ATOM     23  C   UNL     1      -3.459   0.779  23.502  0.00  0.00    +0.007 A 
ATOM     24  C   UNL     1      -5.532   0.270  24.634  0.00  0.00    +0.007 A 
ATOM     25  C   UNL     1      -4.603   2.497  24.759  0.00  0.00    +0.088 A 
ATOM     26  C   UNL     1      -3.531   2.094  23.963  0.00  0.00    +0.027 A 
ATOM     27  C   UNL     1      -5.603   1.585  25.095  0.00  0.00    +0.027 A 
BRANCH  25   1
ATOM      1  S   UNL     1      -4.693   4.143  25.334  0.00  0.00    -0.006 S 
ATOM      6  O   UNL     1      -4.004   5.012  24.388  0.00  0.00    -0.170 OA
ATOM      7  O   UNL     1      -6.077   4.418  25.690  0.00  0.00    -0.170 OA
ATOM     28  C   UNL     1      -3.733   4.143  26.831  0.00  0.00    +0.200 C 
ENDBRANCH  25   1
ENDBRANCH  16  18
ENDBRANCH   8  16
ENDBRANCH  11   8
BRANCH  13  15
ATOM     15  C   UNL     1       0.219  -1.423  24.748  0.00  0.00    +0.140 C 
BRANCH  15   9
ATOM      4  O   UNL     1      -0.749   4.908  25.169  0.00  0.00    -0.377 OA
ATOM      5  O   UNL     1       0.523   0.691  22.915  0.00  0.00    -0.253 OA
ATOM      9  N   UNL     1       0.097  -0.016  25.056  0.00  0.00    -0.297 N 
ATOM     10  N   UNL     1       0.120   2.292  24.544  0.00  0.00    -0.281 N 
ATOM     17  C   UNL     1       0.262   0.970  24.090  0.00  0.00    +0.302 C 
ATOM     19  C   UNL     1       0.285   3.395  23.595  0.00  0.00    +0.137 C 
ATOM     20  C   UNL     1      -0.036   2.715  25.944  0.00  0.00    +0.137 C 
ATOM     21  C   UNL     1      -0.774   4.464  23.812  0.00  0.00    +0.179 C 
ATOM     22  C   UNL     1      -1.065   3.836  26.058  0.00  0.00    +0.179 C 
ATOM     31  H   UNL     1      -0.098   0.211  26.021  0.00  0.00    +0.150 HD
ENDBRANCH  15   9
ENDBRANCH  13  15
TORSDOF 7
ENDMDL
MODEL 5
REMARK VINA RESULT:      -0.5     14.266     16.553
REMARK  Name = 75536757
REMARK  8 active torsions:
REMARK  status: ('A' for Active; 'I' for Inactive)
REMARK    1  A    between atoms: S_1  and  C_25
REMARK    2  A    between atoms: S_1  and  C_28
REMARK    3  A    between atoms: O_3  and  C_12
REMARK    4  A    between atoms: N_8  and  C_11
REMARK    5  A    between atoms: N_8  and  C_16
REMARK    6  A    between atoms: N_9  and  C_15
REMARK    7  A    between atoms: C_13  and  C_15
REMARK    8  A    between atoms: C_16  and  C_18
REMARK                            x       y       z     vdW  Elec       q    Type
REMARK                         _______ _______ _______ _____ _____    ______ ____
ROOT
ATOM      2  O   UNL     1      -0.603   3.840  24.445  0.00  0.00    -0.371 OA
ATOM     11  C   UNL     1      -2.820   4.505  24.977  0.00  0.00    +0.111 C 
ATOM     12  C   UNL     1      -2.279   3.638  26.100  0.00  0.00    +0.164 C 
ATOM     13  C   UNL     1      -0.779   3.760  25.869  0.00  0.00    +0.165 C 
ATOM     14  C   UNL     1      -1.871   4.153  23.842  0.00  0.00    +0.181 C 
ENDROOT
BRANCH  12   3
ATOM      3  O   UNL     1      -2.656   4.107  27.380  0.00  0.00    -0.388 OA
ATOM     30  H   UNL     1      -3.341   3.515  27.734  0.00  0.00    +0.210 HD
ENDBRANCH  12   3
BRANCH  11   8
ATOM      8  N   UNL     1      -4.212   4.238  24.652  0.00  0.00    -0.305 NA
ATOM     29  H   UNL     1      -4.688   5.123  24.477  0.00  0.00    +0.123 HD
BRANCH   8  16
ATOM     16  C   UNL     1      -4.323   3.400  23.465  0.00  0.00    +0.116 C 
BRANCH  16  18
ATOM     18  C   UNL     1      -4.094   1.946  23.781  0.00  0.00    -0.033 A 
ATOM     23  C   UNL     1      -3.361   1.149  22.901  0.00  0.00    +0.007 A 
ATOM     24  C   UNL     1      -4.613   1.397  24.953  0.00  0.00    +0.007 A 
ATOM     25  C   UNL     1      -3.667  -0.748  24.366  0.00  0.00    +0.088 A 
ATOM     26  C   UNL     1      -3.148  -0.199  23.194  0.00  0.00    +0.027 A 
ATOM     27  C   UNL     1      -4.400   0.049  25.246  0.00  0.00    +0.027 A 
BRANCH  25   1
ATOM      1  S   UNL     1      -3.398  -2.434  24.733  0.00  0.00    -0.006 S 
ATOM      6  O   UNL     1      -3.477  -2.621  26.176  0.00  0.00    -0.170 OA
ATOM      7  O   UNL     1      -4.249  -3.224  23.854  0.00  0.00    -0.170 OA
ATOM     28  C   UNL     1      -1.708  -2.725  24.264  0.00  0.00    +0.200 C 
ENDBRANCH  25   1
ENDBRANCH  16  18
ENDBRANCH   8  16
ENDBRANCH  11   8
BRANCH  13  15
ATOM     15  C   UNL     1       0.010   2.587  26.420  0.00  0.00    +0.140 C 
BRANCH  15   9
ATOM      4  O   UNL     1       2.738  -0.192  21.318  0.00  0.00    -0.377 OA
ATOM      5  O   UNL     1      -0.830   0.555  24.663  0.00  0.00    -0.253 OA
ATOM      9  N   UNL     1       0.822   1.968  25.397  0.00  0.00    -0.297 N 
ATOM     10  N   UNL     1       1.242   0.459  23.627  0.00  0.00    -0.281 N 
ATOM     17  C   UNL     1       0.331   0.967  24.567  0.00  0.00    +0.302 C 
ATOM     19  C   UNL     1       0.811  -0.605  22.716  0.00  0.00    +0.137 C 
ATOM     20  C   UNL     1       2.675   0.781  23.546  0.00  0.00    +0.137 C 
ATOM     21  C   UNL     1       1.319  -0.353  21.305  0.00  0.00    +0.179 C 
ATOM     22  C   UNL     1       3.111   0.947  22.094  0.00  0.00    +0.179 C 
ATOM     31  H   UNL     1       1.776   2.293  25.331  0.00  0.00    +0.150 HD
ENDBRANCH  15   9
ENDBRANCH  13  15
TORSDOF 7
ENDMDL
