MODEL 1
REMARK VINA RESULT:       2.2      0.000      0.000
REMARK  Name = 11912975
REMARK  5 active torsions:
REMARK  status: ('A' for Active; 'I' for Inactive)
REMARK    1  A    between atoms: S_1  and  N_7
REMARK    2  A    between atoms: S_1  and  C_18
REMARK    3  A    between atoms: N_7  and  C_13
REMARK    4  A    between atoms: N_8  and  C_14
REMARK    5  A    between atoms: C_24  and  C_29
REMARK                            x       y       z     vdW  Elec       q    Type
REMARK                         _______ _______ _______ _____ _____    ______ ____
ROOT
ATOM      2  O   UNL     1      -1.031   2.668  26.914  0.00  0.00    -0.370 OA
ATOM      3  O   UNL     1      -1.161   4.301  24.258  0.00  0.00    -0.370 OA
ATOM     11  C   UNL     1      -2.127   3.522  24.982  0.00  0.00    +0.170 C 
ATOM     12  C   UNL     1      -1.397   2.328  25.566  0.00  0.00    +0.171 C 
ATOM     13  C   UNL     1      -2.614   4.282  26.194  0.00  0.00    +0.133 C 
ATOM     14  C   UNL     1      -0.162   2.192  24.706  0.00  0.00    +0.130 C 
ATOM     15  C   UNL     1      -1.544   3.971  27.225  0.00  0.00    +0.183 C 
ATOM     16  C   UNL     1       0.105   3.625  24.280  0.00  0.00    +0.185 C 
ENDROOT
BRANCH  14   8
ATOM      8  N   UNL     1      -0.451   1.372  23.550  0.00  0.00    -0.306 N 
ATOM      9  N   UNL     1       1.772   0.641  23.375  0.00  0.00    -0.211 NA
ATOM     10  N   UNL     1       0.092  -0.119  21.822  0.00  0.00    -0.223 NA
ATOM     17  C   UNL     1       0.500   0.608  22.896  0.00  0.00    +0.216 A 
ATOM     24  C   UNL     1       2.672  -0.116  22.714  0.00  0.00    +0.111 A 
ATOM     25  C   UNL     1       1.045  -0.853  21.210  0.00  0.00    +0.116 A 
ATOM     26  C   UNL     1       2.364  -0.890  21.615  0.00  0.00    +0.051 A 
ATOM     36  H   UNL     1      -1.407   1.299  23.218  0.00  0.00    +0.149 HD
BRANCH  24  29
ATOM      6  O   UNL     1       4.436  -1.191  23.860  0.00  0.00    -0.461 OA
ATOM     29  C   UNL     1       4.009  -0.060  23.243  0.00  0.00    +0.153 A 
ATOM     32  C   UNL     1       4.985   0.906  23.268  0.00  0.00    +0.051 A 
ATOM     33  C   UNL     1       6.086   0.333  23.946  0.00  0.00    +0.042 A 
ATOM     34  C   UNL     1       5.703  -0.943  24.286  0.00  0.00    +0.196 A 
ENDBRANCH  24  29
ENDBRANCH  14   8
BRANCH  13   7
ATOM      7  N   UNL     1      -3.908   3.808  26.623  0.00  0.00    -0.182 NA
ATOM     35  H   UNL     1      -3.965   3.388  27.559  0.00  0.00    +0.148 HD
BRANCH   7   1
ATOM      1  S   UNL     1      -5.079   3.386  25.468  0.00  0.00    +0.059 S 
ATOM      4  O   UNL     1      -5.024   4.322  24.361  0.00  0.00    -0.153 OA
ATOM      5  O   UNL     1      -6.335   3.134  26.147  0.00  0.00    -0.153 OA
BRANCH   1  18
ATOM     18  C   UNL     1      -4.481   1.826  24.894  0.00  0.00    +0.106 A 
ATOM     19  C   UNL     1      -4.332   0.786  25.796  0.00  0.00    +0.037 A 
ATOM     20  C   UNL     1      -4.172   1.672  23.557  0.00  0.00    +0.029 A 
ATOM     21  C   UNL     1      -3.857  -0.461  25.357  0.00  0.00    -0.016 A 
ATOM     22  C   UNL     1      -3.700   0.440  23.102  0.00  0.00    +0.010 A 
ATOM     23  C   UNL     1      -3.536  -0.636  23.990  0.00  0.00    -0.018 A 
ATOM     27  C   UNL     1      -3.695  -1.537  26.245  0.00  0.00    +0.008 A 
ATOM     28  C   UNL     1      -3.061  -1.882  23.550  0.00  0.00    +0.008 A 
ATOM     30  C   UNL     1      -3.221  -2.769  25.791  0.00  0.00    +0.001 A 
ATOM     31  C   UNL     1      -2.905  -2.941  24.446  0.00  0.00    +0.001 A 
ENDBRANCH   1  18
ENDBRANCH   7   1
ENDBRANCH  13   7
TORSDOF 5
ENDMDL
MODEL 2
REMARK VINA RESULT:       3.2      2.318      7.110
REMARK  Name = 11912975
REMARK  5 active torsions:
REMARK  status: ('A' for Active; 'I' for Inactive)
REMARK    1  A    between atoms: S_1  and  N_7
REMARK    2  A    between atoms: S_1  and  C_18
REMARK    3  A    between atoms: N_7  and  C_13
REMARK    4  A    between atoms: N_8  and  C_14
REMARK    5  A    between atoms: C_24  and  C_29
REMARK                            x       y       z     vdW  Elec       q    Type
REMARK                         _______ _______ _______ _____ _____    ______ ____
ROOT
ATOM      2  O   UNL     1      -1.109   2.727  23.307  0.00  0.00    -0.370 OA
ATOM      3  O   UNL     1      -1.041   3.905  26.196  0.00  0.00    -0.370 OA
ATOM     11  C   UNL     1      -1.419   2.625  25.664  0.00  0.00    +0.170 C 
ATOM     12  C   UNL     1      -2.105   2.874  24.334  0.00  0.00    +0.171 C 
ATOM     13  C   UNL     1      -0.191   1.824  25.300  0.00  0.00    +0.133 C 
ATOM     14  C   UNL     1      -2.564   4.311  24.418  0.00  0.00    +0.130 C 
ATOM     15  C   UNL     1       0.134   2.340  23.910  0.00  0.00    +0.183 C 
ATOM     16  C   UNL     1      -1.522   4.940  25.326  0.00  0.00    +0.185 C 
ENDROOT
BRANCH  14   8
ATOM      8  N   UNL     1      -3.871   4.378  25.033  0.00  0.00    -0.306 N 
ATOM      9  N   UNL     1      -4.129   2.045  24.999  0.00  0.00    -0.211 NA
ATOM     10  N   UNL     1      -5.852   3.469  25.902  0.00  0.00    -0.223 NA
ATOM     17  C   UNL     1      -4.640   3.264  25.320  0.00  0.00    +0.216 A 
ATOM     24  C   UNL     1      -4.905   0.982  25.294  0.00  0.00    +0.111 A 
ATOM     25  C   UNL     1      -6.575   2.361  26.168  0.00  0.00    +0.116 A 
ATOM     26  C   UNL     1      -6.149   1.080  25.884  0.00  0.00    +0.051 A 
ATOM     36  H   UNL     1      -4.238   5.277  25.326  0.00  0.00    +0.149 HD
BRANCH  24  29
ATOM      6  O   UNL     1      -3.641  -0.909  25.929  0.00  0.00    -0.461 OA
ATOM     29  C   UNL     1      -4.338  -0.293  24.942  0.00  0.00    +0.153 A 
ATOM     32  C   UNL     1      -4.341  -1.054  23.798  0.00  0.00    +0.051 A 
ATOM     33  C   UNL     1      -3.595  -2.217  24.102  0.00  0.00    +0.042 A 
ATOM     34  C   UNL     1      -3.190  -2.082  25.409  0.00  0.00    +0.196 A 
ENDBRANCH  24  29
ENDBRANCH  14   8
BRANCH  13   7
ATOM      7  N   UNL     1      -0.478   0.409  25.278  0.00  0.00    -0.182 NA
ATOM     35  H   UNL     1      -0.468  -0.084  26.180  0.00  0.00    +0.148 HD
BRANCH   7   1
ATOM      1  S   UNL     1      -0.215  -0.484  23.858  0.00  0.00    +0.059 S 
ATOM      4  O   UNL     1      -0.974   0.104  22.771  0.00  0.00    -0.153 OA
ATOM      5  O   UNL     1      -0.351  -1.896  24.162  0.00  0.00    -0.153 OA
BRANCH   1  18
ATOM     18  C   UNL     1       1.500  -0.186  23.551  0.00  0.00    +0.106 A 
ATOM     19  C   UNL     1       2.430  -1.135  23.938  0.00  0.00    +0.037 A 
ATOM     20  C   UNL     1       1.880   0.988  22.932  0.00  0.00    +0.029 A 
ATOM     21  C   UNL     1       3.797  -0.914  23.702  0.00  0.00    -0.016 A 
ATOM     22  C   UNL     1       3.233   1.225  22.689  0.00  0.00    +0.010 A 
ATOM     23  C   UNL     1       4.204   0.284  23.068  0.00  0.00    -0.018 A 
ATOM     27  C   UNL     1       4.768  -1.856  24.081  0.00  0.00    +0.008 A 
ATOM     28  C   UNL     1       5.571   0.506  22.832  0.00  0.00    +0.008 A 
ATOM     30  C   UNL     1       6.122  -1.619  23.839  0.00  0.00    +0.001 A 
ATOM     31  C   UNL     1       6.522  -0.440  23.215  0.00  0.00    +0.001 A 
ENDBRANCH   1  18
ENDBRANCH   7   1
ENDBRANCH  13   7
TORSDOF 5
ENDMDL
MODEL 3
REMARK VINA RESULT:       5.4      2.521      7.096
REMARK  Name = 11912975
REMARK  5 active torsions:
REMARK  status: ('A' for Active; 'I' for Inactive)
REMARK    1  A    between atoms: S_1  and  N_7
REMARK    2  A    between atoms: S_1  and  C_18
REMARK    3  A    between atoms: N_7  and  C_13
REMARK    4  A    between atoms: N_8  and  C_14
REMARK    5  A    between atoms: C_24  and  C_29
REMARK                            x       y       z     vdW  Elec       q    Type
REMARK                         _______ _______ _______ _____ _____    ______ ____
ROOT
ATOM      2  O   UNL     1      -2.371  -1.520  26.232  0.00  0.00    -0.370 OA
ATOM      3  O   UNL     1      -3.567  -1.743  23.358  0.00  0.00    -0.370 OA
ATOM     11  C   UNL     1      -2.609  -0.856  23.960  0.00  0.00    +0.170 C 
ATOM     12  C   UNL     1      -3.067  -0.594  25.381  0.00  0.00    +0.171 C 
ATOM     13  C   UNL     1      -1.279  -1.554  24.126  0.00  0.00    +0.133 C 
ATOM     14  C   UNL     1      -4.544  -0.912  25.358  0.00  0.00    +0.130 C 
ATOM     15  C   UNL     1      -1.462  -2.296  25.437  0.00  0.00    +0.183 C 
ATOM     16  C   UNL     1      -4.637  -1.981  24.285  0.00  0.00    +0.185 C 
ENDROOT
BRANCH  14   8
ATOM      8  N   UNL     1      -5.297   0.259  24.965  0.00  0.00    -0.306 N 
ATOM      9  N   UNL     1      -3.440   1.673  25.217  0.00  0.00    -0.211 NA
ATOM     10  N   UNL     1      -5.573   2.543  24.509  0.00  0.00    -0.223 NA
ATOM     17  C   UNL     1      -4.754   1.530  24.895  0.00  0.00    +0.216 A 
ATOM     24  C   UNL     1      -2.945   2.925  25.137  0.00  0.00    +0.111 A 
ATOM     25  C   UNL     1      -5.011   3.769  24.451  0.00  0.00    +0.116 A 
ATOM     26  C   UNL     1      -3.690   4.022  24.756  0.00  0.00    +0.051 A 
ATOM     36  H   UNL     1      -6.262   0.155  24.672  0.00  0.00    +0.149 HD
BRANCH  24  29
ATOM      6  O   UNL     1      -1.025   1.978  26.137  0.00  0.00    -0.461 OA
ATOM     29  C   UNL     1      -1.554   3.045  25.484  0.00  0.00    +0.153 A 
ATOM     32  C   UNL     1      -0.606   4.022  25.301  0.00  0.00    +0.051 A 
ATOM     33  C   UNL     1       0.585   3.525  25.880  0.00  0.00    +0.042 A 
ATOM     34  C   UNL     1       0.279   2.279  26.375  0.00  0.00    +0.196 A 
ENDBRANCH  24  29
ENDBRANCH  14   8
BRANCH  13   7
ATOM      7  N   UNL     1      -0.197  -0.603  24.210  0.00  0.00    -0.182 NA
ATOM     35  H   UNL     1       0.020  -0.222  25.139  0.00  0.00    +0.148 HD
BRANCH   7   1
ATOM      1  S   UNL     1       0.250   0.292  22.837  0.00  0.00    +0.059 S 
ATOM      4  O   UNL     1      -0.278   1.639  22.946  0.00  0.00    -0.153 OA
ATOM      5  O   UNL     1      -0.019  -0.503  21.654  0.00  0.00    -0.153 OA
BRANCH   1  18
ATOM     18  C   UNL     1       2.006   0.378  23.012  0.00  0.00    +0.106 A 
ATOM     19  C   UNL     1       2.701  -0.749  23.414  0.00  0.00    +0.037 A 
ATOM     20  C   UNL     1       2.653   1.569  22.747  0.00  0.00    +0.029 A 
ATOM     21  C   UNL     1       4.097  -0.698  23.560  0.00  0.00    -0.016 A 
ATOM     22  C   UNL     1       4.039   1.639  22.884  0.00  0.00    +0.010 A 
ATOM     23  C   UNL     1       4.776   0.514  23.290  0.00  0.00    -0.018 A 
ATOM     27  C   UNL     1       4.834  -1.823  23.965  0.00  0.00    +0.008 A 
ATOM     28  C   UNL     1       6.172   0.567  23.436  0.00  0.00    +0.008 A 
ATOM     30  C   UNL     1       6.221  -1.753  24.104  0.00  0.00    +0.001 A 
ATOM     31  C   UNL     1       6.888  -0.560  23.840  0.00  0.00    +0.001 A 
ENDBRANCH   1  18
ENDBRANCH   7   1
ENDBRANCH  13   7
TORSDOF 5
ENDMDL
