MODEL 1
REMARK VINA RESULT:       1.8      0.000      0.000
REMARK  Name = 7674050
REMARK  5 active torsions:
REMARK  status: ('A' for Active; 'I' for Inactive)
REMARK    1  A    between atoms: S_1  and  N_8
REMARK    2  A    between atoms: S_1  and  C_22
REMARK    3  A    between atoms: N_10  and  C_18
REMARK    4  A    between atoms: C_13  and  C_17
REMARK    5  A    between atoms: C_21  and  C_25
REMARK                            x       y       z     vdW  Elec       q    Type
REMARK                         _______ _______ _______ _____ _____    ______ ____
ROOT
ATOM      6  O   UNL     1       1.710  -0.303  20.964  0.00  0.00    -0.270 OA
ATOM      8  N   UNL     1      -1.809  -0.645  24.595  0.00  0.00    -0.162 NA
ATOM      9  N   UNL     1       0.592  -0.650  22.989  0.00  0.00    -0.294 N 
ATOM     13  C   UNL     1      -1.882  -0.349  23.136  0.00  0.00    +0.183 C 
ATOM     14  C   UNL     1      -0.699  -0.904  22.349  0.00  0.00    +0.138 C 
ATOM     15  C   UNL     1      -0.614  -1.419  25.019  0.00  0.00    +0.129 C 
ATOM     16  C   UNL     1       0.636  -0.759  24.452  0.00  0.00    +0.125 C 
ATOM     21  C   UNL     1       1.713  -0.401  22.190  0.00  0.00    +0.248 C 
ENDROOT
BRANCH  21  25
ATOM     12  N   UNL     1       4.846   1.202  23.494  0.00  0.00    -0.263 NA
ATOM     25  C   UNL     1       3.014  -0.241  22.859  0.00  0.00    +0.055 A 
ATOM     30  C   UNL     1       3.642  -1.319  23.474  0.00  0.00    +0.016 A 
ATOM     31  C   UNL     1       3.653   0.988  22.897  0.00  0.00    +0.123 A 
ATOM     33  C   UNL     1       4.870  -1.138  24.099  0.00  0.00    +0.020 A 
ATOM     34  C   UNL     1       5.426   0.131  24.082  0.00  0.00    +0.111 A 
ENDBRANCH  21  25
BRANCH  13  17
ATOM      3  O   UNL     1      -2.741   1.729  22.345  0.00  0.00    -0.274 OA
ATOM     10  N   UNL     1      -0.978   1.742  23.865  0.00  0.00    -0.303 N 
ATOM     17  C   UNL     1      -1.935   1.144  23.063  0.00  0.00    +0.234 C 
ATOM     35  H   UNL     1      -0.383   1.156  24.444  0.00  0.00    +0.149 HD
BRANCH  10  18
ATOM      7  O   UNL     1       0.441   2.740  25.976  0.00  0.00    -0.274 OA
ATOM     11  N   UNL     1      -0.667   4.733  25.856  0.00  0.00    -0.314 N 
ATOM     18  C   UNL     1      -0.806   3.168  23.955  0.00  0.00    +0.159 C 
ATOM     19  C   UNL     1      -2.082   3.894  23.553  0.00  0.00    +0.033 C 
ATOM     20  C   UNL     1      -1.930   5.382  23.825  0.00  0.00    +0.021 C 
ATOM     23  C   UNL     1      -0.315   3.494  25.361  0.00  0.00    +0.233 C 
ATOM     24  C   UNL     1      -1.700   5.594  25.310  0.00  0.00    +0.104 C 
ATOM     36  H   UNL     1      -0.298   4.984  26.769  0.00  0.00    +0.149 HD
ENDBRANCH  10  18
ENDBRANCH  13  17
BRANCH   8   1
ATOM      1  S   UNL     1      -3.277  -1.036  25.377  0.00  0.00    +0.062 S 
ATOM      4  O   UNL     1      -3.001  -1.394  26.752  0.00  0.00    -0.153 OA
ATOM      5  O   UNL     1      -4.048  -1.913  24.520  0.00  0.00    -0.153 OA
BRANCH   1  22
ATOM      2  F   UNL     1      -5.884   4.250  25.384  0.00  0.00    -0.205 F 
ATOM     22  C   UNL     1      -4.059   0.547  25.379  0.00  0.00    +0.106 A 
ATOM     26  C   UNL     1      -3.392   1.652  25.909  0.00  0.00    +0.031 A 
ATOM     27  C   UNL     1      -5.341   0.693  24.849  0.00  0.00    +0.031 A 
ATOM     28  C   UNL     1      -4.010   2.903  25.911  0.00  0.00    +0.040 A 
ATOM     29  C   UNL     1      -5.957   1.944  24.851  0.00  0.00    +0.040 A 
ATOM     32  C   UNL     1      -5.292   3.049  25.383  0.00  0.00    +0.124 A 
ENDBRANCH   1  22
ENDBRANCH   8   1
TORSDOF 5
ENDMDL
MODEL 2
REMARK VINA RESULT:       3.9      1.359      1.728
REMARK  Name = 7674050
REMARK  5 active torsions:
REMARK  status: ('A' for Active; 'I' for Inactive)
REMARK    1  A    between atoms: S_1  and  N_8
REMARK    2  A    between atoms: S_1  and  C_22
REMARK    3  A    between atoms: N_10  and  C_18
REMARK    4  A    between atoms: C_13  and  C_17
REMARK    5  A    between atoms: C_21  and  C_25
REMARK                            x       y       z     vdW  Elec       q    Type
REMARK                         _______ _______ _______ _____ _____    ______ ____
ROOT
ATOM      6  O   UNL     1       1.692   0.237  21.480  0.00  0.00    -0.270 OA
ATOM      8  N   UNL     1      -1.458  -1.219  25.174  0.00  0.00    -0.162 NA
ATOM      9  N   UNL     1       0.763  -0.746  23.388  0.00  0.00    -0.294 N 
ATOM     13  C   UNL     1      -1.658  -0.443  23.918  0.00  0.00    +0.183 C 
ATOM     14  C   UNL     1      -0.600  -0.730  22.857  0.00  0.00    +0.138 C 
ATOM     15  C   UNL     1      -0.279  -2.124  25.171  0.00  0.00    +0.129 C 
ATOM     16  C   UNL     1       0.947  -1.347  24.715  0.00  0.00    +0.125 C 
ATOM     21  C   UNL     1       1.812  -0.272  22.593  0.00  0.00    +0.248 C 
ENDROOT
BRANCH  21  25
ATOM     12  N   UNL     1       4.898  -1.757  24.129  0.00  0.00    -0.263 NA
ATOM     25  C   UNL     1       3.182  -0.386  23.119  0.00  0.00    +0.055 A 
ATOM     30  C   UNL     1       4.044   0.705  23.119  0.00  0.00    +0.016 A 
ATOM     31  C   UNL     1       3.653  -1.585  23.632  0.00  0.00    +0.123 A 
ATOM     33  C   UNL     1       5.332   0.567  23.622  0.00  0.00    +0.020 A 
ATOM     34  C   UNL     1       5.708  -0.674  24.112  0.00  0.00    +0.111 A 
ENDBRANCH  21  25
BRANCH  13  17
ATOM      3  O   UNL     1      -1.273   1.308  25.488  0.00  0.00    -0.274 OA
ATOM     10  N   UNL     1      -2.029   1.852  23.355  0.00  0.00    -0.303 N 
ATOM     17  C   UNL     1      -1.619   0.987  24.355  0.00  0.00    +0.234 C 
ATOM     35  H   UNL     1      -2.264   1.475  22.441  0.00  0.00    +0.149 HD
BRANCH  10  18
ATOM      7  O   UNL     1       0.302   3.228  23.731  0.00  0.00    -0.274 OA
ATOM     11  N   UNL     1      -0.788   4.884  24.865  0.00  0.00    -0.314 N 
ATOM     18  C   UNL     1      -2.103   3.279  23.530  0.00  0.00    +0.159 C 
ATOM     19  C   UNL     1      -3.296   3.658  24.397  0.00  0.00    +0.033 C 
ATOM     20  C   UNL     1      -3.248   5.145  24.709  0.00  0.00    +0.021 C 
ATOM     23  C   UNL     1      -0.759   3.756  24.071  0.00  0.00    +0.233 C 
ATOM     24  C   UNL     1      -1.976   5.449  25.479  0.00  0.00    +0.104 C 
ATOM     36  H   UNL     1       0.107   5.244  25.183  0.00  0.00    +0.149 HD
ENDBRANCH  10  18
ENDBRANCH  13  17
BRANCH   8   1
ATOM      1  S   UNL     1      -2.862  -1.811  25.946  0.00  0.00    +0.062 S 
ATOM      4  O   UNL     1      -2.686  -1.723  27.381  0.00  0.00    -0.153 OA
ATOM      5  O   UNL     1      -3.255  -3.056  25.320  0.00  0.00    -0.153 OA
BRANCH   1  22
ATOM      2  F   UNL     1      -6.743   2.328  24.350  0.00  0.00    -0.205 F 
ATOM     22  C   UNL     1      -4.024  -0.571  25.469  0.00  0.00    +0.106 A 
ATOM     26  C   UNL     1      -4.593  -0.603  24.195  0.00  0.00    +0.031 A 
ATOM     27  C   UNL     1      -4.374   0.439  26.365  0.00  0.00    +0.031 A 
ATOM     28  C   UNL     1      -5.511   0.377  23.818  0.00  0.00    +0.040 A 
ATOM     29  C   UNL     1      -5.293   1.419  25.987  0.00  0.00    +0.040 A 
ATOM     32  C   UNL     1      -5.861   1.388  24.713  0.00  0.00    +0.124 A 
ENDBRANCH   1  22
ENDBRANCH   8   1
TORSDOF 5
ENDMDL
