MODEL 1
REMARK VINA RESULT:      -0.8      0.000      0.000
REMARK  Name = 75537092
REMARK  6 active torsions:
REMARK  status: ('A' for Active; 'I' for Inactive)
REMARK    1  A    between atoms: O_3  and  C_24
REMARK    2  A    between atoms: O_3  and  C_27
REMARK    3  A    between atoms: N_5  and  C_14
REMARK    4  A    between atoms: N_6  and  C_15
REMARK    5  A    between atoms: C_14  and  C_17
REMARK    6  A    between atoms: C_15  and  C_16
REMARK                            x       y       z     vdW  Elec       q    Type
REMARK                         _______ _______ _______ _____ _____    ______ ____
ROOT
ATOM      2  O   UNL     1       0.069  -2.468  22.669  0.00  0.00    -0.252 OA
ATOM      4  N   UNL     1      -1.213  -1.143  24.125  0.00  0.00    -0.278 N 
ATOM      5  N   UNL     1      -3.490  -0.093  25.400  0.00  0.00    -0.293 NA
ATOM      6  N   UNL     1       0.462  -0.165  22.993  0.00  0.00    -0.279 N 
ATOM      8  C   UNL     1      -1.168   0.210  24.640  0.00  0.00    +0.109 C 
ATOM      9  C   UNL     1      -2.572   0.812  24.677  0.00  0.00    +0.109 C 
ATOM     10  C   UNL     1      -0.189   0.920  23.708  0.00  0.00    +0.133 C 
ATOM     11  C   UNL     1      -2.182  -2.074  24.663  0.00  0.00    +0.125 C 
ATOM     12  C   UNL     1      -3.560  -1.411  24.737  0.00  0.00    +0.104 C 
ATOM     13  C   UNL     1      -0.192  -1.396  23.199  0.00  0.00    +0.305 C 
ENDROOT
BRANCH   5  14
ATOM     14  C   UNL     1      -4.822   0.502  25.493  0.00  0.00    +0.140 C 
BRANCH  14  17
ATOM      7  N   UNL     1      -3.550   2.557  25.741  0.00  0.00    -0.217 NA
ATOM     17  C   UNL     1      -4.766   2.002  25.534  0.00  0.00    +0.059 A 
ATOM     20  C   UNL     1      -5.931   2.730  25.358  0.00  0.00    +0.025 A 
ATOM     23  C   UNL     1      -5.844   4.118  25.398  0.00  0.00    +0.007 A 
ATOM     24  C   UNL     1      -3.505   3.908  25.774  0.00  0.00    +0.215 A 
ATOM     26  C   UNL     1      -4.611   4.726  25.610  0.00  0.00    +0.067 A 
BRANCH  24   3
ATOM      3  O   UNL     1      -2.279   4.483  25.983  0.00  0.00    -0.480 OA
ATOM     27  C   UNL     1      -1.301   4.292  24.967  0.00  0.00    +0.279 C 
ENDBRANCH  24   3
ENDBRANCH  14  17
ENDBRANCH   5  14
BRANCH   6  15
ATOM     15  C   UNL     1       1.553   0.070  22.074  0.00  0.00    +0.144 C 
BRANCH  15  16
ATOM      1  F   UNL     1       6.569  -0.511  24.566  0.00  0.00    -0.205 F 
ATOM     16  C   UNL     1       2.890  -0.085  22.738  0.00  0.00    -0.030 A 
ATOM     18  C   UNL     1       3.228  -1.289  23.355  0.00  0.00    +0.008 A 
ATOM     19  C   UNL     1       3.795   0.976  22.739  0.00  0.00    +0.008 A 
ATOM     21  C   UNL     1       4.470  -1.434  23.973  0.00  0.00    +0.038 A 
ATOM     22  C   UNL     1       5.038   0.832  23.356  0.00  0.00    +0.038 A 
ATOM     25  C   UNL     1       5.375  -0.373  23.974  0.00  0.00    +0.123 A 
ENDBRANCH  15  16
ENDBRANCH   6  15
TORSDOF 5
ENDMDL
MODEL 2
REMARK VINA RESULT:      -0.5      1.950      3.244
REMARK  Name = 75537092
REMARK  6 active torsions:
REMARK  status: ('A' for Active; 'I' for Inactive)
REMARK    1  A    between atoms: O_3  and  C_24
REMARK    2  A    between atoms: O_3  and  C_27
REMARK    3  A    between atoms: N_5  and  C_14
REMARK    4  A    between atoms: N_6  and  C_15
REMARK    5  A    between atoms: C_14  and  C_17
REMARK    6  A    between atoms: C_15  and  C_16
REMARK                            x       y       z     vdW  Elec       q    Type
REMARK                         _______ _______ _______ _____ _____    ______ ____
ROOT
ATOM      2  O   UNL     1       1.459   1.599  25.206  0.00  0.00    -0.252 OA
ATOM      4  N   UNL     1      -0.408   2.674  24.266  0.00  0.00    -0.278 N 
ATOM      5  N   UNL     1      -2.858   4.049  24.143  0.00  0.00    -0.293 NA
ATOM      6  N   UNL     1       0.280   0.742  23.350  0.00  0.00    -0.279 N 
ATOM      8  C   UNL     1      -1.250   2.504  23.101  0.00  0.00    +0.109 C 
ATOM      9  C   UNL     1      -2.714   2.745  23.463  0.00  0.00    +0.109 C 
ATOM     10  C   UNL     1      -0.930   1.089  22.625  0.00  0.00    +0.133 C 
ATOM     11  C   UNL     1      -0.570   3.852  25.092  0.00  0.00    +0.125 C 
ATOM     12  C   UNL     1      -2.054   4.089  25.381  0.00  0.00    +0.104 C 
ATOM     13  C   UNL     1       0.561   1.666  24.377  0.00  0.00    +0.305 C 
ENDROOT
BRANCH   5  14
ATOM     14  C   UNL     1      -4.264   4.316  24.440  0.00  0.00    +0.140 C 
BRANCH  14  17
ATOM      7  N   UNL     1      -4.519   1.906  24.606  0.00  0.00    -0.217 NA
ATOM     17  C   UNL     1      -4.952   3.116  25.025  0.00  0.00    +0.059 A 
ATOM     20  C   UNL     1      -5.972   3.300  25.945  0.00  0.00    +0.025 A 
ATOM     23  C   UNL     1      -6.586   2.167  26.470  0.00  0.00    +0.007 A 
ATOM     24  C   UNL     1      -5.140   0.829  25.137  0.00  0.00    +0.215 A 
ATOM     26  C   UNL     1      -6.168   0.905  26.063  0.00  0.00    +0.067 A 
BRANCH  24   3
ATOM      3  O   UNL     1      -4.709  -0.404  24.722  0.00  0.00    -0.480 OA
ATOM     27  C   UNL     1      -3.590  -0.954  25.405  0.00  0.00    +0.279 C 
ENDBRANCH  24   3
ENDBRANCH  14  17
ENDBRANCH   5  14
BRANCH   6  15
ATOM     15  C   UNL     1       0.991  -0.494  23.109  0.00  0.00    +0.144 C 
BRANCH  15  16
ATOM      1  F   UNL     1       6.574   0.208  23.313  0.00  0.00    -0.205 F 
ATOM     16  C   UNL     1       2.479  -0.307  23.164  0.00  0.00    -0.030 A 
ATOM     18  C   UNL     1       3.282  -1.273  23.768  0.00  0.00    +0.008 A 
ATOM     19  C   UNL     1       3.059   0.834  22.609  0.00  0.00    +0.008 A 
ATOM     21  C   UNL     1       4.665  -1.100  23.819  0.00  0.00    +0.038 A 
ATOM     22  C   UNL     1       4.442   1.007  22.660  0.00  0.00    +0.038 A 
ATOM     25  C   UNL     1       5.245   0.041  23.265  0.00  0.00    +0.123 A 
ENDBRANCH  15  16
ENDBRANCH   6  15
TORSDOF 5
ENDMDL
MODEL 3
REMARK VINA RESULT:       1.0      3.691      6.995
REMARK  Name = 75537092
REMARK  6 active torsions:
REMARK  status: ('A' for Active; 'I' for Inactive)
REMARK    1  A    between atoms: O_3  and  C_24
REMARK    2  A    between atoms: O_3  and  C_27
REMARK    3  A    between atoms: N_5  and  C_14
REMARK    4  A    between atoms: N_6  and  C_15
REMARK    5  A    between atoms: C_14  and  C_17
REMARK    6  A    between atoms: C_15  and  C_16
REMARK                            x       y       z     vdW  Elec       q    Type
REMARK                         _______ _______ _______ _____ _____    ______ ____
ROOT
ATOM      2  O   UNL     1       0.401   3.583  23.008  0.00  0.00    -0.252 OA
ATOM      4  N   UNL     1       0.350   1.585  24.243  0.00  0.00    -0.278 N 
ATOM      5  N   UNL     1       0.073  -1.162  24.782  0.00  0.00    -0.293 NA
ATOM      6  N   UNL     1      -0.658   3.396  25.107  0.00  0.00    -0.279 N 
ATOM      8  C   UNL     1      -0.077   1.168  25.562  0.00  0.00    +0.109 C 
ATOM      9  C   UNL     1      -0.780  -0.186  25.490  0.00  0.00    +0.109 C 
ATOM     10  C   UNL     1      -0.953   2.323  26.041  0.00  0.00    +0.133 C 
ATOM     11  C   UNL     1       1.069   0.650  23.403  0.00  0.00    +0.125 C 
ATOM     12  C   UNL     1       0.362  -0.708  23.406  0.00  0.00    +0.104 C 
ATOM     13  C   UNL     1       0.076   2.937  23.996  0.00  0.00    +0.305 C 
ENDROOT
BRANCH   5  14
ATOM     14  C   UNL     1      -0.566  -2.477  24.760  0.00  0.00    +0.140 C 
BRANCH  14  17
ATOM      7  N   UNL     1      -2.641  -1.214  24.760  0.00  0.00    -0.217 NA
ATOM     17  C   UNL     1      -2.033  -2.383  24.457  0.00  0.00    +0.059 A 
ATOM     20  C   UNL     1      -2.681  -3.470  23.892  0.00  0.00    +0.025 A 
ATOM     23  C   UNL     1      -4.040  -3.349  23.620  0.00  0.00    +0.007 A 
ATOM     24  C   UNL     1      -3.961  -1.133  24.482  0.00  0.00    +0.215 A 
ATOM     26  C   UNL     1      -4.699  -2.162  23.918  0.00  0.00    +0.067 A 
BRANCH  24   3
ATOM      3  O   UNL     1      -4.589   0.047  24.784  0.00  0.00    -0.480 OA
ATOM     27  C   UNL     1      -3.966   1.239  24.322  0.00  0.00    +0.279 C 
ENDBRANCH  24   3
ENDBRANCH  14  17
ENDBRANCH   5  14
BRANCH   6  15
ATOM     15  C   UNL     1      -1.206   4.724  25.269  0.00  0.00    +0.144 C 
BRANCH  15  16
ATOM      1  F   UNL     1      -6.825   4.659  25.626  0.00  0.00    -0.205 F 
ATOM     16  C   UNL     1      -2.703   4.707  25.364  0.00  0.00    -0.030 A 
ATOM     18  C   UNL     1      -3.477   5.042  24.253  0.00  0.00    +0.008 A 
ATOM     19  C   UNL     1      -3.322   4.356  26.564  0.00  0.00    +0.008 A 
ATOM     21  C   UNL     1      -4.869   5.026  24.341  0.00  0.00    +0.038 A 
ATOM     22  C   UNL     1      -4.714   4.340  26.652  0.00  0.00    +0.038 A 
ATOM     25  C   UNL     1      -5.488   4.675  25.541  0.00  0.00    +0.123 A 
ENDBRANCH  15  16
ENDBRANCH   6  15
TORSDOF 5
ENDMDL
