MODEL 1
REMARK VINA RESULT:      -3.8      0.000      0.000
REMARK  Name = 45783777
REMARK  6 active torsions:
REMARK  status: ('A' for Active; 'I' for Inactive)
REMARK    1  A    between atoms: N_4  and  C_13
REMARK    2  A    between atoms: N_8  and  C_27
REMARK    3  A    between atoms: N_8  and  C_28
REMARK    4  A    between atoms: C_9  and  C_14
REMARK    5  A    between atoms: C_13  and  C_15
REMARK    6  A    between atoms: C_18  and  C_22
REMARK                            x       y       z     vdW  Elec       q    Type
REMARK                         _______ _______ _______ _____ _____    ______ ____
ROOT
ATOM      4  N   UNL     1      -5.141   1.718  25.185  0.00  0.00    -0.287 NA
ATOM      9  C   UNL     1      -4.353   2.608  24.307  0.00  0.00    +0.146 C 
ATOM     10  C   UNL     1      -4.775   4.031  24.713  0.00  0.00    +0.030 C 
ATOM     11  C   UNL     1      -6.368   2.444  25.514  0.00  0.00    +0.085 C 
ATOM     12  C   UNL     1      -5.845   3.841  25.779  0.00  0.00    +0.017 C 
ENDROOT
BRANCH   9  14
ATOM      1  O   UNL     1      -2.267   2.876  25.551  0.00  0.00    -0.336 OA
ATOM      5  N   UNL     1      -2.042   1.769  23.618  0.00  0.00    -0.190 NA
ATOM      6  N   UNL     1      -0.909   2.548  25.447  0.00  0.00    -0.056 NA
ATOM     14  C   UNL     1      -2.861   2.380  24.436  0.00  0.00    +0.245 A 
ATOM     18  C   UNL     1      -0.857   1.897  24.280  0.00  0.00    +0.204 A 
BRANCH  18  22
ATOM      7  N   UNL     1       2.738   1.616  23.371  0.00  0.00    -0.240 NA
ATOM     22  C   UNL     1       0.364   1.361  23.751  0.00  0.00    +0.041 A 
ATOM     24  C   UNL     1       0.390   0.121  23.124  0.00  0.00    +0.016 A 
ATOM     25  C   UNL     1       1.555   2.063  23.848  0.00  0.00    +0.124 A 
ATOM     26  C   UNL     1       1.588  -0.374  22.621  0.00  0.00    +0.044 A 
ATOM     27  C   UNL     1       2.724   0.406  22.767  0.00  0.00    +0.118 A 
BRANCH  27   8
ATOM      8  N   UNL     1       3.937  -0.111  22.250  0.00  0.00    -0.332 N 
ATOM     28  C   UNL     1       5.182   0.013  22.936  0.00  0.00    +0.127 C 
ATOM     29  H   UNL     1       3.948  -0.373  21.271  0.00  0.00    +0.147 HD
ENDBRANCH  27   8
ENDBRANCH  18  22
ENDBRANCH   9  14
BRANCH   4  13
ATOM     13  C   UNL     1      -5.417   0.419  24.587  0.00  0.00    +0.120 C 
BRANCH  13  15
ATOM      2  O   UNL     1      -1.017  -0.965  26.383  0.00  0.00    -0.453 OA
ATOM      3  O   UNL     1      -0.919  -2.914  24.969  0.00  0.00    -0.453 OA
ATOM     15  C   UNL     1      -4.224  -0.497  24.662  0.00  0.00    -0.030 A 
ATOM     16  C   UNL     1      -3.186  -0.212  25.552  0.00  0.00    +0.054 A 
ATOM     17  C   UNL     1      -4.167  -1.634  23.836  0.00  0.00    +0.009 A 
ATOM     19  C   UNL     1      -2.114  -1.081  25.587  0.00  0.00    +0.167 A 
ATOM     20  C   UNL     1      -3.070  -2.498  23.892  0.00  0.00    +0.050 A 
ATOM     21  C   UNL     1      -2.059  -2.194  24.778  0.00  0.00    +0.166 A 
ATOM     23  C   UNL     1      -0.265  -2.130  25.988  0.00  0.00    +0.466 C 
ENDBRANCH  13  15
ENDBRANCH   4  13
TORSDOF 5
ENDMDL
MODEL 2
REMARK VINA RESULT:      -1.5      1.516      2.035
REMARK  Name = 45783777
REMARK  6 active torsions:
REMARK  status: ('A' for Active; 'I' for Inactive)
REMARK    1  A    between atoms: N_4  and  C_13
REMARK    2  A    between atoms: N_8  and  C_27
REMARK    3  A    between atoms: N_8  and  C_28
REMARK    4  A    between atoms: C_9  and  C_14
REMARK    5  A    between atoms: C_13  and  C_15
REMARK    6  A    between atoms: C_18  and  C_22
REMARK                            x       y       z     vdW  Elec       q    Type
REMARK                         _______ _______ _______ _____ _____    ______ ____
ROOT
ATOM      4  N   UNL     1      -3.464   2.812  25.594  0.00  0.00    -0.287 NA
ATOM      9  C   UNL     1      -2.897   3.338  24.336  0.00  0.00    +0.146 C 
ATOM     10  C   UNL     1      -2.349   4.728  24.706  0.00  0.00    +0.030 C 
ATOM     11  C   UNL     1      -3.872   3.975  26.382  0.00  0.00    +0.085 C 
ATOM     12  C   UNL     1      -2.706   4.921  26.173  0.00  0.00    +0.017 C 
ENDROOT
BRANCH   9  14
ATOM      1  O   UNL     1      -2.202   1.697  22.664  0.00  0.00    -0.336 OA
ATOM      5  N   UNL     1      -0.602   2.235  24.136  0.00  0.00    -0.190 NA
ATOM      6  N   UNL     1      -1.076   0.945  22.306  0.00  0.00    -0.056 NA
ATOM     14  C   UNL     1      -1.838   2.429  23.748  0.00  0.00    +0.245 A 
ATOM     18  C   UNL     1      -0.175   1.318  23.221  0.00  0.00    +0.204 A 
BRANCH  18  22
ATOM      7  N   UNL     1       2.626  -1.114  23.482  0.00  0.00    -0.240 NA
ATOM     22  C   UNL     1       1.160   0.794  23.247  0.00  0.00    +0.041 A 
ATOM     24  C   UNL     1       2.260   1.627  23.071  0.00  0.00    +0.016 A 
ATOM     25  C   UNL     1       1.395  -0.556  23.447  0.00  0.00    +0.124 A 
ATOM     26  C   UNL     1       3.542   1.091  23.100  0.00  0.00    +0.044 A 
ATOM     27  C   UNL     1       3.671  -0.274  23.309  0.00  0.00    +0.118 A 
BRANCH  27   8
ATOM      8  N   UNL     1       4.984  -0.805  23.335  0.00  0.00    -0.332 N 
ATOM     28  C   UNL     1       6.136   0.003  23.571  0.00  0.00    +0.127 C 
ATOM     29  H   UNL     1       5.114  -1.736  22.955  0.00  0.00    +0.147 HD
ENDBRANCH  27   8
ENDBRANCH  18  22
ENDBRANCH   9  14
BRANCH   4  13
ATOM     13  C   UNL     1      -4.563   1.880  25.384  0.00  0.00    +0.120 C 
BRANCH  13  15
ATOM      2  O   UNL     1      -1.238  -1.786  25.450  0.00  0.00    -0.453 OA
ATOM      3  O   UNL     1      -2.612  -3.217  24.082  0.00  0.00    -0.453 OA
ATOM     15  C   UNL     1      -4.070   0.506  25.014  0.00  0.00    -0.030 A 
ATOM     16  C   UNL     1      -2.822   0.071  25.468  0.00  0.00    +0.054 A 
ATOM     17  C   UNL     1      -4.872  -0.329  24.215  0.00  0.00    +0.009 A 
ATOM     19  C   UNL     1      -2.415  -1.196  25.105  0.00  0.00    +0.167 A 
ATOM     20  C   UNL     1      -4.435  -1.608  23.863  0.00  0.00    +0.050 A 
ATOM     21  C   UNL     1      -3.200  -2.013  24.324  0.00  0.00    +0.166 A 
ATOM     23  C   UNL     1      -1.369  -3.066  24.799  0.00  0.00    +0.466 C 
ENDBRANCH  13  15
ENDBRANCH   4  13
TORSDOF 5
ENDMDL
MODEL 3
REMARK VINA RESULT:      -1.3      1.693      2.409
REMARK  Name = 45783777
REMARK  6 active torsions:
REMARK  status: ('A' for Active; 'I' for Inactive)
REMARK    1  A    between atoms: N_4  and  C_13
REMARK    2  A    between atoms: N_8  and  C_27
REMARK    3  A    between atoms: N_8  and  C_28
REMARK    4  A    between atoms: C_9  and  C_14
REMARK    5  A    between atoms: C_13  and  C_15
REMARK    6  A    between atoms: C_18  and  C_22
REMARK                            x       y       z     vdW  Elec       q    Type
REMARK                         _______ _______ _______ _____ _____    ______ ____
ROOT
ATOM      4  N   UNL     1      -3.511   2.761  25.463  0.00  0.00    -0.287 NA
ATOM      9  C   UNL     1      -2.758   3.261  24.295  0.00  0.00    +0.146 C 
ATOM     10  C   UNL     1      -2.174   4.609  24.755  0.00  0.00    +0.030 C 
ATOM     11  C   UNL     1      -3.942   3.941  26.213  0.00  0.00    +0.085 C 
ATOM     12  C   UNL     1      -2.701   4.811  26.169  0.00  0.00    +0.017 C 
ENDROOT
BRANCH   9  14
ATOM      1  O   UNL     1      -2.127   1.187  23.168  0.00  0.00    -0.336 OA
ATOM      5  N   UNL     1      -0.393   2.353  23.973  0.00  0.00    -0.190 NA
ATOM      6  N   UNL     1      -0.980   0.451  22.844  0.00  0.00    -0.056 NA
ATOM     14  C   UNL     1      -1.693   2.290  23.830  0.00  0.00    +0.245 A 
ATOM     18  C   UNL     1       0.001   1.204  23.352  0.00  0.00    +0.204 A 
BRANCH  18  22
ATOM      7  N   UNL     1       3.699   1.521  23.119  0.00  0.00    -0.240 NA
ATOM     22  C   UNL     1       1.384   0.837  23.254  0.00  0.00    +0.041 A 
ATOM     24  C   UNL     1       1.768  -0.499  23.200  0.00  0.00    +0.016 A 
ATOM     25  C   UNL     1       2.379   1.799  23.211  0.00  0.00    +0.124 A 
ATOM     26  C   UNL     1       3.116  -0.826  23.105  0.00  0.00    +0.044 A 
ATOM     27  C   UNL     1       4.035   0.212  23.068  0.00  0.00    +0.118 A 
BRANCH  27   8
ATOM      8  N   UNL     1       5.405  -0.137  22.972  0.00  0.00    -0.332 N 
ATOM     28  C   UNL     1       6.157  -0.613  24.087  0.00  0.00    +0.127 C 
ATOM     29  H   UNL     1       5.904   0.175  22.147  0.00  0.00    +0.147 HD
ENDBRANCH  27   8
ENDBRANCH  18  22
ENDBRANCH   9  14
BRANCH   4  13
ATOM     13  C   UNL     1      -4.632   1.904  25.100  0.00  0.00    +0.120 C 
BRANCH  13  15
ATOM      2  O   UNL     1      -4.607  -2.632  23.121  0.00  0.00    -0.453 OA
ATOM      3  O   UNL     1      -3.240  -3.527  24.892  0.00  0.00    -0.453 OA
ATOM     15  C   UNL     1      -4.241   0.450  25.077  0.00  0.00    -0.030 A 
ATOM     16  C   UNL     1      -4.671  -0.367  24.029  0.00  0.00    +0.054 A 
ATOM     17  C   UNL     1      -3.444  -0.072  26.111  0.00  0.00    +0.009 A 
ATOM     19  C   UNL     1      -4.285  -1.692  24.050  0.00  0.00    +0.167 A 
ATOM     20  C   UNL     1      -3.067  -1.417  26.108  0.00  0.00    +0.050 A 
ATOM     21  C   UNL     1      -3.504  -2.202  25.062  0.00  0.00    +0.166 A 
ATOM     23  C   UNL     1      -3.942  -3.793  23.660  0.00  0.00    +0.466 C 
ENDBRANCH  13  15
ENDBRANCH   4  13
TORSDOF 5
ENDMDL
MODEL 4
REMARK VINA RESULT:      -0.9     15.724     17.634
REMARK  Name = 45783777
REMARK  6 active torsions:
REMARK  status: ('A' for Active; 'I' for Inactive)
REMARK    1  A    between atoms: N_4  and  C_13
REMARK    2  A    between atoms: N_8  and  C_27
REMARK    3  A    between atoms: N_8  and  C_28
REMARK    4  A    between atoms: C_9  and  C_14
REMARK    5  A    between atoms: C_13  and  C_15
REMARK    6  A    between atoms: C_18  and  C_22
REMARK                            x       y       z     vdW  Elec       q    Type
REMARK                         _______ _______ _______ _____ _____    ______ ____
ROOT
ATOM      4  N   UNL     1      -6.560 -10.721  11.066  0.00  0.00    -0.287 NA
ATOM      9  C   UNL     1      -5.841  -9.495  11.470  0.00  0.00    +0.146 C 
ATOM     10  C   UNL     1      -6.252  -9.268  12.936  0.00  0.00    +0.030 C 
ATOM     11  C   UNL     1      -7.770 -10.780  11.885  0.00  0.00    +0.085 C 
ATOM     12  C   UNL     1      -7.246 -10.377  13.249  0.00  0.00    +0.017 C 
ENDROOT
BRANCH   9  14
ATOM      1  O   UNL     1      -3.888 -10.752  10.711  0.00  0.00    -0.336 OA
ATOM      5  N   UNL     1      -3.399  -8.767  11.626  0.00  0.00    -0.190 NA
ATOM      6  N   UNL     1      -2.494 -10.633  10.657  0.00  0.00    -0.056 NA
ATOM     14  C   UNL     1      -4.342  -9.613  11.293  0.00  0.00    +0.245 A 
ATOM     18  C   UNL     1      -2.283  -9.436  11.215  0.00  0.00    +0.204 A 
BRANCH  18  22
ATOM      7  N   UNL     1       1.326  -8.759  10.630  0.00  0.00    -0.240 NA
ATOM     22  C   UNL     1      -0.970  -8.881  11.376  0.00  0.00    +0.041 A 
ATOM     24  C   UNL     1      -0.699  -7.963  12.384  0.00  0.00    +0.016 A 
ATOM     25  C   UNL     1       0.068  -9.243  10.533  0.00  0.00    +0.124 A 
ATOM     26  C   UNL     1       0.583  -7.441  12.516  0.00  0.00    +0.044 A 
ATOM     27  C   UNL     1       1.552  -7.868  11.622  0.00  0.00    +0.118 A 
BRANCH  27   8
ATOM      8  N   UNL     1       2.854  -7.327  11.768  0.00  0.00    -0.332 N 
ATOM     28  C   UNL     1       3.086  -5.965  12.121  0.00  0.00    +0.127 C 
ATOM     29  H   UNL     1       3.624  -7.869  11.393  0.00  0.00    +0.147 HD
ENDBRANCH  27   8
ENDBRANCH  18  22
ENDBRANCH   9  14
BRANCH   4  13
ATOM     13  C   UNL     1      -6.859 -10.768   9.641  0.00  0.00    +0.120 C 
BRANCH  13  15
ATOM      2  O   UNL     1      -8.327  -6.196   8.441  0.00  0.00    -0.453 OA
ATOM      3  O   UNL     1     -10.626  -6.873   8.184  0.00  0.00    -0.453 OA
ATOM     15  C   UNL     1      -7.897  -9.748   9.253  0.00  0.00    -0.030 A 
ATOM     16  C   UNL     1      -7.519  -8.420   9.042  0.00  0.00    +0.054 A 
ATOM     17  C   UNL     1      -9.239 -10.144   9.103  0.00  0.00    +0.009 A 
ATOM     19  C   UNL     1      -8.505  -7.523   8.685  0.00  0.00    +0.167 A 
ATOM     20  C   UNL     1     -10.217  -9.215   8.741  0.00  0.00    +0.050 A 
ATOM     21  C   UNL     1      -9.818  -7.910   8.538  0.00  0.00    +0.166 A 
ATOM     23  C   UNL     1      -9.675  -5.790   8.124  0.00  0.00    +0.466 C 
ENDBRANCH  13  15
ENDBRANCH   4  13
TORSDOF 5
ENDMDL
MODEL 5
REMARK VINA RESULT:      -0.5      1.713      4.111
REMARK  Name = 45783777
REMARK  6 active torsions:
REMARK  status: ('A' for Active; 'I' for Inactive)
REMARK    1  A    between atoms: N_4  and  C_13
REMARK    2  A    between atoms: N_8  and  C_27
REMARK    3  A    between atoms: N_8  and  C_28
REMARK    4  A    between atoms: C_9  and  C_14
REMARK    5  A    between atoms: C_13  and  C_15
REMARK    6  A    between atoms: C_18  and  C_22
REMARK                            x       y       z     vdW  Elec       q    Type
REMARK                         _______ _______ _______ _____ _____    ______ ____
ROOT
ATOM      4  N   UNL     1      -4.291  -1.203  23.950  0.00  0.00    -0.287 NA
ATOM      9  C   UNL     1      -3.382  -1.629  25.034  0.00  0.00    +0.146 C 
ATOM     10  C   UNL     1      -3.256  -3.153  24.862  0.00  0.00    +0.030 C 
ATOM     11  C   UNL     1      -5.156  -2.347  23.663  0.00  0.00    +0.085 C 
ATOM     12  C   UNL     1      -4.173  -3.500  23.698  0.00  0.00    +0.017 C 
ENDROOT
BRANCH   9  14
ATOM      1  O   UNL     1      -1.852   0.075  25.888  0.00  0.00    -0.336 OA
ATOM      5  N   UNL     1      -1.026  -1.127  24.188  0.00  0.00    -0.190 NA
ATOM      6  N   UNL     1      -0.564   0.571  25.651  0.00  0.00    -0.056 NA
ATOM     14  C   UNL     1      -2.044  -0.921  24.985  0.00  0.00    +0.245 A 
ATOM     18  C   UNL     1      -0.143  -0.188  24.634  0.00  0.00    +0.204 A 
BRANCH  18  22
ATOM      7  N   UNL     1       2.843   1.426  23.114  0.00  0.00    -0.240 NA
ATOM     22  C   UNL     1       1.156  -0.035  24.045  0.00  0.00    +0.041 A 
ATOM     24  C   UNL     1       1.978  -1.135  23.827  0.00  0.00    +0.016 A 
ATOM     25  C   UNL     1       1.631   1.213  23.674  0.00  0.00    +0.124 A 
ATOM     26  C   UNL     1       3.232  -0.956  23.254  0.00  0.00    +0.044 A 
ATOM     27  C   UNL     1       3.614   0.333  22.917  0.00  0.00    +0.118 A 
BRANCH  27   8
ATOM      8  N   UNL     1       4.895   0.499  22.335  0.00  0.00    -0.332 N 
ATOM     28  C   UNL     1       6.088   0.014  22.948  0.00  0.00    +0.127 C 
ATOM     29  H   UNL     1       4.976   1.172  21.581  0.00  0.00    +0.147 HD
ENDBRANCH  27   8
ENDBRANCH  18  22
ENDBRANCH   9  14
BRANCH   4  13
ATOM     13  C   UNL     1      -5.055  -0.007  24.278  0.00  0.00    +0.120 C 
BRANCH  13  15
ATOM      2  O   UNL     1      -3.377   4.187  26.301  0.00  0.00    -0.453 OA
ATOM      3  O   UNL     1      -1.877   4.613  24.464  0.00  0.00    -0.453 OA
ATOM     15  C   UNL     1      -4.189   1.225  24.294  0.00  0.00    -0.030 A 
ATOM     16  C   UNL     1      -4.259   2.108  25.374  0.00  0.00    +0.054 A 
ATOM     17  C   UNL     1      -3.313   1.473  23.222  0.00  0.00    +0.009 A 
ATOM     19  C   UNL     1      -3.444   3.221  25.345  0.00  0.00    +0.167 A 
ATOM     20  C   UNL     1      -2.499   2.608  23.217  0.00  0.00    +0.050 A 
ATOM     21  C   UNL     1      -2.587   3.464  24.295  0.00  0.00    +0.166 A 
ATOM     23  C   UNL     1      -2.382   5.065  25.737  0.00  0.00    +0.466 C 
ENDBRANCH  13  15
ENDBRANCH   4  13
TORSDOF 5
ENDMDL
